MODEL 1
REMARK VINA RESULT:      -7.0      0.000      0.000
REMARK  Name = 
REMARK  27 active torsions:
REMARK  status: ('A' for Active; 'I' for Inactive)
REMARK    1  A    between atoms: C_1  and  C_2
REMARK    2  A    between atoms: C_2  and  C_3
REMARK    3  A    between atoms: C_2  and  C_4
REMARK    4  A    between atoms: C_2  and  C_5
REMARK    5  A    between atoms: C_5  and  C_7
REMARK    6  A    between atoms: C_5  and  N_50
REMARK    7  A    between atoms: N_9  and  C_10
REMARK    8  A    between atoms: C_10  and  C_12
REMARK    9  A    between atoms: C_10  and  C_19
REMARK   10  A    between atoms: C_12  and  C_13
REMARK   11  A    between atoms: C_19  and  C_21
REMARK   12  A    between atoms: C_19  and  O_49
REMARK   13  A    between atoms: C_21  and  N_22
REMARK   14  A    between atoms: N_22  and  C_23
REMARK   15  A    between atoms: N_22  and  N_36
REMARK   16  A    between atoms: C_23  and  C_24
REMARK   17  A    between atoms: C_27  and  C_30
REMARK   18  A    between atoms: C_37  and  C_39
REMARK   19  A    between atoms: C_39  and  C_40
REMARK   20  A    between atoms: C_39  and  N_44
REMARK   21  A    between atoms: C_40  and  C_41
REMARK   22  A    between atoms: C_40  and  C_42
REMARK   23  A    between atoms: C_40  and  C_43
REMARK   24  A    between atoms: C_45  and  O_47
REMARK   25  A    between atoms: O_47  and  C_48
REMARK   26  A    between atoms: C_51  and  O_53
REMARK   27  A    between atoms: O_53  and  C_54
REMARK                            x       y       z     vdW  Elec       q    Type
REMARK                         _______ _______ _______ _____ _____    ______ ____
ROOT
ATOM      1  N   UNL     1       8.719  -2.323  24.824  0.00  0.00    -0.220 NA
ENDROOT
BRANCH   1   2
ATOM      2  N   UNL     1       7.679  -1.475  25.396  0.00  0.00    -0.246 N 
ATOM      3  H   UNL     1       6.950  -1.125  24.769  0.00  0.00    +0.169 HD
ATOM      4  C   UNL     1       7.905  -0.765  26.590  0.00  0.00    +0.248 C 
ATOM      5  O   UNL     1       8.960  -0.827  27.222  0.00  0.00    -0.272 OA
BRANCH   4   6
ATOM      6  C   UNL     1       6.738   0.201  27.021  0.00  0.00    +0.169 C 
BRANCH   6   7
ATOM      7  C   UNL     1       6.429   1.386  26.025  0.00  0.00    -0.011 C 
ATOM      8  C   UNL     1       7.738   2.079  25.609  0.00  0.00    +0.013 C 
ATOM      9  C   UNL     1       5.548   2.457  26.723  0.00  0.00    +0.013 C 
ATOM     10  C   UNL     1       5.673   0.952  24.750  0.00  0.00    +0.013 C 
ENDBRANCH   6   7
BRANCH   6  11
ATOM     11  N   UNL     1       5.532  -0.597  27.235  0.00  0.00    -0.269 N 
ATOM     12  H   UNL     1       5.249  -1.288  26.552  0.00  0.00    +0.153 HD
ATOM     13  C   UNL     1       4.790  -0.552  28.370  0.00  0.00    +0.401 C 
ATOM     14  O   UNL     1       5.058   0.123  29.350  0.00  0.00    -0.226 OA
BRANCH  13  15
ATOM     15  O   UNL     1       3.711  -1.355  28.221  0.00  0.00    -0.454 OA
ATOM     16  C   UNL     1       2.681  -0.827  27.384  0.00  0.00    +0.282 C 
ENDBRANCH  13  15
ENDBRANCH   6  11
ENDBRANCH   4   6
ENDBRANCH   1   2
BRANCH   1  17
ATOM     17  C   UNL     1       8.422  -3.768  24.908  0.00  0.00    +0.139 C 
BRANCH  17  18
ATOM     18  C   UNL     1       8.277  -4.529  26.296  0.00  0.00    +0.151 C 
BRANCH  18  19
ATOM     19  O   UNL     1       8.746  -5.880  26.059  0.00  0.00    -0.389 OA
ATOM     20  H   UNL     1       8.602  -6.384  26.879  0.00  0.00    +0.210 HD
ENDBRANCH  18  19
BRANCH  18  21
ATOM     21  C   UNL     1       6.831  -4.649  26.887  0.00  0.00    +0.107 C 
BRANCH  21  23
ATOM     22  C   UNL     1       4.970  -3.967  25.208  0.00  0.00    +0.234 C 
ATOM     23  N   UNL     1       5.724  -4.916  25.880  0.00  0.00    -0.308 N 
ATOM     24  H   UNL     1       5.623  -5.882  25.608  0.00  0.00    +0.149 HD
ATOM     25  O   UNL     1       4.940  -2.797  25.595  0.00  0.00    -0.274 OA
BRANCH  22  26
ATOM     26  C   UNL     1       4.086  -4.447  23.955  0.00  0.00    +0.167 C 
BRANCH  26  28
ATOM     27  C   UNL     1       1.836  -5.400  23.205  0.00  0.00    +0.013 C 
ATOM     28  C   UNL     1       2.903  -5.424  24.319  0.00  0.00    -0.011 C 
ATOM     29  C   UNL     1       3.325  -6.917  24.441  0.00  0.00    +0.013 C 
ATOM     30  C   UNL     1       2.291  -5.034  25.673  0.00  0.00    +0.013 C 
ENDBRANCH  26  28
BRANCH  26  31
ATOM     31  N   UNL     1       4.947  -4.991  22.897  0.00  0.00    -0.269 N 
ATOM     32  H   UNL     1       5.202  -5.965  22.887  0.00  0.00    +0.153 HD
ATOM     33  C   UNL     1       5.493  -4.254  21.881  0.00  0.00    +0.401 C 
ATOM     34  O   UNL     1       5.407  -3.056  21.744  0.00  0.00    -0.226 OA
BRANCH  33  35
ATOM     35  O   UNL     1       6.129  -5.104  21.032  0.00  0.00    -0.454 OA
ATOM     36  C   UNL     1       7.050  -6.002  21.651  0.00  0.00    +0.282 C 
ENDBRANCH  33  35
ENDBRANCH  26  31
ENDBRANCH  22  26
ENDBRANCH  21  23
BRANCH  21  37
ATOM     37  C   UNL     1       6.762  -5.633  28.076  0.00  0.00    +0.060 C 
BRANCH  37  38
ATOM     38  C   UNL     1       5.369  -5.722  28.634  0.00  0.00    -0.046 A 
ATOM     39  C   UNL     1       4.761  -4.580  29.174  0.00  0.00    +0.004 A 
ATOM     40  C   UNL     1       3.420  -4.613  29.538  0.00  0.00    +0.000 A 
ATOM     41  C   UNL     1       2.680  -5.783  29.364  0.00  0.00    +0.000 A 
ATOM     42  C   UNL     1       3.294  -6.934  28.868  0.00  0.00    +0.000 A 
ATOM     43  C   UNL     1       4.639  -6.910  28.522  0.00  0.00    +0.004 A 
ENDBRANCH  37  38
ENDBRANCH  21  37
ENDBRANCH  18  21
ENDBRANCH  17  18
ENDBRANCH   1  17
BRANCH   1  44
ATOM     44  C   UNL     1       9.243  -1.850  23.526  0.00  0.00    +0.140 C 
BRANCH  44  45
ATOM     45  C   UNL     1       9.640  -0.396  23.366  0.00  0.00    -0.032 A 
ATOM     46  C   UNL     1       9.151   0.445  22.360  0.00  0.00    +0.005 A 
ATOM     47  C   UNL     1       9.559   1.792  22.285  0.00  0.00    +0.010 A 
ATOM     48  C   UNL     1      10.486   2.326  23.195  0.00  0.00    +0.000 A 
ATOM     49  C   UNL     1      11.048   1.440  24.127  0.00  0.00    +0.010 A 
ATOM     50  C   UNL     1      10.626   0.113  24.220  0.00  0.00    +0.005 A 
BRANCH  48  51
ATOM     51  C   UNL     1      10.747   3.778  23.321  0.00  0.00    +0.071 A 
ATOM     52  N   UNL     1       9.699   4.512  23.776  0.00  0.00    -0.255 NA
ATOM     53  C   UNL     1       9.964   5.742  24.270  0.00  0.00    +0.111 A 
ATOM     54  C   UNL     1      11.229   6.296  24.331  0.00  0.00    +0.020 A 
ATOM     55  C   UNL     1      12.282   5.578  23.782  0.00  0.00    +0.004 A 
ATOM     56  C   UNL     1      12.036   4.316  23.247  0.00  0.00    +0.028 A 
ENDBRANCH  48  51
ENDBRANCH  44  45
ENDBRANCH   1  44
TORSDOF 19
ENDMDL
MODEL 2
REMARK VINA RESULT:      -6.6      1.337      2.182
REMARK  Name = 
REMARK  27 active torsions:
REMARK  status: ('A' for Active; 'I' for Inactive)
REMARK    1  A    between atoms: C_1  and  C_2
REMARK    2  A    between atoms: C_2  and  C_3
REMARK    3  A    between atoms: C_2  and  C_4
REMARK    4  A    between atoms: C_2  and  C_5
REMARK    5  A    between atoms: C_5  and  C_7
REMARK    6  A    between atoms: C_5  and  N_50
REMARK    7  A    between atoms: N_9  and  C_10
REMARK    8  A    between atoms: C_10  and  C_12
REMARK    9  A    between atoms: C_10  and  C_19
REMARK   10  A    between atoms: C_12  and  C_13
REMARK   11  A    between atoms: C_19  and  C_21
REMARK   12  A    between atoms: C_19  and  O_49
REMARK   13  A    between atoms: C_21  and  N_22
REMARK   14  A    between atoms: N_22  and  C_23
REMARK   15  A    between atoms: N_22  and  N_36
REMARK   16  A    between atoms: C_23  and  C_24
REMARK   17  A    between atoms: C_27  and  C_30
REMARK   18  A    between atoms: C_37  and  C_39
REMARK   19  A    between atoms: C_39  and  C_40
REMARK   20  A    between atoms: C_39  and  N_44
REMARK   21  A    between atoms: C_40  and  C_41
REMARK   22  A    between atoms: C_40  and  C_42
REMARK   23  A    between atoms: C_40  and  C_43
REMARK   24  A    between atoms: C_45  and  O_47
REMARK   25  A    between atoms: O_47  and  C_48
REMARK   26  A    between atoms: C_51  and  O_53
REMARK   27  A    between atoms: O_53  and  C_54
REMARK                            x       y       z     vdW  Elec       q    Type
REMARK                         _______ _______ _______ _____ _____    ______ ____
ROOT
ATOM      1  N   UNL     1       8.594  -2.343  24.677  0.00  0.00    -0.220 NA
ENDROOT
BRANCH   1   2
ATOM      2  N   UNL     1       7.402  -1.526  24.878  0.00  0.00    -0.246 N 
ATOM      3  H   UNL     1       6.808  -1.343  24.066  0.00  0.00    +0.169 HD
ATOM      4  C   UNL     1       7.313  -0.635  25.964  0.00  0.00    +0.248 C 
ATOM      5  O   UNL     1       8.205  -0.503  26.802  0.00  0.00    -0.272 OA
BRANCH   4   6
ATOM      6  C   UNL     1       6.020   0.264  25.982  0.00  0.00    +0.169 C 
BRANCH   6   7
ATOM      7  C   UNL     1       5.248   0.322  27.357  0.00  0.00    -0.011 C 
ATOM      8  C   UNL     1       3.764   0.651  27.114  0.00  0.00    +0.013 C 
ATOM      9  C   UNL     1       5.825   1.453  28.250  0.00  0.00    +0.013 C 
ATOM     10  C   UNL     1       5.335  -0.981  28.181  0.00  0.00    +0.013 C 
ENDBRANCH   6   7
BRANCH   6  11
ATOM     11  N   UNL     1       6.389   1.614  25.560  0.00  0.00    -0.269 N 
ATOM     12  H   UNL     1       7.229   2.049  25.919  0.00  0.00    +0.153 HD
ATOM     13  C   UNL     1       5.719   2.316  24.612  0.00  0.00    +0.401 C 
ATOM     14  O   UNL     1       4.765   1.896  23.979  0.00  0.00    -0.226 OA
BRANCH  13  15
ATOM     15  O   UNL     1       6.271   3.548  24.506  0.00  0.00    -0.454 OA
ATOM     16  C   UNL     1       6.608   4.162  25.751  0.00  0.00    +0.282 C 
ENDBRANCH  13  15
ENDBRANCH   6  11
ENDBRANCH   4   6
ENDBRANCH   1   2
BRANCH   1  17
ATOM     17  C   UNL     1       8.351  -3.794  24.801  0.00  0.00    +0.139 C 
BRANCH  17  18
ATOM     18  C   UNL     1       8.179  -4.514  26.209  0.00  0.00    +0.151 C 
BRANCH  18  19
ATOM     19  O   UNL     1       8.623  -5.880  26.014  0.00  0.00    -0.389 OA
ATOM     20  H   UNL     1       9.463  -5.981  26.492  0.00  0.00    +0.210 HD
ENDBRANCH  18  19
BRANCH  18  21
ATOM     21  C   UNL     1       6.725  -4.588  26.790  0.00  0.00    +0.107 C 
BRANCH  21  23
ATOM     22  C   UNL     1       4.706  -3.951  25.285  0.00  0.00    +0.234 C 
ATOM     23  N   UNL     1       5.622  -4.865  25.781  0.00  0.00    -0.308 N 
ATOM     24  H   UNL     1       5.651  -5.783  25.364  0.00  0.00    +0.149 HD
ATOM     25  O   UNL     1       4.524  -2.870  25.851  0.00  0.00    -0.274 OA
BRANCH  22  26
ATOM     26  C   UNL     1       3.843  -4.364  23.995  0.00  0.00    +0.167 C 
BRANCH  26  28
ATOM     27  C   UNL     1       3.457  -6.888  24.118  0.00  0.00    +0.013 C 
ATOM     28  C   UNL     1       2.785  -5.505  24.248  0.00  0.00    -0.011 C 
ATOM     29  C   UNL     1       2.161  -5.492  25.673  0.00  0.00    +0.013 C 
ATOM     30  C   UNL     1       1.615  -5.370  23.260  0.00  0.00    +0.013 C 
ENDBRANCH  26  28
BRANCH  26  31
ATOM     31  N   UNL     1       4.726  -4.670  22.862  0.00  0.00    -0.269 N 
ATOM     32  H   UNL     1       4.809  -5.610  22.510  0.00  0.00    +0.153 HD
ATOM     33  C   UNL     1       5.515  -3.754  22.219  0.00  0.00    +0.401 C 
ATOM     34  O   UNL     1       5.653  -2.593  22.526  0.00  0.00    -0.226 OA
BRANCH  33  35
ATOM     35  O   UNL     1       6.099  -4.367  21.157  0.00  0.00    -0.454 OA
ATOM     36  C   UNL     1       6.202  -5.786  21.256  0.00  0.00    +0.282 C 
ENDBRANCH  33  35
ENDBRANCH  26  31
ENDBRANCH  22  26
ENDBRANCH  21  23
BRANCH  21  37
ATOM     37  C   UNL     1       6.628  -5.534  28.007  0.00  0.00    +0.060 C 
BRANCH  37  38
ATOM     38  C   UNL     1       5.218  -5.622  28.521  0.00  0.00    -0.046 A 
ATOM     39  C   UNL     1       4.522  -6.836  28.441  0.00  0.00    +0.004 A 
ATOM     40  C   UNL     1       3.286  -6.972  29.061  0.00  0.00    +0.000 A 
ATOM     41  C   UNL     1       2.740  -5.898  29.765  0.00  0.00    +0.000 A 
ATOM     42  C   UNL     1       3.409  -4.675  29.810  0.00  0.00    +0.000 A 
ATOM     43  C   UNL     1       4.636  -4.531  29.175  0.00  0.00    +0.004 A 
ENDBRANCH  37  38
ENDBRANCH  21  37
ENDBRANCH  18  21
ENDBRANCH  17  18
ENDBRANCH   1  17
BRANCH   1  44
ATOM     44  C   UNL     1       9.429  -1.927  23.532  0.00  0.00    +0.140 C 
BRANCH  44  45
ATOM     45  C   UNL     1       9.812  -0.469  23.375  0.00  0.00    -0.032 A 
ATOM     46  C   UNL     1       9.499   0.309  22.254  0.00  0.00    +0.005 A 
ATOM     47  C   UNL     1       9.878   1.664  22.190  0.00  0.00    +0.010 A 
ATOM     48  C   UNL     1      10.603   2.271  23.229  0.00  0.00    +0.000 A 
ATOM     49  C   UNL     1      11.001   1.448  24.294  0.00  0.00    +0.010 A 
ATOM     50  C   UNL     1      10.604   0.113  24.373  0.00  0.00    +0.005 A 
BRANCH  48  51
ATOM     51  C   UNL     1      10.797   3.735  23.328  0.00  0.00    +0.071 A 
ATOM     52  N   UNL     1       9.711   4.431  23.752  0.00  0.00    -0.255 NA
ATOM     53  C   UNL     1       9.913   5.681  24.224  0.00  0.00    +0.111 A 
ATOM     54  C   UNL     1      11.152   6.293  24.292  0.00  0.00    +0.020 A 
ATOM     55  C   UNL     1      12.243   5.611  23.773  0.00  0.00    +0.004 A 
ATOM     56  C   UNL     1      12.062   4.329  23.261  0.00  0.00    +0.028 A 
ENDBRANCH  48  51
ENDBRANCH  44  45
ENDBRANCH   1  44
TORSDOF 19
ENDMDL
MODEL 3
REMARK VINA RESULT:      -6.3      2.138      7.460
REMARK  Name = 
REMARK  27 active torsions:
REMARK  status: ('A' for Active; 'I' for Inactive)
REMARK    1  A    between atoms: C_1  and  C_2
REMARK    2  A    between atoms: C_2  and  C_3
REMARK    3  A    between atoms: C_2  and  C_4
REMARK    4  A    between atoms: C_2  and  C_5
REMARK    5  A    between atoms: C_5  and  C_7
REMARK    6  A    between atoms: C_5  and  N_50
REMARK    7  A    between atoms: N_9  and  C_10
REMARK    8  A    between atoms: C_10  and  C_12
REMARK    9  A    between atoms: C_10  and  C_19
REMARK   10  A    between atoms: C_12  and  C_13
REMARK   11  A    between atoms: C_19  and  C_21
REMARK   12  A    between atoms: C_19  and  O_49
REMARK   13  A    between atoms: C_21  and  N_22
REMARK   14  A    between atoms: N_22  and  C_23
REMARK   15  A    between atoms: N_22  and  N_36
REMARK   16  A    between atoms: C_23  and  C_24
REMARK   17  A    between atoms: C_27  and  C_30
REMARK   18  A    between atoms: C_37  and  C_39
REMARK   19  A    between atoms: C_39  and  C_40
REMARK   20  A    between atoms: C_39  and  N_44
REMARK   21  A    between atoms: C_40  and  C_41
REMARK   22  A    between atoms: C_40  and  C_42
REMARK   23  A    between atoms: C_40  and  C_43
REMARK   24  A    between atoms: C_45  and  O_47
REMARK   25  A    between atoms: O_47  and  C_48
REMARK   26  A    between atoms: C_51  and  O_53
REMARK   27  A    between atoms: O_53  and  C_54
REMARK                            x       y       z     vdW  Elec       q    Type
REMARK                         _______ _______ _______ _____ _____    ______ ____
ROOT
ATOM      1  N   UNL     1       8.220  -3.334  23.147  0.00  0.00    -0.220 NA
ENDROOT
BRANCH   1   2
ATOM      2  N   UNL     1       8.235  -1.985  23.701  0.00  0.00    -0.246 N 
ATOM      3  H   UNL     1       7.651  -1.800  24.520  0.00  0.00    +0.169 HD
ATOM      4  C   UNL     1       8.612  -0.884  22.909  0.00  0.00    +0.248 C 
ATOM      5  O   UNL     1       8.961  -0.989  21.733  0.00  0.00    -0.272 OA
BRANCH   4   6
ATOM      6  C   UNL     1       8.464   0.520  23.607  0.00  0.00    +0.169 C 
BRANCH   6   7
ATOM      7  C   UNL     1       9.793   1.360  23.740  0.00  0.00    -0.011 C 
ATOM      8  C   UNL     1       9.522   2.652  24.531  0.00  0.00    +0.013 C 
ATOM      9  C   UNL     1      10.303   1.784  22.336  0.00  0.00    +0.013 C 
ATOM     10  C   UNL     1      10.951   0.599  24.421  0.00  0.00    +0.013 C 
ENDBRANCH   6   7
BRANCH   6  11
ATOM     11  N   UNL     1       7.456   1.292  22.883  0.00  0.00    -0.269 N 
ATOM     12  H   UNL     1       7.659   1.662  21.964  0.00  0.00    +0.153 HD
ATOM     13  C   UNL     1       6.185   1.473  23.324  0.00  0.00    +0.401 C 
ATOM     14  O   UNL     1       5.727   0.987  24.345  0.00  0.00    -0.226 OA
BRANCH  13  15
ATOM     15  O   UNL     1       5.533   2.287  22.461  0.00  0.00    -0.454 OA
ATOM     16  C   UNL     1       6.145   3.562  22.261  0.00  0.00    +0.282 C 
ENDBRANCH  13  15
ENDBRANCH   6  11
ENDBRANCH   4   6
ENDBRANCH   1   2
BRANCH   1  17
ATOM     17  C   UNL     1       8.363  -4.397  24.163  0.00  0.00    +0.139 C 
BRANCH  17  18
ATOM     18  C   UNL     1       8.601  -4.079  25.703  0.00  0.00    +0.151 C 
BRANCH  18  19
ATOM     19  O   UNL     1       9.721  -4.905  26.110  0.00  0.00    -0.389 OA
ATOM     20  H   UNL     1       9.893  -5.534  25.388  0.00  0.00    +0.210 HD
ENDBRANCH  18  19
BRANCH  18  21
ATOM     21  C   UNL     1       7.419  -4.403  26.680  0.00  0.00    +0.107 C 
BRANCH  21  23
ATOM     22  C   UNL     1       6.079  -2.181  26.782  0.00  0.00    +0.234 C 
ATOM     23  N   UNL     1       6.792  -3.208  27.379  0.00  0.00    -0.308 N 
ATOM     24  H   UNL     1       6.814  -3.247  28.387  0.00  0.00    +0.149 HD
ATOM     25  O   UNL     1       6.139  -1.997  25.564  0.00  0.00    -0.274 OA
BRANCH  22  26
ATOM     26  C   UNL     1       5.228  -1.198  27.725  0.00  0.00    +0.167 C 
BRANCH  26  28
ATOM     27  C   UNL     1       3.174  -2.245  26.620  0.00  0.00    +0.013 C 
ATOM     28  C   UNL     1       3.718  -1.612  27.917  0.00  0.00    -0.011 C 
ATOM     29  C   UNL     1       3.488  -2.688  29.018  0.00  0.00    +0.013 C 
ATOM     30  C   UNL     1       2.882  -0.389  28.323  0.00  0.00    +0.013 C 
ENDBRANCH  26  28
BRANCH  26  31
ATOM     31  N   UNL     1       5.365   0.193  27.275  0.00  0.00    -0.269 N 
ATOM     32  H   UNL     1       4.775   0.563  26.548  0.00  0.00    +0.153 HD
ATOM     33  C   UNL     1       6.292   1.079  27.755  0.00  0.00    +0.401 C 
ATOM     34  O   UNL     1       7.164   0.834  28.556  0.00  0.00    -0.226 OA
BRANCH  33  35
ATOM     35  O   UNL     1       6.049   2.294  27.197  0.00  0.00    -0.454 OA
ATOM     36  C   UNL     1       6.960   3.326  27.572  0.00  0.00    +0.282 C 
ENDBRANCH  33  35
ENDBRANCH  26  31
ENDBRANCH  22  26
ENDBRANCH  21  23
BRANCH  21  37
ATOM     37  C   UNL     1       6.347  -5.302  26.026  0.00  0.00    +0.060 C 
BRANCH  37  38
ATOM     38  C   UNL     1       5.391  -5.848  27.050  0.00  0.00    -0.046 A 
ATOM     39  C   UNL     1       5.877  -6.307  28.281  0.00  0.00    +0.004 A 
ATOM     40  C   UNL     1       4.990  -6.656  29.292  0.00  0.00    +0.000 A 
ATOM     41  C   UNL     1       3.615  -6.547  29.080  0.00  0.00    +0.000 A 
ATOM     42  C   UNL     1       3.127  -6.132  27.841  0.00  0.00    +0.000 A 
ATOM     43  C   UNL     1       4.012  -5.801  26.822  0.00  0.00    +0.004 A 
ENDBRANCH  37  38
ENDBRANCH  21  37
ENDBRANCH  18  21
ENDBRANCH  17  18
ENDBRANCH   1  17
BRANCH   1  44
ATOM     44  C   UNL     1       7.178  -3.559  22.125  0.00  0.00    +0.140 C 
BRANCH  44  45
ATOM     45  C   UNL     1       5.976  -4.420  22.459  0.00  0.00    -0.032 A 
ATOM     46  C   UNL     1       5.873  -5.780  22.143  0.00  0.00    +0.005 A 
ATOM     47  C   UNL     1       4.726  -6.517  22.501  0.00  0.00    +0.010 A 
ATOM     48  C   UNL     1       3.642  -5.910  23.157  0.00  0.00    +0.000 A 
ATOM     49  C   UNL     1       3.719  -4.525  23.367  0.00  0.00    +0.010 A 
ATOM     50  C   UNL     1       4.864  -3.798  23.038  0.00  0.00    +0.005 A 
BRANCH  48  51
ATOM     51  C   UNL     1       2.542  -6.682  23.778  0.00  0.00    +0.071 A 
ATOM     52  N   UNL     1       2.866  -7.948  24.146  0.00  0.00    -0.255 NA
ATOM     53  C   UNL     1       2.062  -8.566  25.039  0.00  0.00    +0.111 A 
ATOM     54  C   UNL     1       0.931  -7.991  25.590  0.00  0.00    +0.020 A 
ATOM     55  C   UNL     1       0.556  -6.733  25.142  0.00  0.00    +0.004 A 
ATOM     56  C   UNL     1       1.355  -6.080  24.206  0.00  0.00    +0.028 A 
ENDBRANCH  48  51
ENDBRANCH  44  45
ENDBRANCH   1  44
TORSDOF 19
ENDMDL
MODEL 4
REMARK VINA RESULT:      -6.2      2.259      4.290
REMARK  Name = 
REMARK  27 active torsions:
REMARK  status: ('A' for Active; 'I' for Inactive)
REMARK    1  A    between atoms: C_1  and  C_2
REMARK    2  A    between atoms: C_2  and  C_3
REMARK    3  A    between atoms: C_2  and  C_4
REMARK    4  A    between atoms: C_2  and  C_5
REMARK    5  A    between atoms: C_5  and  C_7
REMARK    6  A    between atoms: C_5  and  N_50
REMARK    7  A    between atoms: N_9  and  C_10
REMARK    8  A    between atoms: C_10  and  C_12
REMARK    9  A    between atoms: C_10  and  C_19
REMARK   10  A    between atoms: C_12  and  C_13
REMARK   11  A    between atoms: C_19  and  C_21
REMARK   12  A    between atoms: C_19  and  O_49
REMARK   13  A    between atoms: C_21  and  N_22
REMARK   14  A    between atoms: N_22  and  C_23
REMARK   15  A    between atoms: N_22  and  N_36
REMARK   16  A    between atoms: C_23  and  C_24
REMARK   17  A    between atoms: C_27  and  C_30
REMARK   18  A    between atoms: C_37  and  C_39
REMARK   19  A    between atoms: C_39  and  C_40
REMARK   20  A    between atoms: C_39  and  N_44
REMARK   21  A    between atoms: C_40  and  C_41
REMARK   22  A    between atoms: C_40  and  C_42
REMARK   23  A    between atoms: C_40  and  C_43
REMARK   24  A    between atoms: C_45  and  O_47
REMARK   25  A    between atoms: O_47  and  C_48
REMARK   26  A    between atoms: C_51  and  O_53
REMARK   27  A    between atoms: O_53  and  C_54
REMARK                            x       y       z     vdW  Elec       q    Type
REMARK                         _______ _______ _______ _____ _____    ______ ____
ROOT
ATOM      1  N   UNL     1       8.459  -2.165  25.983  0.00  0.00    -0.220 NA
ENDROOT
BRANCH   1   2
ATOM      2  N   UNL     1       7.055  -1.771  26.023  0.00  0.00    -0.246 N 
ATOM      3  H   UNL     1       6.485  -1.958  25.195  0.00  0.00    +0.169 HD
ATOM      4  C   UNL     1       6.614  -0.767  26.905  0.00  0.00    +0.248 C 
ATOM      5  O   UNL     1       7.361  -0.185  27.692  0.00  0.00    -0.272 OA
BRANCH   4   6
ATOM      6  C   UNL     1       5.099  -0.365  26.751  0.00  0.00    +0.169 C 
BRANCH   6   7
ATOM      7  C   UNL     1       4.111  -1.006  27.801  0.00  0.00    -0.011 C 
ATOM      8  C   UNL     1       2.687  -1.060  27.220  0.00  0.00    +0.013 C 
ATOM      9  C   UNL     1       4.049  -0.133  29.083  0.00  0.00    +0.013 C 
ATOM     10  C   UNL     1       4.513  -2.428  28.252  0.00  0.00    +0.013 C 
ENDBRANCH   6   7
BRANCH   6  11
ATOM     11  N   UNL     1       5.000   1.093  26.799  0.00  0.00    -0.269 N 
ATOM     12  H   UNL     1       5.094   1.581  27.680  0.00  0.00    +0.153 HD
ATOM     13  C   UNL     1       4.889   1.877  25.697  0.00  0.00    +0.401 C 
ATOM     14  O   UNL     1       4.896   1.468  24.548  0.00  0.00    -0.226 OA
BRANCH  13  15
ATOM     15  O   UNL     1       4.750   3.166  26.089  0.00  0.00    -0.454 OA
ATOM     16  C   UNL     1       5.579   4.096  25.390  0.00  0.00    +0.282 C 
ENDBRANCH  13  15
ENDBRANCH   6  11
ENDBRANCH   4   6
ENDBRANCH   1   2
BRANCH   1  17
ATOM     17  C   UNL     1       8.709  -3.531  26.488  0.00  0.00    +0.139 C 
BRANCH  17  18
ATOM     18  C   UNL     1       7.561  -4.628  26.585  0.00  0.00    +0.151 C 
BRANCH  18  19
ATOM     19  O   UNL     1       7.853  -5.404  27.774  0.00  0.00    -0.389 OA
ATOM     20  H   UNL     1       8.165  -6.277  27.479  0.00  0.00    +0.210 HD
ENDBRANCH  18  19
BRANCH  18  21
ATOM     21  C   UNL     1       7.454  -5.643  25.395  0.00  0.00    +0.107 C 
BRANCH  21  23
ATOM     22  C   UNL     1       5.004  -6.431  25.749  0.00  0.00    +0.234 C 
ATOM     23  N   UNL     1       6.043  -5.990  24.946  0.00  0.00    -0.308 N 
ATOM     24  H   UNL     1       5.838  -5.762  23.985  0.00  0.00    +0.149 HD
ATOM     25  O   UNL     1       5.223  -6.863  26.883  0.00  0.00    -0.274 OA
BRANCH  22  26
ATOM     26  C   UNL     1       3.518  -6.426  25.140  0.00  0.00    +0.167 C 
BRANCH  26  28
ATOM     27  C   UNL     1       2.191  -4.770  26.566  0.00  0.00    +0.013 C 
ATOM     28  C   UNL     1       2.798  -5.023  25.170  0.00  0.00    -0.011 C 
ATOM     29  C   UNL     1       3.744  -3.815  24.916  0.00  0.00    +0.013 C 
ATOM     30  C   UNL     1       1.713  -4.962  24.083  0.00  0.00    +0.013 C 
ENDBRANCH  26  28
BRANCH  26  31
ATOM     31  N   UNL     1       2.704  -7.478  25.761  0.00  0.00    -0.269 N 
ATOM     32  H   UNL     1       2.577  -7.513  26.760  0.00  0.00    +0.153 HD
ATOM     33  C   UNL     1       2.089  -8.493  25.078  0.00  0.00    +0.401 C 
ATOM     34  O   UNL     1       2.179  -8.711  23.892  0.00  0.00    -0.226 OA
BRANCH  33  35
ATOM     35  O   UNL     1       1.335  -9.203  25.958  0.00  0.00    -0.454 OA
ATOM     36  C   UNL     1       0.922 -10.490  25.502  0.00  0.00    +0.282 C 
ENDBRANCH  33  35
ENDBRANCH  26  31
ENDBRANCH  22  26
ENDBRANCH  21  23
BRANCH  21  37
ATOM     37  C   UNL     1       8.345  -5.242  24.200  0.00  0.00    +0.060 C 
BRANCH  37  38
ATOM     38  C   UNL     1       7.519  -4.891  22.994  0.00  0.00    -0.046 A 
ATOM     39  C   UNL     1       7.229  -5.875  22.038  0.00  0.00    +0.004 A 
ATOM     40  C   UNL     1       6.332  -5.604  21.012  0.00  0.00    +0.000 A 
ATOM     41  C   UNL     1       5.721  -4.352  20.935  0.00  0.00    +0.000 A 
ATOM     42  C   UNL     1       6.041  -3.356  21.858  0.00  0.00    +0.000 A 
ATOM     43  C   UNL     1       6.952  -3.618  22.874  0.00  0.00    +0.004 A 
ENDBRANCH  37  38
ENDBRANCH  21  37
ENDBRANCH  18  21
ENDBRANCH  17  18
ENDBRANCH   1  17
BRANCH   1  44
ATOM     44  C   UNL     1       9.156  -1.806  24.731  0.00  0.00    +0.140 C 
BRANCH  44  45
ATOM     45  C   UNL     1       9.215  -0.355  24.299  0.00  0.00    -0.032 A 
ATOM     46  C   UNL     1       8.188   0.301  23.609  0.00  0.00    +0.005 A 
ATOM     47  C   UNL     1       8.313   1.659  23.253  0.00  0.00    +0.010 A 
ATOM     48  C   UNL     1       9.475   2.389  23.551  0.00  0.00    +0.000 A 
ATOM     49  C   UNL     1      10.535   1.686  24.145  0.00  0.00    +0.010 A 
ATOM     50  C   UNL     1      10.404   0.350  24.522  0.00  0.00    +0.005 A 
BRANCH  48  51
ATOM     51  C   UNL     1       9.553   3.863  23.434  0.00  0.00    +0.071 A 
ATOM     52  N   UNL     1       8.367   4.483  23.206  0.00  0.00    -0.255 NA
ATOM     53  C   UNL     1       8.294   5.808  23.464  0.00  0.00    +0.111 A 
ATOM     54  C   UNL     1       9.351   6.565  23.934  0.00  0.00    +0.020 A 
ATOM     55  C   UNL     1      10.583   5.944  24.078  0.00  0.00    +0.004 A 
ATOM     56  C   UNL     1      10.694   4.584  23.801  0.00  0.00    +0.028 A 
ENDBRANCH  48  51
ENDBRANCH  44  45
ENDBRANCH   1  44
TORSDOF 19
ENDMDL
MODEL 5
REMARK VINA RESULT:      -6.2      2.317      8.927
REMARK  Name = 
REMARK  27 active torsions:
REMARK  status: ('A' for Active; 'I' for Inactive)
REMARK    1  A    between atoms: C_1  and  C_2
REMARK    2  A    between atoms: C_2  and  C_3
REMARK    3  A    between atoms: C_2  and  C_4
REMARK    4  A    between atoms: C_2  and  C_5
REMARK    5  A    between atoms: C_5  and  C_7
REMARK    6  A    between atoms: C_5  and  N_50
REMARK    7  A    between atoms: N_9  and  C_10
REMARK    8  A    between atoms: C_10  and  C_12
REMARK    9  A    between atoms: C_10  and  C_19
REMARK   10  A    between atoms: C_12  and  C_13
REMARK   11  A    between atoms: C_19  and  C_21
REMARK   12  A    between atoms: C_19  and  O_49
REMARK   13  A    between atoms: C_21  and  N_22
REMARK   14  A    between atoms: N_22  and  C_23
REMARK   15  A    between atoms: N_22  and  N_36
REMARK   16  A    between atoms: C_23  and  C_24
REMARK   17  A    between atoms: C_27  and  C_30
REMARK   18  A    between atoms: C_37  and  C_39
REMARK   19  A    between atoms: C_39  and  C_40
REMARK   20  A    between atoms: C_39  and  N_44
REMARK   21  A    between atoms: C_40  and  C_41
REMARK   22  A    between atoms: C_40  and  C_42
REMARK   23  A    between atoms: C_40  and  C_43
REMARK   24  A    between atoms: C_45  and  O_47
REMARK   25  A    between atoms: O_47  and  C_48
REMARK   26  A    between atoms: C_51  and  O_53
REMARK   27  A    between atoms: O_53  and  C_54
REMARK                            x       y       z     vdW  Elec       q    Type
REMARK                         _______ _______ _______ _____ _____    ______ ____
ROOT
ATOM      1  N   UNL     1       6.781  -2.879  26.429  0.00  0.00    -0.220 NA
ENDROOT
BRANCH   1   2
ATOM      2  N   UNL     1       6.218  -1.694  27.067  0.00  0.00    -0.246 N 
ATOM      3  H   UNL     1       6.327  -1.602  28.080  0.00  0.00    +0.169 HD
ATOM      4  C   UNL     1       5.174  -0.974  26.456  0.00  0.00    +0.248 C 
ATOM      5  O   UNL     1       4.694  -1.279  25.364  0.00  0.00    -0.272 OA
BRANCH   4   6
ATOM      6  C   UNL     1       4.589   0.208  27.318  0.00  0.00    +0.169 C 
BRANCH   6   7
ATOM      7  C   UNL     1       3.552  -0.208  28.433  0.00  0.00    -0.011 C 
ATOM      8  C   UNL     1       2.559  -1.240  27.870  0.00  0.00    +0.013 C 
ATOM      9  C   UNL     1       2.723   1.025  28.881  0.00  0.00    +0.013 C 
ATOM     10  C   UNL     1       4.202  -0.791  29.706  0.00  0.00    +0.013 C 
ENDBRANCH   6   7
BRANCH   6  11
ATOM     11  N   UNL     1       5.703   0.937  27.920  0.00  0.00    -0.269 N 
ATOM     12  H   UNL     1       6.407   0.444  28.453  0.00  0.00    +0.153 HD
ATOM     13  C   UNL     1       5.929   2.261  27.726  0.00  0.00    +0.401 C 
ATOM     14  O   UNL     1       5.260   2.983  27.006  0.00  0.00    -0.226 OA
BRANCH  13  15
ATOM     15  O   UNL     1       6.993   2.638  28.474  0.00  0.00    -0.454 OA
ATOM     16  C   UNL     1       7.166   1.901  29.685  0.00  0.00    +0.282 C 
ENDBRANCH  13  15
ENDBRANCH   6  11
ENDBRANCH   4   6
ENDBRANCH   1   2
BRANCH   1  17
ATOM     17  C   UNL     1       8.193  -2.724  26.025  0.00  0.00    +0.139 C 
BRANCH  17  18
ATOM     18  C   UNL     1       8.625  -2.442  24.521  0.00  0.00    +0.151 C 
BRANCH  18  19
ATOM     19  O   UNL     1       9.831  -1.642  24.597  0.00  0.00    -0.389 OA
ATOM     20  H   UNL     1      10.324  -1.938  25.381  0.00  0.00    +0.210 HD
ENDBRANCH  18  19
BRANCH  18  21
ATOM     21  C   UNL     1       7.608  -1.646  23.633  0.00  0.00    +0.107 C 
BRANCH  21  23
ATOM     22  C   UNL     1       8.147   0.759  24.451  0.00  0.00    +0.234 C 
ATOM     23  N   UNL     1       7.905  -0.167  23.449  0.00  0.00    -0.308 N 
ATOM     24  H   UNL     1       8.045   0.121  22.492  0.00  0.00    +0.149 HD
ATOM     25  O   UNL     1       7.851   0.511  25.623  0.00  0.00    -0.274 OA
BRANCH  22  26
ATOM     26  C   UNL     1       8.759   2.185  24.037  0.00  0.00    +0.167 C 
BRANCH  26  28
ATOM     27  C   UNL     1      10.863   3.519  23.462  0.00  0.00    +0.013 C 
ATOM     28  C   UNL     1      10.204   2.125  23.408  0.00  0.00    -0.011 C 
ATOM     29  C   UNL     1      11.187   1.184  24.161  0.00  0.00    +0.013 C 
ATOM     30  C   UNL     1      10.130   1.610  21.962  0.00  0.00    +0.013 C 
ENDBRANCH  26  28
BRANCH  26  31
ATOM     31  N   UNL     1       8.686   3.123  25.165  0.00  0.00    -0.269 N 
ATOM     32  H   UNL     1       9.215   2.962  26.007  0.00  0.00    +0.153 HD
ATOM     33  C   UNL     1       7.901   4.244  25.197  0.00  0.00    +0.401 C 
ATOM     34  O   UNL     1       7.112   4.586  24.346  0.00  0.00    -0.226 OA
BRANCH  33  35
ATOM     35  O   UNL     1       8.177   4.925  26.340  0.00  0.00    -0.454 OA
ATOM     36  C   UNL     1       8.873   6.157  26.157  0.00  0.00    +0.282 C 
ENDBRANCH  33  35
ENDBRANCH  26  31
ENDBRANCH  22  26
ENDBRANCH  21  23
BRANCH  21  37
ATOM     37  C   UNL     1       7.342  -2.342  22.279  0.00  0.00    +0.060 C 
BRANCH  37  38
ATOM     38  C   UNL     1       6.563  -3.614  22.460  0.00  0.00    -0.046 A 
ATOM     39  C   UNL     1       5.242  -3.562  22.928  0.00  0.00    +0.004 A 
ATOM     40  C   UNL     1       4.463  -4.712  22.940  0.00  0.00    +0.000 A 
ATOM     41  C   UNL     1       4.996  -5.919  22.485  0.00  0.00    +0.000 A 
ATOM     42  C   UNL     1       6.324  -5.983  22.060  0.00  0.00    +0.000 A 
ATOM     43  C   UNL     1       7.111  -4.839  22.065  0.00  0.00    +0.004 A 
ENDBRANCH  37  38
ENDBRANCH  21  37
ENDBRANCH  18  21
ENDBRANCH  17  18
ENDBRANCH   1  17
BRANCH   1  44
ATOM     44  C   UNL     1       6.440  -4.150  27.100  0.00  0.00    +0.140 C 
BRANCH  44  45
ATOM     45  C   UNL     1       5.225  -4.933  26.646  0.00  0.00    -0.032 A 
ATOM     46  C   UNL     1       3.917  -4.435  26.666  0.00  0.00    +0.005 A 
ATOM     47  C   UNL     1       2.839  -5.222  26.213  0.00  0.00    +0.010 A 
ATOM     48  C   UNL     1       3.035  -6.535  25.754  0.00  0.00    +0.000 A 
ATOM     49  C   UNL     1       4.335  -7.054  25.843  0.00  0.00    +0.010 A 
ATOM     50  C   UNL     1       5.408  -6.269  26.266  0.00  0.00    +0.005 A 
BRANCH  48  51
ATOM     51  C   UNL     1       1.992  -7.301  25.035  0.00  0.00    +0.071 A 
ATOM     52  N   UNL     1       1.683  -6.828  23.800  0.00  0.00    -0.255 NA
ATOM     53  C   UNL     1       1.044  -7.664  22.951  0.00  0.00    +0.111 A 
ATOM     54  C   UNL     1       0.683  -8.961  23.267  0.00  0.00    +0.020 A 
ATOM     55  C   UNL     1       0.921  -9.407  24.559  0.00  0.00    +0.004 A 
ATOM     56  C   UNL     1       1.559  -8.559  25.463  0.00  0.00    +0.028 A 
ENDBRANCH  48  51
ENDBRANCH  44  45
ENDBRANCH   1  44
TORSDOF 19
ENDMDL
MODEL 6
REMARK VINA RESULT:      -6.1      2.675      7.846
REMARK  Name = 
REMARK  27 active torsions:
REMARK  status: ('A' for Active; 'I' for Inactive)
REMARK    1  A    between atoms: C_1  and  C_2
REMARK    2  A    between atoms: C_2  and  C_3
REMARK    3  A    between atoms: C_2  and  C_4
REMARK    4  A    between atoms: C_2  and  C_5
REMARK    5  A    between atoms: C_5  and  C_7
REMARK    6  A    between atoms: C_5  and  N_50
REMARK    7  A    between atoms: N_9  and  C_10
REMARK    8  A    between atoms: C_10  and  C_12
REMARK    9  A    between atoms: C_10  and  C_19
REMARK   10  A    between atoms: C_12  and  C_13
REMARK   11  A    between atoms: C_19  and  C_21
REMARK   12  A    between atoms: C_19  and  O_49
REMARK   13  A    between atoms: C_21  and  N_22
REMARK   14  A    between atoms: N_22  and  C_23
REMARK   15  A    between atoms: N_22  and  N_36
REMARK   16  A    between atoms: C_23  and  C_24
REMARK   17  A    between atoms: C_27  and  C_30
REMARK   18  A    between atoms: C_37  and  C_39
REMARK   19  A    between atoms: C_39  and  C_40
REMARK   20  A    between atoms: C_39  and  N_44
REMARK   21  A    between atoms: C_40  and  C_41
REMARK   22  A    between atoms: C_40  and  C_42
REMARK   23  A    between atoms: C_40  and  C_43
REMARK   24  A    between atoms: C_45  and  O_47
REMARK   25  A    between atoms: O_47  and  C_48
REMARK   26  A    between atoms: C_51  and  O_53
REMARK   27  A    between atoms: O_53  and  C_54
REMARK                            x       y       z     vdW  Elec       q    Type
REMARK                         _______ _______ _______ _____ _____    ______ ____
ROOT
ATOM      1  N   UNL     1       9.474  -0.836  23.970  0.00  0.00    -0.220 NA
ENDROOT
BRANCH   1   2
ATOM      2  N   UNL     1       8.947   0.486  23.651  0.00  0.00    -0.246 N 
ATOM      3  H   UNL     1       8.152   0.540  23.011  0.00  0.00    +0.169 HD
ATOM      4  C   UNL     1       9.749   1.635  23.790  0.00  0.00    +0.248 C 
ATOM      5  O   UNL     1      10.911   1.600  24.197  0.00  0.00    -0.272 OA
BRANCH   4   6
ATOM      6  C   UNL     1       9.085   2.974  23.295  0.00  0.00    +0.169 C 
BRANCH   6   7
ATOM      7  C   UNL     1       7.623   2.839  22.718  0.00  0.00    -0.011 C 
ATOM      8  C   UNL     1       7.097   4.220  22.286  0.00  0.00    +0.013 C 
ATOM      9  C   UNL     1       6.660   2.306  23.813  0.00  0.00    +0.013 C 
ATOM     10  C   UNL     1       7.509   1.871  21.519  0.00  0.00    +0.013 C 
ENDBRANCH   6   7
BRANCH   6  11
ATOM     11  N   UNL     1       9.098   3.933  24.399  0.00  0.00    -0.269 N 
ATOM     12  H   UNL     1       8.607   3.728  25.258  0.00  0.00    +0.153 HD
ATOM     13  C   UNL     1       9.831   5.075  24.395  0.00  0.00    +0.401 C 
ATOM     14  O   UNL     1      10.585   5.415  23.499  0.00  0.00    -0.226 OA
BRANCH  13  15
ATOM     15  O   UNL     1       9.569   5.767  25.528  0.00  0.00    -0.454 OA
ATOM     16  C   UNL     1      10.129   7.081  25.571  0.00  0.00    +0.282 C 
ENDBRANCH  13  15
ENDBRANCH   6  11
ENDBRANCH   4   6
ENDBRANCH   1   2
BRANCH   1  17
ATOM     17  C   UNL     1       9.158  -1.289  25.340  0.00  0.00    +0.139 C 
BRANCH  17  18
ATOM     18  C   UNL     1       8.491  -0.333  26.422  0.00  0.00    +0.151 C 
BRANCH  18  19
ATOM     19  O   UNL     1       9.350  -0.391  27.587  0.00  0.00    -0.389 OA
ATOM     20  H   UNL     1       8.795  -0.211  28.365  0.00  0.00    +0.210 HD
ENDBRANCH  18  19
BRANCH  18  21
ATOM     21  C   UNL     1       7.048  -0.712  26.904  0.00  0.00    +0.107 C 
BRANCH  21  23
ATOM     22  C   UNL     1       6.367   1.353  28.324  0.00  0.00    +0.234 C 
ATOM     23  N   UNL     1       6.152   0.452  27.293  0.00  0.00    -0.308 N 
ATOM     24  H   UNL     1       5.392   0.634  26.654  0.00  0.00    +0.149 HD
ATOM     25  O   UNL     1       7.181   1.106  29.217  0.00  0.00    -0.274 OA
BRANCH  22  26
ATOM     26  C   UNL     1       5.481   2.692  28.360  0.00  0.00    +0.167 C 
BRANCH  26  28
ATOM     27  C   UNL     1       3.283   3.777  29.089  0.00  0.00    +0.013 C 
ATOM     28  C   UNL     1       3.945   2.460  28.633  0.00  0.00    -0.011 C 
ATOM     29  C   UNL     1       3.136   2.014  27.381  0.00  0.00    +0.013 C 
ATOM     30  C   UNL     1       3.756   1.358  29.688  0.00  0.00    +0.013 C 
ENDBRANCH  26  28
BRANCH  26  31
ATOM     31  N   UNL     1       5.711   3.494  27.152  0.00  0.00    -0.269 N 
ATOM     32  H   UNL     1       5.185   3.325  26.310  0.00  0.00    +0.153 HD
ATOM     33  C   UNL     1       6.647   4.487  27.042  0.00  0.00    +0.401 C 
ATOM     34  O   UNL     1       7.455   4.801  27.886  0.00  0.00    -0.226 OA
BRANCH  33  35
ATOM     35  O   UNL     1       6.496   5.083  25.830  0.00  0.00    -0.454 OA
ATOM     36  C   UNL     1       5.173   5.528  25.534  0.00  0.00    +0.282 C 
ENDBRANCH  33  35
ENDBRANCH  26  31
ENDBRANCH  22  26
ENDBRANCH  21  23
BRANCH  21  37
ATOM     37  C   UNL     1       6.336  -1.670  25.923  0.00  0.00    +0.060 C 
BRANCH  37  38
ATOM     38  C   UNL     1       6.093  -3.015  26.551  0.00  0.00    -0.046 A 
ATOM     39  C   UNL     1       4.780  -3.477  26.718  0.00  0.00    +0.004 A 
ATOM     40  C   UNL     1       4.551  -4.781  27.141  0.00  0.00    +0.000 A 
ATOM     41  C   UNL     1       5.630  -5.629  27.396  0.00  0.00    +0.000 A 
ATOM     42  C   UNL     1       6.937  -5.158  27.273  0.00  0.00    +0.000 A 
ATOM     43  C   UNL     1       7.169  -3.849  26.869  0.00  0.00    +0.004 A 
ENDBRANCH  37  38
ENDBRANCH  21  37
ENDBRANCH  18  21
ENDBRANCH  17  18
ENDBRANCH   1  17
BRANCH   1  44
ATOM     44  C   UNL     1       9.285  -1.839  22.903  0.00  0.00    +0.140 C 
BRANCH  44  45
ATOM     45  C   UNL     1       8.131  -2.818  22.992  0.00  0.00    -0.032 A 
ATOM     46  C   UNL     1       8.262  -4.151  23.396  0.00  0.00    +0.005 A 
ATOM     47  C   UNL     1       7.136  -4.996  23.467  0.00  0.00    +0.010 A 
ATOM     48  C   UNL     1       5.856  -4.540  23.111  0.00  0.00    +0.000 A 
ATOM     49  C   UNL     1       5.762  -3.235  22.606  0.00  0.00    +0.010 A 
ATOM     50  C   UNL     1       6.870  -2.388  22.560  0.00  0.00    +0.005 A 
BRANCH  48  51
ATOM     51  C   UNL     1       4.619  -5.296  23.411  0.00  0.00    +0.071 A 
ATOM     52  N   UNL     1       4.816  -6.562  23.861  0.00  0.00    -0.255 NA
ATOM     53  C   UNL     1       3.791  -7.165  24.504  0.00  0.00    +0.111 A 
ATOM     54  C   UNL     1       2.559  -6.575  24.720  0.00  0.00    +0.020 A 
ATOM     55  C   UNL     1       2.335  -5.317  24.178  0.00  0.00    +0.004 A 
ATOM     56  C   UNL     1       3.367  -4.680  23.494  0.00  0.00    +0.028 A 
ENDBRANCH  48  51
ENDBRANCH  44  45
ENDBRANCH   1  44
TORSDOF 19
ENDMDL
MODEL 7
REMARK VINA RESULT:      -6.1      2.560      9.088
REMARK  Name = 
REMARK  27 active torsions:
REMARK  status: ('A' for Active; 'I' for Inactive)
REMARK    1  A    between atoms: C_1  and  C_2
REMARK    2  A    between atoms: C_2  and  C_3
REMARK    3  A    between atoms: C_2  and  C_4
REMARK    4  A    between atoms: C_2  and  C_5
REMARK    5  A    between atoms: C_5  and  C_7
REMARK    6  A    between atoms: C_5  and  N_50
REMARK    7  A    between atoms: N_9  and  C_10
REMARK    8  A    between atoms: C_10  and  C_12
REMARK    9  A    between atoms: C_10  and  C_19
REMARK   10  A    between atoms: C_12  and  C_13
REMARK   11  A    between atoms: C_19  and  C_21
REMARK   12  A    between atoms: C_19  and  O_49
REMARK   13  A    between atoms: C_21  and  N_22
REMARK   14  A    between atoms: N_22  and  C_23
REMARK   15  A    between atoms: N_22  and  N_36
REMARK   16  A    between atoms: C_23  and  C_24
REMARK   17  A    between atoms: C_27  and  C_30
REMARK   18  A    between atoms: C_37  and  C_39
REMARK   19  A    between atoms: C_39  and  C_40
REMARK   20  A    between atoms: C_39  and  N_44
REMARK   21  A    between atoms: C_40  and  C_41
REMARK   22  A    between atoms: C_40  and  C_42
REMARK   23  A    between atoms: C_40  and  C_43
REMARK   24  A    between atoms: C_45  and  O_47
REMARK   25  A    between atoms: O_47  and  C_48
REMARK   26  A    between atoms: C_51  and  O_53
REMARK   27  A    between atoms: O_53  and  C_54
REMARK                            x       y       z     vdW  Elec       q    Type
REMARK                         _______ _______ _______ _____ _____    ______ ____
ROOT
ATOM      1  N   UNL     1       7.948  -2.946  26.286  0.00  0.00    -0.220 NA
ENDROOT
BRANCH   1   2
ATOM      2  N   UNL     1       7.731  -3.029  24.846  0.00  0.00    -0.246 N 
ATOM      3  H   UNL     1       6.876  -2.613  24.469  0.00  0.00    +0.169 HD
ATOM      4  C   UNL     1       8.365  -4.023  24.078  0.00  0.00    +0.248 C 
ATOM      5  O   UNL     1       9.138  -4.854  24.556  0.00  0.00    -0.272 OA
BRANCH   4   6
ATOM      6  C   UNL     1       7.941  -4.063  22.561  0.00  0.00    +0.169 C 
BRANCH   6   7
ATOM      7  C   UNL     1       6.535  -4.712  22.261  0.00  0.00    -0.011 C 
ATOM      8  C   UNL     1       5.424  -3.657  22.416  0.00  0.00    +0.013 C 
ATOM      9  C   UNL     1       6.236  -5.842  23.283  0.00  0.00    +0.013 C 
ATOM     10  C   UNL     1       6.423  -5.343  20.856  0.00  0.00    +0.013 C 
ENDBRANCH   6   7
BRANCH   6  11
ATOM     11  N   UNL     1       7.984  -2.700  22.033  0.00  0.00    -0.269 N 
ATOM     12  H   UNL     1       7.149  -2.274  21.653  0.00  0.00    +0.153 HD
ATOM     13  C   UNL     1       9.075  -1.897  22.110  0.00  0.00    +0.401 C 
ATOM     14  O   UNL     1      10.124  -2.197  22.654  0.00  0.00    -0.226 OA
BRANCH  13  15
ATOM     15  O   UNL     1       8.808  -0.733  21.471  0.00  0.00    -0.454 OA
ATOM     16  C   UNL     1       9.707   0.335  21.771  0.00  0.00    +0.282 C 
ENDBRANCH  13  15
ENDBRANCH   6  11
ENDBRANCH   4   6
ENDBRANCH   1   2
BRANCH   1  17
ATOM     17  C   UNL     1       8.435  -1.627  26.740  0.00  0.00    +0.139 C 
BRANCH  17  18
ATOM     18  C   UNL     1       8.595  -0.390  25.753  0.00  0.00    +0.151 C 
BRANCH  18  19
ATOM     19  O   UNL     1       9.930   0.128  25.979  0.00  0.00    -0.389 OA
ATOM     20  H   UNL     1      10.011   0.949  25.464  0.00  0.00    +0.210 HD
ENDBRANCH  18  19
BRANCH  18  21
ATOM     21  C   UNL     1       7.604   0.806  25.956  0.00  0.00    +0.107 C 
BRANCH  21  23
ATOM     22  C   UNL     1       7.802   3.306  25.280  0.00  0.00    +0.234 C 
ATOM     23  N   UNL     1       7.744   1.957  24.972  0.00  0.00    -0.308 N 
ATOM     24  H   UNL     1       7.922   1.679  24.019  0.00  0.00    +0.149 HD
ATOM     25  O   UNL     1       7.449   3.716  26.388  0.00  0.00    -0.274 OA
BRANCH  22  26
ATOM     26  C   UNL     1       8.278   4.327  24.135  0.00  0.00    +0.167 C 
BRANCH  26  28
ATOM     27  C   UNL     1       7.480   3.333  21.918  0.00  0.00    +0.013 C 
ATOM     28  C   UNL     1       7.273   4.480  22.929  0.00  0.00    -0.011 C 
ATOM     29  C   UNL     1       5.773   4.394  23.335  0.00  0.00    +0.013 C 
ATOM     30  C   UNL     1       7.462   5.847  22.253  0.00  0.00    +0.013 C 
ENDBRANCH  26  28
BRANCH  26  31
ATOM     31  N   UNL     1       9.636   3.997  23.683  0.00  0.00    -0.269 N 
ATOM     32  H   UNL     1       9.851   3.085  23.314  0.00  0.00    +0.153 HD
ATOM     33  C   UNL     1      10.706   4.848  23.746  0.00  0.00    +0.401 C 
ATOM     34  O   UNL     1      10.710   5.954  24.237  0.00  0.00    -0.226 OA
BRANCH  33  35
ATOM     35  O   UNL     1      11.763   4.250  23.137  0.00  0.00    -0.454 OA
ATOM     36  C   UNL     1      12.912   5.078  22.963  0.00  0.00    +0.282 C 
ENDBRANCH  33  35
ENDBRANCH  26  31
ENDBRANCH  22  26
ENDBRANCH  21  23
BRANCH  21  37
ATOM     37  C   UNL     1       6.136   0.339  26.074  0.00  0.00    +0.060 C 
BRANCH  37  38
ATOM     38  C   UNL     1       5.624   0.487  27.479  0.00  0.00    -0.046 A 
ATOM     39  C   UNL     1       4.415  -0.118  27.847  0.00  0.00    +0.004 A 
ATOM     40  C   UNL     1       4.019  -0.127  29.179  0.00  0.00    +0.000 A 
ATOM     41  C   UNL     1       4.828   0.466  30.150  0.00  0.00    +0.000 A 
ATOM     42  C   UNL     1       6.011   1.107  29.781  0.00  0.00    +0.000 A 
ATOM     43  C   UNL     1       6.399   1.135  28.447  0.00  0.00    +0.004 A 
ENDBRANCH  37  38
ENDBRANCH  21  37
ENDBRANCH  18  21
ENDBRANCH  17  18
ENDBRANCH   1  17
BRANCH   1  44
ATOM     44  C   UNL     1       6.871  -3.547  27.099  0.00  0.00    +0.140 C 
BRANCH  44  45
ATOM     45  C   UNL     1       5.595  -4.009  26.424  0.00  0.00    -0.032 A 
ATOM     46  C   UNL     1       4.657  -3.148  25.844  0.00  0.00    +0.005 A 
ATOM     47  C   UNL     1       3.500  -3.657  25.222  0.00  0.00    +0.010 A 
ATOM     48  C   UNL     1       3.234  -5.036  25.188  0.00  0.00    +0.000 A 
ATOM     49  C   UNL     1       4.130  -5.874  25.869  0.00  0.00    +0.010 A 
ATOM     50  C   UNL     1       5.290  -5.376  26.462  0.00  0.00    +0.005 A 
BRANCH  48  51
ATOM     51  C   UNL     1       2.183  -5.633  24.334  0.00  0.00    +0.071 A 
ATOM     52  N   UNL     1       1.204  -4.776  23.945  0.00  0.00    -0.255 NA
ATOM     53  C   UNL     1       0.444  -5.132  22.886  0.00  0.00    +0.111 A 
ATOM     54  C   UNL     1       0.597  -6.314  22.186  0.00  0.00    +0.020 A 
ATOM     55  C   UNL     1       1.538  -7.226  22.644  0.00  0.00    +0.004 A 
ATOM     56  C   UNL     1       2.322  -6.894  23.746  0.00  0.00    +0.028 A 
ENDBRANCH  48  51
ENDBRANCH  44  45
ENDBRANCH   1  44
TORSDOF 19
ENDMDL
MODEL 8
REMARK VINA RESULT:      -5.9      2.660      8.201
REMARK  Name = 
REMARK  27 active torsions:
REMARK  status: ('A' for Active; 'I' for Inactive)
REMARK    1  A    between atoms: C_1  and  C_2
REMARK    2  A    between atoms: C_2  and  C_3
REMARK    3  A    between atoms: C_2  and  C_4
REMARK    4  A    between atoms: C_2  and  C_5
REMARK    5  A    between atoms: C_5  and  C_7
REMARK    6  A    between atoms: C_5  and  N_50
REMARK    7  A    between atoms: N_9  and  C_10
REMARK    8  A    between atoms: C_10  and  C_12
REMARK    9  A    between atoms: C_10  and  C_19
REMARK   10  A    between atoms: C_12  and  C_13
REMARK   11  A    between atoms: C_19  and  C_21
REMARK   12  A    between atoms: C_19  and  O_49
REMARK   13  A    between atoms: C_21  and  N_22
REMARK   14  A    between atoms: N_22  and  C_23
REMARK   15  A    between atoms: N_22  and  N_36
REMARK   16  A    between atoms: C_23  and  C_24
REMARK   17  A    between atoms: C_27  and  C_30
REMARK   18  A    between atoms: C_37  and  C_39
REMARK   19  A    between atoms: C_39  and  C_40
REMARK   20  A    between atoms: C_39  and  N_44
REMARK   21  A    between atoms: C_40  and  C_41
REMARK   22  A    between atoms: C_40  and  C_42
REMARK   23  A    between atoms: C_40  and  C_43
REMARK   24  A    between atoms: C_45  and  O_47
REMARK   25  A    between atoms: O_47  and  C_48
REMARK   26  A    between atoms: C_51  and  O_53
REMARK   27  A    between atoms: O_53  and  C_54
REMARK                            x       y       z     vdW  Elec       q    Type
REMARK                         _______ _______ _______ _____ _____    ______ ____
ROOT
ATOM      1  N   UNL     1       9.692  -1.568  24.562  0.00  0.00    -0.220 NA
ENDROOT
BRANCH   1   2
ATOM      2  N   UNL     1       9.276  -0.385  23.816  0.00  0.00    -0.246 N 
ATOM      3  H   UNL     1       8.599  -0.513  23.060  0.00  0.00    +0.169 HD
ATOM      4  C   UNL     1      10.087   0.764  23.776  0.00  0.00    +0.248 C 
ATOM      5  O   UNL     1      11.164   0.849  24.367  0.00  0.00    -0.272 OA
BRANCH   4   6
ATOM      6  C   UNL     1       9.565   1.914  22.835  0.00  0.00    +0.169 C 
BRANCH   6   7
ATOM      7  C   UNL     1       8.282   1.571  21.983  0.00  0.00    -0.011 C 
ATOM      8  C   UNL     1       8.680   0.763  20.735  0.00  0.00    +0.013 C 
ATOM      9  C   UNL     1       7.604   2.875  21.485  0.00  0.00    +0.013 C 
ATOM     10  C   UNL     1       7.207   0.781  22.760  0.00  0.00    +0.013 C 
ENDBRANCH   6   7
BRANCH   6  11
ATOM     11  N   UNL     1       9.319   3.102  23.651  0.00  0.00    -0.269 N 
ATOM     12  H   UNL     1       8.468   3.183  24.191  0.00  0.00    +0.153 HD
ATOM     13  C   UNL     1      10.225   4.098  23.824  0.00  0.00    +0.401 C 
ATOM     14  O   UNL     1      11.351   4.103  23.357  0.00  0.00    -0.226 OA
BRANCH  13  15
ATOM     15  O   UNL     1       9.663   5.075  24.574  0.00  0.00    -0.454 OA
ATOM     16  C   UNL     1      10.280   6.357  24.447  0.00  0.00    +0.282 C 
ENDBRANCH  13  15
ENDBRANCH   6  11
ENDBRANCH   4   6
ENDBRANCH   1   2
BRANCH   1  17
ATOM     17  C   UNL     1       9.113  -1.652  25.918  0.00  0.00    +0.139 C 
BRANCH  17  18
ATOM     18  C   UNL     1       8.486  -0.392  26.658  0.00  0.00    +0.151 C 
BRANCH  18  19
ATOM     19  O   UNL     1       9.053  -0.392  27.992  0.00  0.00    -0.389 OA
ATOM     20  H   UNL     1       8.376  -0.037  28.593  0.00  0.00    +0.210 HD
ENDBRANCH  18  19
BRANCH  18  21
ATOM     21  C   UNL     1       6.928  -0.375  26.827  0.00  0.00    +0.107 C 
BRANCH  21  23
ATOM     22  C   UNL     1       6.627   2.174  26.432  0.00  0.00    +0.234 C 
ATOM     23  N   UNL     1       6.303   0.988  27.071  0.00  0.00    -0.308 N 
ATOM     24  H   UNL     1       5.500   0.982  27.683  0.00  0.00    +0.149 HD
ATOM     25  O   UNL     1       7.677   2.279  25.794  0.00  0.00    -0.274 OA
BRANCH  22  26
ATOM     26  C   UNL     1       5.633   3.424  26.599  0.00  0.00    +0.167 C 
BRANCH  26  28
ATOM     27  C   UNL     1       5.711   4.731  24.403  0.00  0.00    +0.013 C 
ATOM     28  C   UNL     1       4.842   3.818  25.292  0.00  0.00    -0.011 C 
ATOM     29  C   UNL     1       4.468   2.610  24.387  0.00  0.00    +0.013 C 
ATOM     30  C   UNL     1       3.521   4.510  25.662  0.00  0.00    +0.013 C 
ENDBRANCH  26  28
BRANCH  26  31
ATOM     31  N   UNL     1       6.342   4.571  27.181  0.00  0.00    -0.269 N 
ATOM     32  H   UNL     1       6.380   5.455  26.700  0.00  0.00    +0.153 HD
ATOM     33  C   UNL     1       7.021   4.546  28.370  0.00  0.00    +0.401 C 
ATOM     34  O   UNL     1       7.193   3.576  29.072  0.00  0.00    -0.226 OA
BRANCH  33  35
ATOM     35  O   UNL     1       7.447   5.806  28.644  0.00  0.00    -0.454 OA
ATOM     36  C   UNL     1       7.788   6.593  27.503  0.00  0.00    +0.282 C 
ENDBRANCH  33  35
ENDBRANCH  26  31
ENDBRANCH  22  26
ENDBRANCH  21  23
BRANCH  21  37
ATOM     37  C   UNL     1       6.207  -1.132  25.690  0.00  0.00    +0.060 C 
BRANCH  37  38
ATOM     38  C   UNL     1       5.503  -2.356  26.206  0.00  0.00    -0.046 A 
ATOM     39  C   UNL     1       6.211  -3.297  26.966  0.00  0.00    +0.004 A 
ATOM     40  C   UNL     1       5.535  -4.342  27.584  0.00  0.00    +0.000 A 
ATOM     41  C   UNL     1       4.150  -4.451  27.450  0.00  0.00    +0.000 A 
ATOM     42  C   UNL     1       3.448  -3.540  26.658  0.00  0.00    +0.000 A 
ATOM     43  C   UNL     1       4.125  -2.507  26.023  0.00  0.00    +0.004 A 
ENDBRANCH  37  38
ENDBRANCH  21  37
ENDBRANCH  18  21
ENDBRANCH  17  18
ENDBRANCH   1  17
BRANCH   1  44
ATOM     44  C   UNL     1       9.673  -2.819  23.776  0.00  0.00    +0.140 C 
BRANCH  44  45
ATOM     45  C   UNL     1       8.423  -3.675  23.764  0.00  0.00    -0.032 A 
ATOM     46  C   UNL     1       8.297  -4.891  24.447  0.00  0.00    +0.005 A 
ATOM     47  C   UNL     1       7.093  -5.623  24.397  0.00  0.00    +0.010 A 
ATOM     48  C   UNL     1       5.995  -5.175  23.644  0.00  0.00    +0.000 A 
ATOM     49  C   UNL     1       6.178  -4.012  22.880  0.00  0.00    +0.010 A 
ATOM     50  C   UNL     1       7.358  -3.272  22.948  0.00  0.00    +0.005 A 
BRANCH  48  51
ATOM     51  C   UNL     1       4.642  -5.763  23.765  0.00  0.00    +0.071 A 
ATOM     52  N   UNL     1       4.568  -6.880  24.534  0.00  0.00    -0.255 NA
ATOM     53  C   UNL     1       3.351  -7.243  24.996  0.00  0.00    +0.111 A 
ATOM     54  C   UNL     1       2.183  -6.553  24.727  0.00  0.00    +0.020 A 
ATOM     55  C   UNL     1       2.253  -5.466  23.867  0.00  0.00    +0.004 A 
ATOM     56  C   UNL     1       3.491  -5.081  23.359  0.00  0.00    +0.028 A 
ENDBRANCH  48  51
ENDBRANCH  44  45
ENDBRANCH   1  44
TORSDOF 19
ENDMDL
MODEL 9
REMARK VINA RESULT:      -5.8      2.487      9.655
REMARK  Name = 
REMARK  27 active torsions:
REMARK  status: ('A' for Active; 'I' for Inactive)
REMARK    1  A    between atoms: C_1  and  C_2
REMARK    2  A    between atoms: C_2  and  C_3
REMARK    3  A    between atoms: C_2  and  C_4
REMARK    4  A    between atoms: C_2  and  C_5
REMARK    5  A    between atoms: C_5  and  C_7
REMARK    6  A    between atoms: C_5  and  N_50
REMARK    7  A    between atoms: N_9  and  C_10
REMARK    8  A    between atoms: C_10  and  C_12
REMARK    9  A    between atoms: C_10  and  C_19
REMARK   10  A    between atoms: C_12  and  C_13
REMARK   11  A    between atoms: C_19  and  C_21
REMARK   12  A    between atoms: C_19  and  O_49
REMARK   13  A    between atoms: C_21  and  N_22
REMARK   14  A    between atoms: N_22  and  C_23
REMARK   15  A    between atoms: N_22  and  N_36
REMARK   16  A    between atoms: C_23  and  C_24
REMARK   17  A    between atoms: C_27  and  C_30
REMARK   18  A    between atoms: C_37  and  C_39
REMARK   19  A    between atoms: C_39  and  C_40
REMARK   20  A    between atoms: C_39  and  N_44
REMARK   21  A    between atoms: C_40  and  C_41
REMARK   22  A    between atoms: C_40  and  C_42
REMARK   23  A    between atoms: C_40  and  C_43
REMARK   24  A    between atoms: C_45  and  O_47
REMARK   25  A    between atoms: O_47  and  C_48
REMARK   26  A    between atoms: C_51  and  O_53
REMARK   27  A    between atoms: O_53  and  C_54
REMARK                            x       y       z     vdW  Elec       q    Type
REMARK                         _______ _______ _______ _____ _____    ______ ____
ROOT
ATOM      1  N   UNL     1       5.409  -2.884  26.866  0.00  0.00    -0.220 NA
ENDROOT
BRANCH   1   2
ATOM      2  N   UNL     1       5.874  -3.258  25.535  0.00  0.00    -0.246 N 
ATOM      3  H   UNL     1       5.317  -2.953  24.733  0.00  0.00    +0.169 HD
ATOM      4  C   UNL     1       6.726  -4.363  25.354  0.00  0.00    +0.248 C 
ATOM      5  O   UNL     1       7.138  -5.057  26.284  0.00  0.00    -0.272 OA
BRANCH   4   6
ATOM      6  C   UNL     1       7.046  -4.717  23.853  0.00  0.00    +0.169 C 
BRANCH   6   7
ATOM      7  C   UNL     1       5.866  -5.377  23.039  0.00  0.00    -0.011 C 
ATOM      8  C   UNL     1       4.854  -4.299  22.610  0.00  0.00    +0.013 C 
ATOM      9  C   UNL     1       5.101  -6.391  23.931  0.00  0.00    +0.013 C 
ATOM     10  C   UNL     1       6.326  -6.150  21.784  0.00  0.00    +0.013 C 
ENDBRANCH   6   7
BRANCH   6  11
ATOM     11  N   UNL     1       7.497  -3.501  23.177  0.00  0.00    -0.269 N 
ATOM     12  H   UNL     1       6.864  -2.981  22.585  0.00  0.00    +0.153 HD
ATOM     13  C   UNL     1       8.718  -2.941  23.372  0.00  0.00    +0.401 C 
ATOM     14  O   UNL     1       9.559  -3.357  24.151  0.00  0.00    -0.226 OA
BRANCH  13  15
ATOM     15  O   UNL     1       8.845  -1.871  22.551  0.00  0.00    -0.454 OA
ATOM     16  C   UNL     1      10.192  -1.517  22.233  0.00  0.00    +0.282 C 
ENDBRANCH  13  15
ENDBRANCH   6  11
ENDBRANCH   4   6
ENDBRANCH   1   2
BRANCH   1  17
ATOM     17  C   UNL     1       6.160  -1.762  27.466  0.00  0.00    +0.139 C 
BRANCH  17  18
ATOM     18  C   UNL     1       7.215  -0.904  26.642  0.00  0.00    +0.151 C 
BRANCH  18  19
ATOM     19  O   UNL     1       8.442  -1.676  26.644  0.00  0.00    -0.389 OA
ATOM     20  H   UNL     1       9.094  -1.183  26.117  0.00  0.00    +0.210 HD
ENDBRANCH  18  19
BRANCH  18  21
ATOM     21  C   UNL     1       7.570   0.513  27.211  0.00  0.00    +0.107 C 
BRANCH  21  23
ATOM     22  C   UNL     1       8.788   1.401  25.096  0.00  0.00    +0.234 C 
ATOM     23  N   UNL     1       7.941   1.566  26.180  0.00  0.00    -0.308 N 
ATOM     24  H   UNL     1       7.421   2.428  26.250  0.00  0.00    +0.149 HD
ATOM     25  O   UNL     1       9.556   0.438  25.038  0.00  0.00    -0.274 OA
BRANCH  22  26
ATOM     26  C   UNL     1       8.789   2.530  23.953  0.00  0.00    +0.167 C 
BRANCH  26  28
ATOM     27  C   UNL     1       8.779   1.636  21.558  0.00  0.00    +0.013 C 
ATOM     28  C   UNL     1       7.899   2.195  22.695  0.00  0.00    -0.011 C 
ATOM     29  C   UNL     1       6.824   1.100  22.949  0.00  0.00    +0.013 C 
ATOM     30  C   UNL     1       7.141   3.450  22.235  0.00  0.00    +0.013 C 
ENDBRANCH  26  28
BRANCH  26  31
ATOM     31  N   UNL     1      10.164   2.882  23.579  0.00  0.00    -0.269 N 
ATOM     32  H   UNL     1      10.808   2.178  23.255  0.00  0.00    +0.153 HD
ATOM     33  C   UNL     1      10.697   4.140  23.661  0.00  0.00    +0.401 C 
ATOM     34  O   UNL     1      10.147   5.119  24.110  0.00  0.00    -0.226 OA
BRANCH  33  35
ATOM     35  O   UNL     1      11.945   4.110  23.125  0.00  0.00    -0.454 OA
ATOM     36  C   UNL     1      12.666   5.339  23.199  0.00  0.00    +0.282 C 
ENDBRANCH  33  35
ENDBRANCH  26  31
ENDBRANCH  22  26
ENDBRANCH  21  23
BRANCH  21  37
ATOM     37  C   UNL     1       6.499   1.035  28.193  0.00  0.00    +0.060 C 
BRANCH  37  38
ATOM     38  C   UNL     1       5.582   2.024  27.529  0.00  0.00    -0.046 A 
ATOM     39  C   UNL     1       4.598   1.572  26.639  0.00  0.00    +0.004 A 
ATOM     40  C   UNL     1       3.644   2.456  26.151  0.00  0.00    +0.000 A 
ATOM     41  C   UNL     1       3.665   3.793  26.549  0.00  0.00    +0.000 A 
ATOM     42  C   UNL     1       4.669   4.256  27.400  0.00  0.00    +0.000 A 
ATOM     43  C   UNL     1       5.636   3.378  27.874  0.00  0.00    +0.004 A 
ENDBRANCH  37  38
ENDBRANCH  21  37
ENDBRANCH  18  21
ENDBRANCH  17  18
ENDBRANCH   1  17
BRANCH   1  44
ATOM     44  C   UNL     1       3.939  -2.817  27.000  0.00  0.00    +0.140 C 
BRANCH  44  45
ATOM     45  C   UNL     1       3.076  -3.827  26.271  0.00  0.00    -0.032 A 
ATOM     46  C   UNL     1       2.276  -3.521  25.164  0.00  0.00    +0.005 A 
ATOM     47  C   UNL     1       1.511  -4.521  24.531  0.00  0.00    +0.010 A 
ATOM     48  C   UNL     1       1.502  -5.844  25.003  0.00  0.00    +0.000 A 
ATOM     49  C   UNL     1       2.222  -6.106  26.178  0.00  0.00    +0.010 A 
ATOM     50  C   UNL     1       3.002  -5.125  26.791  0.00  0.00    +0.005 A 
BRANCH  48  51
ATOM     51  C   UNL     1       0.929  -6.971  24.232  0.00  0.00    +0.071 A 
ATOM     52  N   UNL     1       0.915  -6.796  22.886  0.00  0.00    -0.255 NA
ATOM     53  C   UNL     1       0.773  -7.896  22.113  0.00  0.00    +0.111 A 
ATOM     54  C   UNL     1       0.632  -9.179  22.610  0.00  0.00    +0.020 A 
ATOM     55  C   UNL     1       0.557  -9.339  23.986  0.00  0.00    +0.004 A 
ATOM     56  C   UNL     1       0.680  -8.221  24.807  0.00  0.00    +0.028 A 
ENDBRANCH  48  51
ENDBRANCH  44  45
ENDBRANCH   1  44
TORSDOF 19
ENDMDL
