MODEL 1
REMARK VINA RESULT:      -6.4      0.000      0.000
REMARK  Name = 
REMARK  23 active torsions:
REMARK  status: ('A' for Active; 'I' for Inactive)
REMARK    1  A    between atoms: C_1  and  C_2
REMARK    2  A    between atoms: C_2  and  C_4
REMARK    3  A    between atoms: C_2  and  O_15
REMARK    4  A    between atoms: C_4  and  N_5
REMARK    5  A    between atoms: C_9  and  N_14
REMARK    6  A    between atoms: O_15  and  C_16
REMARK    7  A    between atoms: C_16  and  P_17
REMARK    8  A    between atoms: P_17  and  O_19
REMARK    9  A    between atoms: P_17  and  O_28
REMARK   10  A    between atoms: O_19  and  C_20
REMARK   11  A    between atoms: C_20  and  O_21
REMARK   12  A    between atoms: O_21  and  C_22
REMARK   13  A    between atoms: C_22  and  O_24
REMARK   14  A    between atoms: O_24  and  C_25
REMARK   15  A    between atoms: C_25  and  C_26
REMARK   16  A    between atoms: C_25  and  C_27
REMARK   17  A    between atoms: O_28  and  C_29
REMARK   18  A    between atoms: C_29  and  O_30
REMARK   19  A    between atoms: O_30  and  C_31
REMARK   20  A    between atoms: C_31  and  O_33
REMARK   21  A    between atoms: O_33  and  C_34
REMARK   22  A    between atoms: C_34  and  C_35
REMARK   23  A    between atoms: C_34  and  C_36
REMARK                            x       y       z     vdW  Elec       q    Type
REMARK                         _______ _______ _______ _____ _____    ______ ____
ROOT
ATOM      1  P   UNL     1       9.797  -0.754  23.077  0.00  0.00    +0.364 P 
ATOM      2  O   UNL     1      10.371  -1.920  22.259  0.00  0.00    -0.256 OA
ENDROOT
BRANCH   1   3
ATOM      3  O   UNL     1      10.050   0.333  21.754  0.00  0.00    -0.268 OA
BRANCH   3   4
ATOM      4  C   UNL     1       9.870   1.677  22.150  0.00  0.00    +0.410 C 
BRANCH   4   5
ATOM      5  O   UNL     1      10.696   2.135  23.219  0.00  0.00    -0.406 OA
BRANCH   5   6
ATOM      6  C   UNL     1      10.627   3.472  23.400  0.00  0.00    +0.512 C 
ATOM      7  O   UNL     1       9.621   4.118  23.628  0.00  0.00    -0.203 OA
BRANCH   6   8
ATOM      8  O   UNL     1      11.893   3.963  23.448  0.00  0.00    -0.431 OA
BRANCH   8   9
ATOM      9  C   UNL     1      12.016   5.367  23.147  0.00  0.00    +0.174 C 
ATOM     10  C   UNL     1      13.203   5.518  22.205  0.00  0.00    +0.052 C 
ATOM     11  C   UNL     1      12.248   6.188  24.417  0.00  0.00    +0.052 C 
ENDBRANCH   8   9
ENDBRANCH   6   8
ENDBRANCH   5   6
ENDBRANCH   4   5
ENDBRANCH   3   4
ENDBRANCH   1   3
BRANCH   1  12
ATOM     12  O   UNL     1       8.180  -0.594  22.750  0.00  0.00    -0.268 OA
BRANCH  12  13
ATOM     13  C   UNL     1       7.231  -1.518  23.302  0.00  0.00    +0.410 C 
BRANCH  13  14
ATOM     14  O   UNL     1       6.030  -1.809  22.581  0.00  0.00    -0.406 OA
BRANCH  14  15
ATOM     15  C   UNL     1       5.940  -3.077  22.134  0.00  0.00    +0.512 C 
ATOM     16  O   UNL     1       5.526  -3.418  21.033  0.00  0.00    -0.203 OA
BRANCH  15  17
ATOM     17  O   UNL     1       6.303  -3.928  23.137  0.00  0.00    -0.431 OA
BRANCH  17  18
ATOM     18  C   UNL     1       5.915  -5.299  22.941  0.00  0.00    +0.174 C 
ATOM     19  C   UNL     1       5.531  -5.943  24.270  0.00  0.00    +0.052 C 
ATOM     20  C   UNL     1       7.082  -6.044  22.306  0.00  0.00    +0.052 C 
ENDBRANCH  17  18
ENDBRANCH  15  17
ENDBRANCH  14  15
ENDBRANCH  13  14
ENDBRANCH  12  13
ENDBRANCH   1  12
BRANCH   1  21
ATOM     21  C   UNL     1       9.528  -1.903  24.475  0.00  0.00    +0.287 C 
BRANCH  21  22
ATOM     22  O   UNL     1       9.766  -3.319  24.259  0.00  0.00    -0.363 OA
BRANCH  22  24
ATOM     23  C   UNL     1       9.617  -5.602  25.198  0.00  0.00    +0.040 C 
ATOM     24  C   UNL     1       8.956  -4.239  25.000  0.00  0.00    +0.136 C 
BRANCH  24  25
ATOM     25  C   UNL     1       8.575  -3.657  26.379  0.00  0.00    +0.156 C 
BRANCH  25  26
ATOM     26  N   UNL     1       7.178  -3.759  26.759  0.00  0.00    -0.312 N 
ATOM     27  C   UNL     1       6.609  -4.717  27.567  0.00  0.00    +0.165 A 
ATOM     28  C   UNL     1       5.336  -4.242  27.831  0.00  0.00    +0.147 A 
ATOM     29  C   UNL     1       4.535  -5.022  28.692  0.00  0.00    +0.147 A 
ATOM     30  N   UNL     1       5.038  -6.176  29.174  0.00  0.00    -0.219 NA
ATOM     31  C   UNL     1       6.307  -6.514  28.829  0.00  0.00    +0.225 A 
ATOM     32  N   UNL     1       5.111  -3.040  27.195  0.00  0.00    -0.231 NA
ATOM     33  N   UNL     1       7.168  -5.845  28.029  0.00  0.00    -0.216 NA
ATOM     34  C   UNL     1       6.240  -2.774  26.573  0.00  0.00    +0.201 A 
BRANCH  29  35
ATOM     35  N   UNL     1       3.248  -4.662  29.078  0.00  0.00    -0.341 N 
ATOM     36  H   UNL     1       3.144  -4.657  30.084  0.00  0.00    +0.144 HD
ATOM     37  H   UNL     1       2.528  -5.126  28.536  0.00  0.00    +0.144 HD
ENDBRANCH  29  35
ENDBRANCH  25  26
ENDBRANCH  24  25
ENDBRANCH  22  24
ENDBRANCH  21  22
ENDBRANCH   1  21
TORSDOF 18
ENDMDL
MODEL 2
REMARK VINA RESULT:      -6.4      1.411      2.237
REMARK  Name = 
REMARK  23 active torsions:
REMARK  status: ('A' for Active; 'I' for Inactive)
REMARK    1  A    between atoms: C_1  and  C_2
REMARK    2  A    between atoms: C_2  and  C_4
REMARK    3  A    between atoms: C_2  and  O_15
REMARK    4  A    between atoms: C_4  and  N_5
REMARK    5  A    between atoms: C_9  and  N_14
REMARK    6  A    between atoms: O_15  and  C_16
REMARK    7  A    between atoms: C_16  and  P_17
REMARK    8  A    between atoms: P_17  and  O_19
REMARK    9  A    between atoms: P_17  and  O_28
REMARK   10  A    between atoms: O_19  and  C_20
REMARK   11  A    between atoms: C_20  and  O_21
REMARK   12  A    between atoms: O_21  and  C_22
REMARK   13  A    between atoms: C_22  and  O_24
REMARK   14  A    between atoms: O_24  and  C_25
REMARK   15  A    between atoms: C_25  and  C_26
REMARK   16  A    between atoms: C_25  and  C_27
REMARK   17  A    between atoms: O_28  and  C_29
REMARK   18  A    between atoms: C_29  and  O_30
REMARK   19  A    between atoms: O_30  and  C_31
REMARK   20  A    between atoms: C_31  and  O_33
REMARK   21  A    between atoms: O_33  and  C_34
REMARK   22  A    between atoms: C_34  and  C_35
REMARK   23  A    between atoms: C_34  and  C_36
REMARK                            x       y       z     vdW  Elec       q    Type
REMARK                         _______ _______ _______ _____ _____    ______ ____
ROOT
ATOM      1  P   UNL     1       9.583  -0.918  23.001  0.00  0.00    +0.364 P 
ATOM      2  O   UNL     1      10.670  -1.910  22.563  0.00  0.00    -0.256 OA
ENDROOT
BRANCH   1   3
ATOM      3  O   UNL     1       9.763  -0.029  21.527  0.00  0.00    -0.268 OA
BRANCH   3   4
ATOM      4  C   UNL     1       9.363   1.316  21.685  0.00  0.00    +0.410 C 
BRANCH   4   5
ATOM      5  O   UNL     1      10.361   2.219  22.156  0.00  0.00    -0.406 OA
BRANCH   5   6
ATOM      6  C   UNL     1       9.934   2.985  23.184  0.00  0.00    +0.512 C 
ATOM      7  O   UNL     1       8.801   3.030  23.627  0.00  0.00    -0.203 OA
BRANCH   6   8
ATOM      8  O   UNL     1      11.015   3.579  23.753  0.00  0.00    -0.431 OA
BRANCH   8   9
ATOM      9  C   UNL     1      11.318   4.898  23.259  0.00  0.00    +0.174 C 
ATOM     10  C   UNL     1      12.835   5.008  23.184  0.00  0.00    +0.052 C 
ATOM     11  C   UNL     1      10.762   5.980  24.187  0.00  0.00    +0.052 C 
ENDBRANCH   8   9
ENDBRANCH   6   8
ENDBRANCH   5   6
ENDBRANCH   4   5
ENDBRANCH   3   4
ENDBRANCH   1   3
BRANCH   1  12
ATOM     12  O   UNL     1       8.117  -1.401  22.396  0.00  0.00    -0.268 OA
BRANCH  12  13
ATOM     13  C   UNL     1       7.799  -2.797  22.289  0.00  0.00    +0.410 C 
BRANCH  13  14
ATOM     14  O   UNL     1       6.437  -3.196  22.104  0.00  0.00    -0.406 OA
BRANCH  14  15
ATOM     15  C   UNL     1       6.266  -4.514  21.886  0.00  0.00    +0.512 C 
ATOM     16  O   UNL     1       7.126  -5.288  21.485  0.00  0.00    -0.203 OA
BRANCH  15  17
ATOM     17  O   UNL     1       4.957  -4.834  22.103  0.00  0.00    -0.431 OA
BRANCH  17  18
ATOM     18  C   UNL     1       4.541  -4.791  23.480  0.00  0.00    +0.174 C 
ATOM     19  C   UNL     1       5.238  -5.883  24.284  0.00  0.00    +0.052 C 
ATOM     20  C   UNL     1       3.029  -4.973  23.531  0.00  0.00    +0.052 C 
ENDBRANCH  17  18
ENDBRANCH  15  17
ENDBRANCH  14  15
ENDBRANCH  13  14
ENDBRANCH  12  13
ENDBRANCH   1  12
BRANCH   1  21
ATOM     21  C   UNL     1       9.391  -1.859  24.559  0.00  0.00    +0.287 C 
BRANCH  21  22
ATOM     22  O   UNL     1       9.310  -1.119  25.805  0.00  0.00    -0.363 OA
BRANCH  22  24
ATOM     23  C   UNL     1       7.315   0.008  26.737  0.00  0.00    +0.040 C 
ATOM     24  C   UNL     1       8.121  -1.281  26.587  0.00  0.00    +0.136 C 
BRANCH  24  25
ATOM     25  C   UNL     1       7.212  -2.380  25.993  0.00  0.00    +0.156 C 
BRANCH  25  26
ATOM     26  N   UNL     1       7.109  -3.613  26.753  0.00  0.00    -0.312 N 
ATOM     27  C   UNL     1       5.978  -4.128  27.343  0.00  0.00    +0.165 A 
ATOM     28  C   UNL     1       6.331  -5.414  27.712  0.00  0.00    +0.147 A 
ATOM     29  C   UNL     1       5.322  -6.200  28.309  0.00  0.00    +0.147 A 
ATOM     30  N   UNL     1       4.107  -5.652  28.507  0.00  0.00    -0.219 NA
ATOM     31  C   UNL     1       3.906  -4.374  28.091  0.00  0.00    +0.225 A 
ATOM     32  N   UNL     1       7.640  -5.686  27.381  0.00  0.00    -0.231 NA
ATOM     33  N   UNL     1       4.785  -3.535  27.498  0.00  0.00    -0.216 NA
ATOM     34  C   UNL     1       8.073  -4.590  26.797  0.00  0.00    +0.201 A 
BRANCH  29  35
ATOM     35  N   UNL     1       5.511  -7.521  28.704  0.00  0.00    -0.341 N 
ATOM     36  H   UNL     1       5.894  -7.582  29.638  0.00  0.00    +0.144 HD
ATOM     37  H   UNL     1       5.939  -8.091  27.985  0.00  0.00    +0.144 HD
ENDBRANCH  29  35
ENDBRANCH  25  26
ENDBRANCH  24  25
ENDBRANCH  22  24
ENDBRANCH  21  22
ENDBRANCH   1  21
TORSDOF 18
ENDMDL
MODEL 3
REMARK VINA RESULT:      -6.3      1.749      2.933
REMARK  Name = 
REMARK  23 active torsions:
REMARK  status: ('A' for Active; 'I' for Inactive)
REMARK    1  A    between atoms: C_1  and  C_2
REMARK    2  A    between atoms: C_2  and  C_4
REMARK    3  A    between atoms: C_2  and  O_15
REMARK    4  A    between atoms: C_4  and  N_5
REMARK    5  A    between atoms: C_9  and  N_14
REMARK    6  A    between atoms: O_15  and  C_16
REMARK    7  A    between atoms: C_16  and  P_17
REMARK    8  A    between atoms: P_17  and  O_19
REMARK    9  A    between atoms: P_17  and  O_28
REMARK   10  A    between atoms: O_19  and  C_20
REMARK   11  A    between atoms: C_20  and  O_21
REMARK   12  A    between atoms: O_21  and  C_22
REMARK   13  A    between atoms: C_22  and  O_24
REMARK   14  A    between atoms: O_24  and  C_25
REMARK   15  A    between atoms: C_25  and  C_26
REMARK   16  A    between atoms: C_25  and  C_27
REMARK   17  A    between atoms: O_28  and  C_29
REMARK   18  A    between atoms: C_29  and  O_30
REMARK   19  A    between atoms: O_30  and  C_31
REMARK   20  A    between atoms: C_31  and  O_33
REMARK   21  A    between atoms: O_33  and  C_34
REMARK   22  A    between atoms: C_34  and  C_35
REMARK   23  A    between atoms: C_34  and  C_36
REMARK                            x       y       z     vdW  Elec       q    Type
REMARK                         _______ _______ _______ _____ _____    ______ ____
ROOT
ATOM      1  P   UNL     1       9.663  -0.719  22.875  0.00  0.00    +0.364 P 
ATOM      2  O   UNL     1      10.683  -1.667  22.228  0.00  0.00    -0.256 OA
ENDROOT
BRANCH   1   3
ATOM      3  O   UNL     1       9.800   0.378  21.544  0.00  0.00    -0.268 OA
BRANCH   3   4
ATOM      4  C   UNL     1       9.793   1.722  21.981  0.00  0.00    +0.410 C 
BRANCH   4   5
ATOM      5  O   UNL     1      10.707   2.050  23.025  0.00  0.00    -0.406 OA
BRANCH   5   6
ATOM      6  C   UNL     1      10.606   3.336  23.426  0.00  0.00    +0.512 C 
ATOM      7  O   UNL     1       9.597   3.890  23.823  0.00  0.00    -0.203 OA
BRANCH   6   8
ATOM      8  O   UNL     1      11.854   3.869  23.472  0.00  0.00    -0.431 OA
BRANCH   8   9
ATOM      9  C   UNL     1      11.932   5.271  23.147  0.00  0.00    +0.174 C 
ATOM     10  C   UNL     1      13.079   5.436  22.159  0.00  0.00    +0.052 C 
ATOM     11  C   UNL     1      12.193   6.117  24.396  0.00  0.00    +0.052 C 
ENDBRANCH   8   9
ENDBRANCH   6   8
ENDBRANCH   5   6
ENDBRANCH   4   5
ENDBRANCH   3   4
ENDBRANCH   1   3
BRANCH   1  12
ATOM     12  O   UNL     1       8.148  -1.056  22.293  0.00  0.00    -0.268 OA
BRANCH  12  13
ATOM     13  C   UNL     1       6.982  -0.730  23.064  0.00  0.00    +0.410 C 
BRANCH  13  14
ATOM     14  O   UNL     1       6.763   0.625  23.469  0.00  0.00    -0.406 OA
BRANCH  14  15
ATOM     15  C   UNL     1       6.074   0.760  24.619  0.00  0.00    +0.512 C 
ATOM     16  O   UNL     1       4.946   1.226  24.723  0.00  0.00    -0.203 OA
BRANCH  15  17
ATOM     17  O   UNL     1       6.866   0.373  25.660  0.00  0.00    -0.431 OA
BRANCH  17  18
ATOM     18  C   UNL     1       6.174   0.161  26.904  0.00  0.00    +0.174 C 
ATOM     19  C   UNL     1       7.021   0.647  28.077  0.00  0.00    +0.052 C 
ATOM     20  C   UNL     1       5.877  -1.327  27.042  0.00  0.00    +0.052 C 
ENDBRANCH  17  18
ENDBRANCH  15  17
ENDBRANCH  14  15
ENDBRANCH  13  14
ENDBRANCH  12  13
ENDBRANCH   1  12
BRANCH   1  21
ATOM     21  C   UNL     1       9.517  -1.879  24.283  0.00  0.00    +0.287 C 
BRANCH  21  22
ATOM     22  O   UNL     1      10.088  -3.207  24.143  0.00  0.00    -0.363 OA
BRANCH  22  24
ATOM     23  C   UNL     1      10.010  -5.197  25.610  0.00  0.00    +0.040 C 
ATOM     24  C   UNL     1       9.294  -4.311  24.591  0.00  0.00    +0.136 C 
BRANCH  24  25
ATOM     25  C   UNL     1       7.957  -3.826  25.194  0.00  0.00    +0.156 C 
BRANCH  25  26
ATOM     26  N   UNL     1       6.903  -4.818  25.309  0.00  0.00    -0.312 N 
ATOM     27  C   UNL     1       6.459  -5.420  26.463  0.00  0.00    +0.165 A 
ATOM     28  C   UNL     1       5.297  -6.075  26.092  0.00  0.00    +0.147 A 
ATOM     29  C   UNL     1       4.597  -6.751  27.114  0.00  0.00    +0.147 A 
ATOM     30  N   UNL     1       5.107  -6.743  28.362  0.00  0.00    -0.219 NA
ATOM     31  C   UNL     1       6.258  -6.054  28.578  0.00  0.00    +0.225 A 
ATOM     32  N   UNL     1       5.036  -5.903  24.750  0.00  0.00    -0.231 NA
ATOM     33  N   UNL     1       7.004  -5.363  27.687  0.00  0.00    -0.216 NA
ATOM     34  C   UNL     1       6.011  -5.133  24.315  0.00  0.00    +0.201 A 
BRANCH  29  35
ATOM     35  N   UNL     1       3.399  -7.426  26.905  0.00  0.00    -0.341 N 
ATOM     36  H   UNL     1       2.611  -6.792  26.872  0.00  0.00    +0.144 HD
ATOM     37  H   UNL     1       3.307  -8.255  27.479  0.00  0.00    +0.144 HD
ENDBRANCH  29  35
ENDBRANCH  25  26
ENDBRANCH  24  25
ENDBRANCH  22  24
ENDBRANCH  21  22
ENDBRANCH   1  21
TORSDOF 18
ENDMDL
MODEL 4
REMARK VINA RESULT:      -6.2      2.263      5.811
REMARK  Name = 
REMARK  23 active torsions:
REMARK  status: ('A' for Active; 'I' for Inactive)
REMARK    1  A    between atoms: C_1  and  C_2
REMARK    2  A    between atoms: C_2  and  C_4
REMARK    3  A    between atoms: C_2  and  O_15
REMARK    4  A    between atoms: C_4  and  N_5
REMARK    5  A    between atoms: C_9  and  N_14
REMARK    6  A    between atoms: O_15  and  C_16
REMARK    7  A    between atoms: C_16  and  P_17
REMARK    8  A    between atoms: P_17  and  O_19
REMARK    9  A    between atoms: P_17  and  O_28
REMARK   10  A    between atoms: O_19  and  C_20
REMARK   11  A    between atoms: C_20  and  O_21
REMARK   12  A    between atoms: O_21  and  C_22
REMARK   13  A    between atoms: C_22  and  O_24
REMARK   14  A    between atoms: O_24  and  C_25
REMARK   15  A    between atoms: C_25  and  C_26
REMARK   16  A    between atoms: C_25  and  C_27
REMARK   17  A    between atoms: O_28  and  C_29
REMARK   18  A    between atoms: C_29  and  O_30
REMARK   19  A    between atoms: O_30  and  C_31
REMARK   20  A    between atoms: C_31  and  O_33
REMARK   21  A    between atoms: O_33  and  C_34
REMARK   22  A    between atoms: C_34  and  C_35
REMARK   23  A    between atoms: C_34  and  C_36
REMARK                            x       y       z     vdW  Elec       q    Type
REMARK                         _______ _______ _______ _____ _____    ______ ____
ROOT
ATOM      1  P   UNL     1       9.224  -1.745  23.511  0.00  0.00    +0.364 P 
ATOM      2  O   UNL     1      10.070  -2.989  23.821  0.00  0.00    -0.256 OA
ENDROOT
BRANCH   1   3
ATOM      3  O   UNL     1      10.167  -0.798  24.610  0.00  0.00    -0.268 OA
BRANCH   3   4
ATOM      4  C   UNL     1       9.346  -0.084  25.511  0.00  0.00    +0.410 C 
BRANCH   4   5
ATOM      5  O   UNL     1       8.858  -0.815  26.634  0.00  0.00    -0.406 OA
BRANCH   5   6
ATOM      6  C   UNL     1       7.847  -0.186  27.272  0.00  0.00    +0.512 C 
ATOM      7  O   UNL     1       7.913   0.373  28.351  0.00  0.00    -0.203 OA
BRANCH   6   8
ATOM      8  O   UNL     1       6.779  -0.136  26.434  0.00  0.00    -0.431 OA
BRANCH   8   9
ATOM      9  C   UNL     1       6.183  -1.411  26.125  0.00  0.00    +0.174 C 
ATOM     10  C   UNL     1       5.574  -1.294  24.735  0.00  0.00    +0.052 C 
ATOM     11  C   UNL     1       5.100  -1.779  27.142  0.00  0.00    +0.052 C 
ENDBRANCH   8   9
ENDBRANCH   6   8
ENDBRANCH   5   6
ENDBRANCH   4   5
ENDBRANCH   3   4
ENDBRANCH   1   3
BRANCH   1  12
ATOM     12  O   UNL     1       9.953  -0.867  22.309  0.00  0.00    -0.268 OA
BRANCH  12  13
ATOM     13  C   UNL     1       9.361   0.353  21.838  0.00  0.00    +0.410 C 
BRANCH  13  14
ATOM     14  O   UNL     1      10.154   1.542  21.777  0.00  0.00    -0.406 OA
BRANCH  14  15
ATOM     15  C   UNL     1      10.085   2.316  22.878  0.00  0.00    +0.512 C 
ATOM     16  O   UNL     1      11.032   2.635  23.586  0.00  0.00    -0.203 OA
BRANCH  15  17
ATOM     17  O   UNL     1       8.778   2.619  23.127  0.00  0.00    -0.431 OA
BRANCH  17  18
ATOM     18  C   UNL     1       8.570   3.733  24.014  0.00  0.00    +0.174 C 
ATOM     19  C   UNL     1       7.800   3.292  25.255  0.00  0.00    +0.052 C 
ATOM     20  C   UNL     1       7.799   4.810  23.262  0.00  0.00    +0.052 C 
ENDBRANCH  17  18
ENDBRANCH  15  17
ENDBRANCH  14  15
ENDBRANCH  13  14
ENDBRANCH  12  13
ENDBRANCH   1  12
BRANCH   1  21
ATOM     21  C   UNL     1       8.227  -2.747  22.348  0.00  0.00    +0.287 C 
BRANCH  21  22
ATOM     22  O   UNL     1       7.954  -4.131  22.690  0.00  0.00    -0.363 OA
BRANCH  22  24
ATOM     23  C   UNL     1       6.880  -6.204  21.876  0.00  0.00    +0.040 C 
ATOM     24  C   UNL     1       6.754  -4.710  22.166  0.00  0.00    +0.136 C 
BRANCH  24  25
ATOM     25  C   UNL     1       5.562  -4.479  23.122  0.00  0.00    +0.156 C 
BRANCH  25  26
ATOM     26  N   UNL     1       5.407  -5.436  24.202  0.00  0.00    -0.312 N 
ATOM     27  C   UNL     1       6.075  -5.441  25.404  0.00  0.00    +0.165 A 
ATOM     28  C   UNL     1       5.403  -6.375  26.174  0.00  0.00    +0.147 A 
ATOM     29  C   UNL     1       5.861  -6.551  27.498  0.00  0.00    +0.147 A 
ATOM     30  N   UNL     1       6.922  -5.833  27.917  0.00  0.00    -0.219 NA
ATOM     31  C   UNL     1       7.480  -4.951  27.047  0.00  0.00    +0.225 A 
ATOM     32  N   UNL     1       4.365  -6.946  25.472  0.00  0.00    -0.231 NA
ATOM     33  N   UNL     1       7.122  -4.688  25.770  0.00  0.00    -0.216 NA
ATOM     34  C   UNL     1       4.387  -6.351  24.298  0.00  0.00    +0.201 A 
BRANCH  29  35
ATOM     35  N   UNL     1       5.270  -7.426  28.404  0.00  0.00    -0.341 N 
ATOM     36  H   UNL     1       5.110  -8.338  27.996  0.00  0.00    +0.144 HD
ATOM     37  H   UNL     1       4.508  -7.005  28.921  0.00  0.00    +0.144 HD
ENDBRANCH  29  35
ENDBRANCH  25  26
ENDBRANCH  24  25
ENDBRANCH  22  24
ENDBRANCH  21  22
ENDBRANCH   1  21
TORSDOF 18
ENDMDL
MODEL 5
REMARK VINA RESULT:      -6.1      4.211      8.208
REMARK  Name = 
REMARK  23 active torsions:
REMARK  status: ('A' for Active; 'I' for Inactive)
REMARK    1  A    between atoms: C_1  and  C_2
REMARK    2  A    between atoms: C_2  and  C_4
REMARK    3  A    between atoms: C_2  and  O_15
REMARK    4  A    between atoms: C_4  and  N_5
REMARK    5  A    between atoms: C_9  and  N_14
REMARK    6  A    between atoms: O_15  and  C_16
REMARK    7  A    between atoms: C_16  and  P_17
REMARK    8  A    between atoms: P_17  and  O_19
REMARK    9  A    between atoms: P_17  and  O_28
REMARK   10  A    between atoms: O_19  and  C_20
REMARK   11  A    between atoms: C_20  and  O_21
REMARK   12  A    between atoms: O_21  and  C_22
REMARK   13  A    between atoms: C_22  and  O_24
REMARK   14  A    between atoms: O_24  and  C_25
REMARK   15  A    between atoms: C_25  and  C_26
REMARK   16  A    between atoms: C_25  and  C_27
REMARK   17  A    between atoms: O_28  and  C_29
REMARK   18  A    between atoms: C_29  and  O_30
REMARK   19  A    between atoms: O_30  and  C_31
REMARK   20  A    between atoms: C_31  and  O_33
REMARK   21  A    between atoms: O_33  and  C_34
REMARK   22  A    between atoms: C_34  and  C_35
REMARK   23  A    between atoms: C_34  and  C_36
REMARK                            x       y       z     vdW  Elec       q    Type
REMARK                         _______ _______ _______ _____ _____    ______ ____
ROOT
ATOM      1  P   UNL     1       5.966  -0.620  26.142  0.00  0.00    +0.364 P 
ATOM      2  O   UNL     1       4.480  -0.609  25.753  0.00  0.00    -0.256 OA
ENDROOT
BRANCH   1   3
ATOM      3  O   UNL     1       5.987  -2.350  26.113  0.00  0.00    -0.268 OA
BRANCH   3   4
ATOM      4  C   UNL     1       7.127  -2.863  26.772  0.00  0.00    +0.410 C 
BRANCH   4   5
ATOM      5  O   UNL     1       6.949  -4.088  27.478  0.00  0.00    -0.406 OA
BRANCH   5   6
ATOM      6  C   UNL     1       7.563  -5.132  26.881  0.00  0.00    +0.512 C 
ATOM      7  O   UNL     1       8.632  -5.103  26.299  0.00  0.00    -0.203 OA
BRANCH   6   8
ATOM      8  O   UNL     1       6.872  -6.263  27.179  0.00  0.00    -0.431 OA
BRANCH   8   9
ATOM      9  C   UNL     1       5.437  -6.122  27.170  0.00  0.00    +0.174 C 
ATOM     10  C   UNL     1       4.909  -6.872  28.386  0.00  0.00    +0.052 C 
ATOM     11  C   UNL     1       4.831  -6.706  25.892  0.00  0.00    +0.052 C 
ENDBRANCH   8   9
ENDBRANCH   6   8
ENDBRANCH   5   6
ENDBRANCH   4   5
ENDBRANCH   3   4
ENDBRANCH   1   3
BRANCH   1  12
ATOM     12  O   UNL     1       6.895  -0.700  24.771  0.00  0.00    -0.268 OA
BRANCH  12  13
ATOM     13  C   UNL     1       6.390  -1.333  23.586  0.00  0.00    +0.410 C 
BRANCH  13  14
ATOM     14  O   UNL     1       7.291  -2.039  22.728  0.00  0.00    -0.406 OA
BRANCH  14  15
ATOM     15  C   UNL     1       7.874  -3.114  23.293  0.00  0.00    +0.512 C 
ATOM     16  O   UNL     1       9.073  -3.247  23.501  0.00  0.00    -0.203 OA
BRANCH  15  17
ATOM     17  O   UNL     1       6.925  -4.068  23.517  0.00  0.00    -0.431 OA
BRANCH  17  18
ATOM     18  C   UNL     1       6.396  -4.690  22.332  0.00  0.00    +0.174 C 
ATOM     19  C   UNL     1       4.942  -5.100  22.546  0.00  0.00    +0.052 C 
ATOM     20  C   UNL     1       7.251  -5.908  22.006  0.00  0.00    +0.052 C 
ENDBRANCH  17  18
ENDBRANCH  15  17
ENDBRANCH  14  15
ENDBRANCH  13  14
ENDBRANCH  12  13
ENDBRANCH   1  12
BRANCH   1  21
ATOM     21  C   UNL     1       5.944   1.210  26.172  0.00  0.00    +0.287 C 
BRANCH  21  22
ATOM     22  O   UNL     1       6.430   1.924  25.005  0.00  0.00    -0.363 OA
BRANCH  22  24
ATOM     23  C   UNL     1       7.229   3.706  26.522  0.00  0.00    +0.040 C 
ATOM     24  C   UNL     1       6.673   3.327  25.151  0.00  0.00    +0.136 C 
BRANCH  24  25
ATOM     25  C   UNL     1       7.635   3.841  24.056  0.00  0.00    +0.156 C 
BRANCH  25  26
ATOM     26  N   UNL     1       8.153   2.846  23.134  0.00  0.00    -0.312 N 
ATOM     27  C   UNL     1       9.101   1.885  23.403  0.00  0.00    +0.165 A 
ATOM     28  C   UNL     1       9.062   1.040  22.307  0.00  0.00    +0.147 A 
ATOM     29  C   UNL     1       9.918  -0.082  22.343  0.00  0.00    +0.147 A 
ATOM     30  N   UNL     1      10.727  -0.244  23.408  0.00  0.00    -0.219 NA
ATOM     31  C   UNL     1      10.654   0.668  24.412  0.00  0.00    +0.225 A 
ATOM     32  N   UNL     1       8.137   1.468  21.380  0.00  0.00    -0.231 NA
ATOM     33  N   UNL     1       9.869   1.767  24.495  0.00  0.00    -0.216 NA
ATOM     34  C   UNL     1       7.601   2.545  21.913  0.00  0.00    +0.201 A 
BRANCH  29  35
ATOM     35  N   UNL     1       9.970  -1.040  21.335  0.00  0.00    -0.341 N 
ATOM     36  H   UNL     1       9.556  -0.703  20.476  0.00  0.00    +0.144 HD
ATOM     37  H   UNL     1       9.702  -1.963  21.653  0.00  0.00    +0.144 HD
ENDBRANCH  29  35
ENDBRANCH  25  26
ENDBRANCH  24  25
ENDBRANCH  22  24
ENDBRANCH  21  22
ENDBRANCH   1  21
TORSDOF 18
ENDMDL
MODEL 6
REMARK VINA RESULT:      -6.1      4.084      8.181
REMARK  Name = 
REMARK  23 active torsions:
REMARK  status: ('A' for Active; 'I' for Inactive)
REMARK    1  A    between atoms: C_1  and  C_2
REMARK    2  A    between atoms: C_2  and  C_4
REMARK    3  A    between atoms: C_2  and  O_15
REMARK    4  A    between atoms: C_4  and  N_5
REMARK    5  A    between atoms: C_9  and  N_14
REMARK    6  A    between atoms: O_15  and  C_16
REMARK    7  A    between atoms: C_16  and  P_17
REMARK    8  A    between atoms: P_17  and  O_19
REMARK    9  A    between atoms: P_17  and  O_28
REMARK   10  A    between atoms: O_19  and  C_20
REMARK   11  A    between atoms: C_20  and  O_21
REMARK   12  A    between atoms: O_21  and  C_22
REMARK   13  A    between atoms: C_22  and  O_24
REMARK   14  A    between atoms: O_24  and  C_25
REMARK   15  A    between atoms: C_25  and  C_26
REMARK   16  A    between atoms: C_25  and  C_27
REMARK   17  A    between atoms: O_28  and  C_29
REMARK   18  A    between atoms: C_29  and  O_30
REMARK   19  A    between atoms: O_30  and  C_31
REMARK   20  A    between atoms: C_31  and  O_33
REMARK   21  A    between atoms: O_33  and  C_34
REMARK   22  A    between atoms: C_34  and  C_35
REMARK   23  A    between atoms: C_34  and  C_36
REMARK                            x       y       z     vdW  Elec       q    Type
REMARK                         _______ _______ _______ _____ _____    ______ ____
ROOT
ATOM      1  P   UNL     1       8.385  -4.184  24.900  0.00  0.00    +0.364 P 
ATOM      2  O   UNL     1       9.792  -3.771  24.442  0.00  0.00    -0.256 OA
ENDROOT
BRANCH   1   3
ATOM      3  O   UNL     1       8.322  -5.413  23.684  0.00  0.00    -0.268 OA
BRANCH   3   4
ATOM      4  C   UNL     1       7.314  -5.144  22.732  0.00  0.00    +0.410 C 
BRANCH   4   5
ATOM      5  O   UNL     1       6.103  -4.584  23.236  0.00  0.00    -0.406 OA
BRANCH   5   6
ATOM      6  C   UNL     1       5.089  -5.475  23.277  0.00  0.00    +0.512 C 
ATOM      7  O   UNL     1       5.167  -6.640  23.622  0.00  0.00    -0.203 OA
BRANCH   6   8
ATOM      8  O   UNL     1       3.929  -4.815  23.026  0.00  0.00    -0.431 OA
BRANCH   8   9
ATOM      9  C   UNL     1       2.846  -5.117  23.929  0.00  0.00    +0.174 C 
ATOM     10  C   UNL     1       1.650  -5.512  23.074  0.00  0.00    +0.052 C 
ATOM     11  C   UNL     1       2.492  -3.906  24.795  0.00  0.00    +0.052 C 
ENDBRANCH   8   9
ENDBRANCH   6   8
ENDBRANCH   5   6
ENDBRANCH   4   5
ENDBRANCH   3   4
ENDBRANCH   1   3
BRANCH   1  12
ATOM     12  O   UNL     1       8.502  -5.428  25.989  0.00  0.00    -0.268 OA
BRANCH  12  13
ATOM     13  C   UNL     1       7.508  -5.596  27.011  0.00  0.00    +0.410 C 
BRANCH  13  14
ATOM     14  O   UNL     1       6.127  -5.408  26.688  0.00  0.00    -0.406 OA
BRANCH  14  15
ATOM     15  C   UNL     1       5.277  -6.171  27.402  0.00  0.00    +0.512 C 
ATOM     16  O   UNL     1       5.536  -7.265  27.887  0.00  0.00    -0.203 OA
BRANCH  15  17
ATOM     17  O   UNL     1       4.053  -5.568  27.426  0.00  0.00    -0.431 OA
BRANCH  17  18
ATOM     18  C   UNL     1       3.498  -5.370  28.739  0.00  0.00    +0.174 C 
ATOM     19  C   UNL     1       2.064  -4.858  28.642  0.00  0.00    +0.052 C 
ATOM     20  C   UNL     1       4.372  -4.370  29.485  0.00  0.00    +0.052 C 
ENDBRANCH  17  18
ENDBRANCH  15  17
ENDBRANCH  14  15
ENDBRANCH  13  14
ENDBRANCH  12  13
ENDBRANCH   1  12
BRANCH   1  21
ATOM     21  C   UNL     1       8.453  -2.885  26.187  0.00  0.00    +0.287 C 
BRANCH  21  22
ATOM     22  O   UNL     1       7.477  -1.811  26.135  0.00  0.00    -0.363 OA
BRANCH  22  24
ATOM     23  C   UNL     1       5.087  -2.017  26.738  0.00  0.00    +0.040 C 
ATOM     24  C   UNL     1       6.165  -2.141  25.664  0.00  0.00    +0.136 C 
BRANCH  24  25
ATOM     25  C   UNL     1       5.775  -1.265  24.452  0.00  0.00    +0.156 C 
BRANCH  25  26
ATOM     26  N   UNL     1       6.739  -0.260  24.044  0.00  0.00    -0.312 N 
ATOM     27  C   UNL     1       7.751  -0.412  23.124  0.00  0.00    +0.165 A 
ATOM     28  C   UNL     1       8.215   0.873  22.899  0.00  0.00    +0.147 A 
ATOM     29  C   UNL     1       9.244   1.016  21.944  0.00  0.00    +0.147 A 
ATOM     30  N   UNL     1       9.724  -0.089  21.339  0.00  0.00    -0.219 NA
ATOM     31  C   UNL     1       9.167  -1.286  21.660  0.00  0.00    +0.225 A 
ATOM     32  N   UNL     1       7.531   1.791  23.666  0.00  0.00    -0.231 NA
ATOM     33  N   UNL     1       8.175  -1.543  22.543  0.00  0.00    -0.216 NA
ATOM     34  C   UNL     1       6.645   1.080  24.330  0.00  0.00    +0.201 A 
BRANCH  29  35
ATOM     35  N   UNL     1       9.791   2.244  21.584  0.00  0.00    -0.341 N 
ATOM     36  H   UNL     1      10.447   2.580  22.277  0.00  0.00    +0.144 HD
ATOM     37  H   UNL     1       9.101   2.898  21.238  0.00  0.00    +0.144 HD
ENDBRANCH  29  35
ENDBRANCH  25  26
ENDBRANCH  24  25
ENDBRANCH  22  24
ENDBRANCH  21  22
ENDBRANCH   1  21
TORSDOF 18
ENDMDL
MODEL 7
REMARK VINA RESULT:      -6.1      2.243      3.959
REMARK  Name = 
REMARK  23 active torsions:
REMARK  status: ('A' for Active; 'I' for Inactive)
REMARK    1  A    between atoms: C_1  and  C_2
REMARK    2  A    between atoms: C_2  and  C_4
REMARK    3  A    between atoms: C_2  and  O_15
REMARK    4  A    between atoms: C_4  and  N_5
REMARK    5  A    between atoms: C_9  and  N_14
REMARK    6  A    between atoms: O_15  and  C_16
REMARK    7  A    between atoms: C_16  and  P_17
REMARK    8  A    between atoms: P_17  and  O_19
REMARK    9  A    between atoms: P_17  and  O_28
REMARK   10  A    between atoms: O_19  and  C_20
REMARK   11  A    between atoms: C_20  and  O_21
REMARK   12  A    between atoms: O_21  and  C_22
REMARK   13  A    between atoms: C_22  and  O_24
REMARK   14  A    between atoms: O_24  and  C_25
REMARK   15  A    between atoms: C_25  and  C_26
REMARK   16  A    between atoms: C_25  and  C_27
REMARK   17  A    between atoms: O_28  and  C_29
REMARK   18  A    between atoms: C_29  and  O_30
REMARK   19  A    between atoms: O_30  and  C_31
REMARK   20  A    between atoms: C_31  and  O_33
REMARK   21  A    between atoms: O_33  and  C_34
REMARK   22  A    between atoms: C_34  and  C_35
REMARK   23  A    between atoms: C_34  and  C_36
REMARK                            x       y       z     vdW  Elec       q    Type
REMARK                         _______ _______ _______ _____ _____    ______ ____
ROOT
ATOM      1  P   UNL     1       9.725  -0.745  23.033  0.00  0.00    +0.364 P 
ATOM      2  O   UNL     1      10.043  -1.854  22.020  0.00  0.00    -0.256 OA
ENDROOT
BRANCH   1   3
ATOM      3  O   UNL     1      10.058   0.470  21.847  0.00  0.00    -0.268 OA
BRANCH   3   4
ATOM      4  C   UNL     1       9.786   1.764  22.344  0.00  0.00    +0.410 C 
BRANCH   4   5
ATOM      5  O   UNL     1      10.677   2.255  23.343  0.00  0.00    -0.406 OA
BRANCH   5   6
ATOM      6  C   UNL     1      10.627   3.598  23.477  0.00  0.00    +0.512 C 
ATOM      7  O   UNL     1       9.625   4.270  23.640  0.00  0.00    -0.203 OA
BRANCH   6   8
ATOM      8  O   UNL     1      11.899   4.067  23.567  0.00  0.00    -0.431 OA
BRANCH   8   9
ATOM      9  C   UNL     1      12.069   5.448  23.192  0.00  0.00    +0.174 C 
ATOM     10  C   UNL     1      13.257   5.508  22.241  0.00  0.00    +0.052 C 
ATOM     11  C   UNL     1      12.335   6.327  24.416  0.00  0.00    +0.052 C 
ENDBRANCH   8   9
ENDBRANCH   6   8
ENDBRANCH   5   6
ENDBRANCH   4   5
ENDBRANCH   3   4
ENDBRANCH   1   3
BRANCH   1  12
ATOM     12  O   UNL     1       8.137  -0.297  22.880  0.00  0.00    -0.268 OA
BRANCH  12  13
ATOM     13  C   UNL     1       7.158  -0.750  23.827  0.00  0.00    +0.410 C 
BRANCH  13  14
ATOM     14  O   UNL     1       6.940  -0.002  25.027  0.00  0.00    -0.406 OA
BRANCH  14  15
ATOM     15  C   UNL     1       7.098   1.330  24.891  0.00  0.00    +0.512 C 
ATOM     16  O   UNL     1       7.968   2.003  25.430  0.00  0.00    -0.203 OA
BRANCH  15  17
ATOM     17  O   UNL     1       6.082   1.822  24.126  0.00  0.00    -0.431 OA
BRANCH  17  18
ATOM     18  C   UNL     1       6.260   3.179  23.680  0.00  0.00    +0.174 C 
ATOM     19  C   UNL     1       5.092   4.049  24.133  0.00  0.00    +0.052 C 
ATOM     20  C   UNL     1       6.363   3.176  22.159  0.00  0.00    +0.052 C 
ENDBRANCH  17  18
ENDBRANCH  15  17
ENDBRANCH  14  15
ENDBRANCH  13  14
ENDBRANCH  12  13
ENDBRANCH   1  12
BRANCH   1  21
ATOM     21  C   UNL     1       9.371  -2.030  24.288  0.00  0.00    +0.287 C 
BRANCH  21  22
ATOM     22  O   UNL     1       9.728  -3.404  23.986  0.00  0.00    -0.363 OA
BRANCH  22  24
ATOM     23  C   UNL     1      10.039  -5.234  25.620  0.00  0.00    +0.040 C 
ATOM     24  C   UNL     1       9.079  -4.431  24.744  0.00  0.00    +0.136 C 
BRANCH  24  25
ATOM     25  C   UNL     1       7.959  -3.842  25.630  0.00  0.00    +0.156 C 
BRANCH  25  26
ATOM     26  N   UNL     1       6.853  -4.728  25.946  0.00  0.00    -0.312 N 
ATOM     27  C   UNL     1       5.881  -5.177  25.081  0.00  0.00    +0.165 A 
ATOM     28  C   UNL     1       5.227  -6.177  25.778  0.00  0.00    +0.147 A 
ATOM     29  C   UNL     1       4.193  -6.853  25.095  0.00  0.00    +0.147 A 
ATOM     30  N   UNL     1       3.891  -6.471  23.838  0.00  0.00    -0.219 NA
ATOM     31  C   UNL     1       4.623  -5.472  23.280  0.00  0.00    +0.225 A 
ATOM     32  N   UNL     1       5.758  -6.334  27.040  0.00  0.00    -0.231 NA
ATOM     33  N   UNL     1       5.639  -4.766  23.828  0.00  0.00    -0.216 NA
ATOM     34  C   UNL     1       6.739  -5.460  27.102  0.00  0.00    +0.201 A 
BRANCH  29  35
ATOM     35  N   UNL     1       3.465  -7.901  25.649  0.00  0.00    -0.341 N 
ATOM     36  H   UNL     1       4.067  -8.650  25.965  0.00  0.00    +0.144 HD
ATOM     37  H   UNL     1       2.654  -8.154  25.097  0.00  0.00    +0.144 HD
ENDBRANCH  29  35
ENDBRANCH  25  26
ENDBRANCH  24  25
ENDBRANCH  22  24
ENDBRANCH  21  22
ENDBRANCH   1  21
TORSDOF 18
ENDMDL
MODEL 8
REMARK VINA RESULT:      -6.1      4.141      7.291
REMARK  Name = 
REMARK  23 active torsions:
REMARK  status: ('A' for Active; 'I' for Inactive)
REMARK    1  A    between atoms: C_1  and  C_2
REMARK    2  A    between atoms: C_2  and  C_4
REMARK    3  A    between atoms: C_2  and  O_15
REMARK    4  A    between atoms: C_4  and  N_5
REMARK    5  A    between atoms: C_9  and  N_14
REMARK    6  A    between atoms: O_15  and  C_16
REMARK    7  A    between atoms: C_16  and  P_17
REMARK    8  A    between atoms: P_17  and  O_19
REMARK    9  A    between atoms: P_17  and  O_28
REMARK   10  A    between atoms: O_19  and  C_20
REMARK   11  A    between atoms: C_20  and  O_21
REMARK   12  A    between atoms: O_21  and  C_22
REMARK   13  A    between atoms: C_22  and  O_24
REMARK   14  A    between atoms: O_24  and  C_25
REMARK   15  A    between atoms: C_25  and  C_26
REMARK   16  A    between atoms: C_25  and  C_27
REMARK   17  A    between atoms: O_28  and  C_29
REMARK   18  A    between atoms: C_29  and  O_30
REMARK   19  A    between atoms: O_30  and  C_31
REMARK   20  A    between atoms: C_31  and  O_33
REMARK   21  A    between atoms: O_33  and  C_34
REMARK   22  A    between atoms: C_34  and  C_35
REMARK   23  A    between atoms: C_34  and  C_36
REMARK                            x       y       z     vdW  Elec       q    Type
REMARK                         _______ _______ _______ _____ _____    ______ ____
ROOT
ATOM      1  P   UNL     1       6.487  -5.315  27.133  0.00  0.00    +0.364 P 
ATOM      2  O   UNL     1       7.036  -5.774  28.492  0.00  0.00    -0.256 OA
ENDROOT
BRANCH   1   3
ATOM      3  O   UNL     1       7.854  -5.996  26.321  0.00  0.00    -0.268 OA
BRANCH   3   4
ATOM      4  C   UNL     1       8.754  -4.993  25.898  0.00  0.00    +0.410 C 
BRANCH   4   5
ATOM      5  O   UNL     1       9.205  -5.079  24.548  0.00  0.00    -0.406 OA
BRANCH   5   6
ATOM      6  C   UNL     1       8.196  -5.023  23.652  0.00  0.00    +0.512 C 
ATOM      7  O   UNL     1       7.780  -5.946  22.976  0.00  0.00    -0.203 OA
BRANCH   6   8
ATOM      8  O   UNL     1       7.607  -3.803  23.747  0.00  0.00    -0.431 OA
BRANCH   8   9
ATOM      9  C   UNL     1       7.250  -3.198  22.489  0.00  0.00    +0.174 C 
ATOM     10  C   UNL     1       8.268  -2.098  22.218  0.00  0.00    +0.052 C 
ATOM     11  C   UNL     1       5.841  -2.603  22.539  0.00  0.00    +0.052 C 
ENDBRANCH   8   9
ENDBRANCH   6   8
ENDBRANCH   5   6
ENDBRANCH   4   5
ENDBRANCH   3   4
ENDBRANCH   1   3
BRANCH   1  12
ATOM     12  O   UNL     1       5.611  -6.544  26.448  0.00  0.00    -0.268 OA
BRANCH  12  13
ATOM     13  C   UNL     1       4.976  -6.363  25.174  0.00  0.00    +0.410 C 
BRANCH  13  14
ATOM     14  O   UNL     1       4.434  -7.496  24.490  0.00  0.00    -0.406 OA
BRANCH  14  15
ATOM     15  C   UNL     1       3.103  -7.650  24.630  0.00  0.00    +0.512 C 
ATOM     16  O   UNL     1       2.472  -8.668  24.373  0.00  0.00    -0.203 OA
BRANCH  15  17
ATOM     17  O   UNL     1       2.557  -6.463  25.023  0.00  0.00    -0.431 OA
BRANCH  17  18
ATOM     18  C   UNL     1       1.276  -6.161  24.441  0.00  0.00    +0.174 C 
ATOM     19  C   UNL     1       1.448  -5.361  23.153  0.00  0.00    +0.052 C 
ATOM     20  C   UNL     1       0.462  -5.369  25.456  0.00  0.00    +0.052 C 
ENDBRANCH  17  18
ENDBRANCH  15  17
ENDBRANCH  14  15
ENDBRANCH  13  14
ENDBRANCH  12  13
ENDBRANCH   1  12
BRANCH   1  21
ATOM     21  C   UNL     1       5.040  -4.595  27.993  0.00  0.00    +0.287 C 
BRANCH  21  22
ATOM     22  O   UNL     1       4.652  -3.235  27.667  0.00  0.00    -0.363 OA
BRANCH  22  24
ATOM     23  C   UNL     1       3.395  -3.059  25.545  0.00  0.00    +0.040 C 
ATOM     24  C   UNL     1       4.712  -2.848  26.290  0.00  0.00    +0.136 C 
BRANCH  24  25
ATOM     25  C   UNL     1       5.144  -1.371  26.147  0.00  0.00    +0.156 C 
BRANCH  25  26
ATOM     26  N   UNL     1       6.557  -1.132  25.918  0.00  0.00    -0.312 N 
ATOM     27  C   UNL     1       7.110  -0.200  25.071  0.00  0.00    +0.165 A 
ATOM     28  C   UNL     1       8.455  -0.185  25.397  0.00  0.00    +0.147 A 
ATOM     29  C   UNL     1       9.266   0.734  24.697  0.00  0.00    +0.147 A 
ATOM     30  N   UNL     1       8.698   1.509  23.752  0.00  0.00    -0.219 NA
ATOM     31  C   UNL     1       7.362   1.385  23.542  0.00  0.00    +0.225 A 
ATOM     32  N   UNL     1       8.735  -1.089  26.398  0.00  0.00    -0.231 NA
ATOM     33  N   UNL     1       6.487   0.556  24.155  0.00  0.00    -0.216 NA
ATOM     34  C   UNL     1       7.573  -1.629  26.696  0.00  0.00    +0.201 A 
BRANCH  29  35
ATOM     35  N   UNL     1      10.628   0.891  24.934  0.00  0.00    -0.341 N 
ATOM     36  H   UNL     1      10.827   1.747  25.436  0.00  0.00    +0.144 HD
ATOM     37  H   UNL     1      11.197   0.682  24.123  0.00  0.00    +0.144 HD
ENDBRANCH  29  35
ENDBRANCH  25  26
ENDBRANCH  24  25
ENDBRANCH  22  24
ENDBRANCH  21  22
ENDBRANCH   1  21
TORSDOF 18
ENDMDL
MODEL 9
REMARK VINA RESULT:      -6.1      1.964      3.388
REMARK  Name = 
REMARK  23 active torsions:
REMARK  status: ('A' for Active; 'I' for Inactive)
REMARK    1  A    between atoms: C_1  and  C_2
REMARK    2  A    between atoms: C_2  and  C_4
REMARK    3  A    between atoms: C_2  and  O_15
REMARK    4  A    between atoms: C_4  and  N_5
REMARK    5  A    between atoms: C_9  and  N_14
REMARK    6  A    between atoms: O_15  and  C_16
REMARK    7  A    between atoms: C_16  and  P_17
REMARK    8  A    between atoms: P_17  and  O_19
REMARK    9  A    between atoms: P_17  and  O_28
REMARK   10  A    between atoms: O_19  and  C_20
REMARK   11  A    between atoms: C_20  and  O_21
REMARK   12  A    between atoms: O_21  and  C_22
REMARK   13  A    between atoms: C_22  and  O_24
REMARK   14  A    between atoms: O_24  and  C_25
REMARK   15  A    between atoms: C_25  and  C_26
REMARK   16  A    between atoms: C_25  and  C_27
REMARK   17  A    between atoms: O_28  and  C_29
REMARK   18  A    between atoms: C_29  and  O_30
REMARK   19  A    between atoms: O_30  and  C_31
REMARK   20  A    between atoms: C_31  and  O_33
REMARK   21  A    between atoms: O_33  and  C_34
REMARK   22  A    between atoms: C_34  and  C_35
REMARK   23  A    between atoms: C_34  and  C_36
REMARK                            x       y       z     vdW  Elec       q    Type
REMARK                         _______ _______ _______ _____ _____    ______ ____
ROOT
ATOM      1  P   UNL     1       8.949  -1.102  23.226  0.00  0.00    +0.364 P 
ATOM      2  O   UNL     1       9.601  -1.702  21.972  0.00  0.00    -0.256 OA
ENDROOT
BRANCH   1   3
ATOM      3  O   UNL     1      10.385  -0.203  23.575  0.00  0.00    -0.268 OA
BRANCH   3   4
ATOM      4  C   UNL     1      10.244   1.154  23.208  0.00  0.00    +0.410 C 
BRANCH   4   5
ATOM      5  O   UNL     1      11.004   2.094  23.965  0.00  0.00    -0.406 OA
BRANCH   5   6
ATOM      6  C   UNL     1      10.840   3.365  23.542  0.00  0.00    +0.512 C 
ATOM      7  O   UNL     1       9.782   3.957  23.431  0.00  0.00    -0.203 OA
BRANCH   6   8
ATOM      8  O   UNL     1      12.066   3.936  23.414  0.00  0.00    -0.431 OA
BRANCH   8   9
ATOM      9  C   UNL     1      12.056   5.345  23.109  0.00  0.00    +0.174 C 
ATOM     10  C   UNL     1      13.215   5.603  22.156  0.00  0.00    +0.052 C 
ATOM     11  C   UNL     1      12.223   6.187  24.376  0.00  0.00    +0.052 C 
ENDBRANCH   8   9
ENDBRANCH   6   8
ENDBRANCH   5   6
ENDBRANCH   4   5
ENDBRANCH   3   4
ENDBRANCH   1   3
BRANCH   1  12
ATOM     12  O   UNL     1       8.263   0.358  22.847  0.00  0.00    -0.268 OA
BRANCH  12  13
ATOM     13  C   UNL     1       6.837   0.518  22.860  0.00  0.00    +0.410 C 
BRANCH  13  14
ATOM     14  O   UNL     1       6.230   1.340  23.861  0.00  0.00    -0.406 OA
BRANCH  14  15
ATOM     15  C   UNL     1       5.991   0.713  25.030  0.00  0.00    +0.512 C 
ATOM     16  O   UNL     1       4.966   0.107  25.317  0.00  0.00    -0.203 OA
BRANCH  15  17
ATOM     17  O   UNL     1       7.039   0.934  25.875  0.00  0.00    -0.431 OA
BRANCH  17  18
ATOM     18  C   UNL     1       7.082   0.073  27.027  0.00  0.00    +0.174 C 
ATOM     19  C   UNL     1       6.959   0.889  28.310  0.00  0.00    +0.052 C 
ATOM     20  C   UNL     1       8.399  -0.694  27.007  0.00  0.00    +0.052 C 
ENDBRANCH  17  18
ENDBRANCH  15  17
ENDBRANCH  14  15
ENDBRANCH  13  14
ENDBRANCH  12  13
ENDBRANCH   1  12
BRANCH   1  21
ATOM     21  C   UNL     1       7.429  -2.053  22.856  0.00  0.00    +0.287 C 
BRANCH  21  22
ATOM     22  O   UNL     1       7.550  -3.265  22.066  0.00  0.00    -0.363 OA
BRANCH  22  24
ATOM     23  C   UNL     1       6.553  -5.460  21.512  0.00  0.00    +0.040 C 
ATOM     24  C   UNL     1       6.945  -4.452  22.591  0.00  0.00    +0.136 C 
BRANCH  24  25
ATOM     25  C   UNL     1       7.874  -5.142  23.615  0.00  0.00    +0.156 C 
BRANCH  25  26
ATOM     26  N   UNL     1       7.509  -5.004  25.013  0.00  0.00    -0.312 N 
ATOM     27  C   UNL     1       6.450  -5.606  25.653  0.00  0.00    +0.165 A 
ATOM     28  C   UNL     1       6.677  -5.375  26.999  0.00  0.00    +0.147 A 
ATOM     29  C   UNL     1       5.749  -5.934  27.903  0.00  0.00    +0.147 A 
ATOM     30  N   UNL     1       4.700  -6.624  27.410  0.00  0.00    -0.219 NA
ATOM     31  C   UNL     1       4.609  -6.771  26.063  0.00  0.00    +0.225 A 
ATOM     32  N   UNL     1       7.826  -4.638  27.191  0.00  0.00    -0.231 NA
ATOM     33  N   UNL     1       5.439  -6.296  25.106  0.00  0.00    -0.216 NA
ATOM     34  C   UNL     1       8.306  -4.445  25.981  0.00  0.00    +0.201 A 
BRANCH  29  35
ATOM     35  N   UNL     1       5.858  -5.817  29.285  0.00  0.00    -0.341 N 
ATOM     36  H   UNL     1       6.454  -5.045  29.551  0.00  0.00    +0.144 HD
ATOM     37  H   UNL     1       6.012  -6.706  29.746  0.00  0.00    +0.144 HD
ENDBRANCH  29  35
ENDBRANCH  25  26
ENDBRANCH  24  25
ENDBRANCH  22  24
ENDBRANCH  21  22
ENDBRANCH   1  21
TORSDOF 18
ENDMDL
