MODEL 1
REMARK VINA RESULT:      -6.7      0.000      0.000
REMARK  Name = 
REMARK  16 active torsions:
REMARK  status: ('A' for Active; 'I' for Inactive)
REMARK    1  A    between atoms: C_1  and  C_2
REMARK    2  A    between atoms: C_2  and  C_3
REMARK    3  A    between atoms: C_2  and  C_4
REMARK    4  A    between atoms: C_4  and  N_5
REMARK    5  A    between atoms: N_5  and  C_6
REMARK    6  A    between atoms: N_5  and  S_29
REMARK    7  A    between atoms: C_6  and  C_7
REMARK    8  A    between atoms: C_7  and  C_9
REMARK    9  A    between atoms: C_7  and  O_28
REMARK   10  A    between atoms: C_9  and  C_11
REMARK   11  A    between atoms: C_9  and  N_18
REMARK   12  A    between atoms: C_11  and  C_12
REMARK   13  A    between atoms: C_19  and  O_21
REMARK   14  A    between atoms: O_21  and  C_22
REMARK   15  A    between atoms: S_29  and  C_32
REMARK   16  A    between atoms: C_35  and  N_38
REMARK                            x       y       z     vdW  Elec       q    Type
REMARK                         _______ _______ _______ _____ _____    ______ ____
ROOT
ATOM      1  C   UNL     1       8.313  -1.423  26.809  0.00  0.00    +0.151 C 
ENDROOT
BRANCH   1   2
ATOM      2  O   UNL     1       9.267  -0.557  27.453  0.00  0.00    -0.389 OA
ATOM      3  H   UNL     1      10.045  -0.481  26.874  0.00  0.00    +0.210 HD
ENDBRANCH   1   2
BRANCH   1   4
ATOM      4  C   UNL     1       6.887  -0.889  27.075  0.00  0.00    +0.142 C 
BRANCH   4   5
ATOM      5  N   UNL     1       5.785  -1.001  25.984  0.00  0.00    -0.174 NA
BRANCH   5   6
ATOM      6  S   UNL     1       4.422  -1.837  26.698  0.00  0.00    +0.061 S 
ATOM      7  O   UNL     1       3.222  -1.116  26.326  0.00  0.00    -0.153 OA
ATOM      8  O   UNL     1       4.710  -2.080  28.093  0.00  0.00    -0.153 OA
BRANCH   6   9
ATOM      9  C   UNL     1       4.377  -3.414  25.859  0.00  0.00    +0.106 A 
ATOM     10  C   UNL     1       5.245  -4.454  26.222  0.00  0.00    +0.030 A 
ATOM     11  C   UNL     1       5.150  -5.699  25.586  0.00  0.00    +0.024 A 
ATOM     12  C   UNL     1       4.186  -5.930  24.596  0.00  0.00    +0.025 A 
ATOM     13  C   UNL     1       3.423  -4.848  24.152  0.00  0.00    +0.024 A 
ATOM     14  C   UNL     1       3.522  -3.601  24.776  0.00  0.00    +0.030 A 
BRANCH  12  15
ATOM     15  N   UNL     1       4.148  -7.137  23.890  0.00  0.00    -0.358 N 
ATOM     16  H   UNL     1       3.918  -7.044  22.906  0.00  0.00    +0.142 HD
ATOM     17  H   UNL     1       4.957  -7.733  24.038  0.00  0.00    +0.142 HD
ENDBRANCH  12  15
ENDBRANCH   6   9
ENDBRANCH   5   6
BRANCH   5  18
ATOM     18  C   UNL     1       5.534   0.304  25.250  0.00  0.00    +0.112 C 
BRANCH  18  20
ATOM     19  C   UNL     1       6.422   1.681  23.163  0.00  0.00    +0.008 C 
ATOM     20  C   UNL     1       6.627   1.212  24.597  0.00  0.00    -0.001 C 
ATOM     21  C   UNL     1       7.260   2.339  25.415  0.00  0.00    +0.008 C 
ENDBRANCH  18  20
ENDBRANCH   5  18
ENDBRANCH   4   5
ENDBRANCH   1   4
BRANCH   1  22
ATOM     22  C   UNL     1       8.681  -1.625  25.319  0.00  0.00    +0.110 C 
BRANCH  22  23
ATOM     23  N   UNL     1       8.301  -2.912  24.654  0.00  0.00    -0.275 N 
ATOM     24  H   UNL     1       7.315  -2.976  24.427  0.00  0.00    +0.152 HD
ATOM     25  C   UNL     1       8.879  -4.135  24.461  0.00  0.00    +0.401 C 
ATOM     26  O   UNL     1      10.000  -4.480  24.795  0.00  0.00    -0.226 OA
BRANCH  25  27
ATOM     27  O   UNL     1       7.942  -4.944  23.878  0.00  0.00    -0.445 OA
BRANCH  27  28
ATOM     28  C   UNL     1       7.501  -4.806  22.501  0.00  0.00    +0.206 C 
ATOM     29  C   UNL     1       6.283  -3.938  22.204  0.00  0.00    +0.204 C 
ATOM     30  O   UNL     1       5.624  -4.498  21.041  0.00  0.00    -0.376 OA
ATOM     31  C   UNL     1       6.153  -5.809  20.800  0.00  0.00    +0.163 C 
ATOM     32  C   UNL     1       6.979  -6.158  22.023  0.00  0.00    +0.075 C 
ENDBRANCH  27  28
ENDBRANCH  25  27
ENDBRANCH  22  23
BRANCH  22  33
ATOM     33  C   UNL     1      10.023  -0.942  24.865  0.00  0.00    +0.060 C 
BRANCH  33  34
ATOM     34  C   UNL     1      10.200   0.191  23.853  0.00  0.00    -0.046 A 
ATOM     35  C   UNL     1      10.640   1.456  24.319  0.00  0.00    +0.004 A 
ATOM     36  C   UNL     1      10.642   2.588  23.496  0.00  0.00    +0.000 A 
ATOM     37  C   UNL     1      10.202   2.488  22.183  0.00  0.00    +0.000 A 
ATOM     38  C   UNL     1       9.778   1.250  21.702  0.00  0.00    +0.000 A 
ATOM     39  C   UNL     1       9.780   0.115  22.535  0.00  0.00    +0.004 A 
ENDBRANCH  33  34
ENDBRANCH  22  33
ENDBRANCH   1  22
TORSDOF 14
ENDMDL
MODEL 2
REMARK VINA RESULT:      -6.6      2.330      4.967
REMARK  Name = 
REMARK  16 active torsions:
REMARK  status: ('A' for Active; 'I' for Inactive)
REMARK    1  A    between atoms: C_1  and  C_2
REMARK    2  A    between atoms: C_2  and  C_3
REMARK    3  A    between atoms: C_2  and  C_4
REMARK    4  A    between atoms: C_4  and  N_5
REMARK    5  A    between atoms: N_5  and  C_6
REMARK    6  A    between atoms: N_5  and  S_29
REMARK    7  A    between atoms: C_6  and  C_7
REMARK    8  A    between atoms: C_7  and  C_9
REMARK    9  A    between atoms: C_7  and  O_28
REMARK   10  A    between atoms: C_9  and  C_11
REMARK   11  A    between atoms: C_9  and  N_18
REMARK   12  A    between atoms: C_11  and  C_12
REMARK   13  A    between atoms: C_19  and  O_21
REMARK   14  A    between atoms: O_21  and  C_22
REMARK   15  A    between atoms: S_29  and  C_32
REMARK   16  A    between atoms: C_35  and  N_38
REMARK                            x       y       z     vdW  Elec       q    Type
REMARK                         _______ _______ _______ _____ _____    ______ ____
ROOT
ATOM      1  C   UNL     1       8.087  -1.403  26.581  0.00  0.00    +0.151 C 
ENDROOT
BRANCH   1   2
ATOM      2  O   UNL     1       9.109  -0.602  27.203  0.00  0.00    -0.389 OA
ATOM      3  H   UNL     1       8.680  -0.012  27.847  0.00  0.00    +0.210 HD
ENDBRANCH   1   2
BRANCH   1   4
ATOM      4  C   UNL     1       6.725  -0.688  26.728  0.00  0.00    +0.142 C 
BRANCH   4   5
ATOM      5  N   UNL     1       6.601   0.839  26.461  0.00  0.00    -0.174 NA
BRANCH   5   6
ATOM      6  S   UNL     1       5.747   1.039  24.945  0.00  0.00    +0.061 S 
ATOM      7  O   UNL     1       4.385   1.422  25.257  0.00  0.00    -0.153 OA
ATOM      8  O   UNL     1       5.996  -0.121  24.120  0.00  0.00    -0.153 OA
BRANCH   6   9
ATOM      9  C   UNL     1       6.532   2.447  24.174  0.00  0.00    +0.106 A 
ATOM     10  C   UNL     1       6.373   2.705  22.805  0.00  0.00    +0.030 A 
ATOM     11  C   UNL     1       6.953   3.848  22.237  0.00  0.00    +0.024 A 
ATOM     12  C   UNL     1       7.683   4.750  23.021  0.00  0.00    +0.025 A 
ATOM     13  C   UNL     1       7.947   4.408  24.349  0.00  0.00    +0.024 A 
ATOM     14  C   UNL     1       7.379   3.264  24.917  0.00  0.00    +0.030 A 
BRANCH  12  15
ATOM     15  N   UNL     1       8.345   5.839  22.445  0.00  0.00    -0.358 N 
ATOM     16  H   UNL     1       8.398   5.814  21.432  0.00  0.00    +0.142 HD
ATOM     17  H   UNL     1       8.039   6.744  22.788  0.00  0.00    +0.142 HD
ENDBRANCH  12  15
ENDBRANCH   6   9
ENDBRANCH   5   6
BRANCH   5  18
ATOM     18  C   UNL     1       6.127   1.621  27.672  0.00  0.00    +0.112 C 
BRANCH  18  20
ATOM     19  C   UNL     1       6.716   3.814  29.046  0.00  0.00    +0.008 C 
ATOM     20  C   UNL     1       7.043   2.368  28.696  0.00  0.00    -0.001 C 
ATOM     21  C   UNL     1       7.525   1.637  29.950  0.00  0.00    +0.008 C 
ENDBRANCH  18  20
ENDBRANCH   5  18
ENDBRANCH   4   5
ENDBRANCH   1   4
BRANCH   1  22
ATOM     22  C   UNL     1       8.492  -1.774  25.134  0.00  0.00    +0.110 C 
BRANCH  22  23
ATOM     23  N   UNL     1       8.197  -3.155  24.637  0.00  0.00    -0.275 N 
ATOM     24  H   UNL     1       7.214  -3.319  24.453  0.00  0.00    +0.152 HD
ATOM     25  C   UNL     1       8.865  -4.346  24.567  0.00  0.00    +0.401 C 
ATOM     26  O   UNL     1      10.018  -4.564  24.899  0.00  0.00    -0.226 OA
BRANCH  25  27
ATOM     27  O   UNL     1       7.979  -5.286  24.115  0.00  0.00    -0.445 OA
BRANCH  27  28
ATOM     28  C   UNL     1       6.965  -5.022  23.109  0.00  0.00    +0.206 C 
ATOM     29  C   UNL     1       5.551  -5.545  23.338  0.00  0.00    +0.204 C 
ATOM     30  O   UNL     1       4.978  -5.828  22.037  0.00  0.00    -0.376 OA
ATOM     31  C   UNL     1       6.029  -5.825  21.060  0.00  0.00    +0.163 C 
ATOM     32  C   UNL     1       7.327  -5.796  21.844  0.00  0.00    +0.075 C 
ENDBRANCH  27  28
ENDBRANCH  25  27
ENDBRANCH  22  23
BRANCH  22  33
ATOM     33  C   UNL     1       9.801  -1.077  24.609  0.00  0.00    +0.060 C 
BRANCH  33  34
ATOM     34  C   UNL     1       9.917   0.253  23.862  0.00  0.00    -0.046 A 
ATOM     35  C   UNL     1       9.489   0.313  22.511  0.00  0.00    +0.004 A 
ATOM     36  C   UNL     1       9.739   1.430  21.706  0.00  0.00    +0.000 A 
ATOM     37  C   UNL     1      10.424   2.519  22.227  0.00  0.00    +0.000 A 
ATOM     38  C   UNL     1      10.842   2.484  23.556  0.00  0.00    +0.000 A 
ATOM     39  C   UNL     1      10.586   1.358  24.363  0.00  0.00    +0.004 A 
ENDBRANCH  33  34
ENDBRANCH  22  33
ENDBRANCH   1  22
TORSDOF 14
ENDMDL
MODEL 3
REMARK VINA RESULT:      -6.5      1.340      1.618
REMARK  Name = 
REMARK  16 active torsions:
REMARK  status: ('A' for Active; 'I' for Inactive)
REMARK    1  A    between atoms: C_1  and  C_2
REMARK    2  A    between atoms: C_2  and  C_3
REMARK    3  A    between atoms: C_2  and  C_4
REMARK    4  A    between atoms: C_4  and  N_5
REMARK    5  A    between atoms: N_5  and  C_6
REMARK    6  A    between atoms: N_5  and  S_29
REMARK    7  A    between atoms: C_6  and  C_7
REMARK    8  A    between atoms: C_7  and  C_9
REMARK    9  A    between atoms: C_7  and  O_28
REMARK   10  A    between atoms: C_9  and  C_11
REMARK   11  A    between atoms: C_9  and  N_18
REMARK   12  A    between atoms: C_11  and  C_12
REMARK   13  A    between atoms: C_19  and  O_21
REMARK   14  A    between atoms: O_21  and  C_22
REMARK   15  A    between atoms: S_29  and  C_32
REMARK   16  A    between atoms: C_35  and  N_38
REMARK                            x       y       z     vdW  Elec       q    Type
REMARK                         _______ _______ _______ _____ _____    ______ ____
ROOT
ATOM      1  C   UNL     1       8.330  -1.525  26.697  0.00  0.00    +0.151 C 
ENDROOT
BRANCH   1   2
ATOM      2  O   UNL     1       9.285  -0.559  27.176  0.00  0.00    -0.389 OA
ATOM      3  H   UNL     1      10.111  -1.028  27.382  0.00  0.00    +0.210 HD
ENDBRANCH   1   2
BRANCH   1   4
ATOM      4  C   UNL     1       6.902  -1.005  26.975  0.00  0.00    +0.142 C 
BRANCH   4   5
ATOM      5  N   UNL     1       5.747  -1.290  25.973  0.00  0.00    -0.174 NA
BRANCH   5   6
ATOM      6  S   UNL     1       4.355  -1.798  26.906  0.00  0.00    +0.061 S 
ATOM      7  O   UNL     1       3.226  -1.872  26.002  0.00  0.00    -0.153 OA
ATOM      8  O   UNL     1       4.273  -0.978  28.094  0.00  0.00    -0.153 OA
BRANCH   6   9
ATOM      9  C   UNL     1       4.742  -3.468  27.412  0.00  0.00    +0.106 A 
ATOM     10  C   UNL     1       4.573  -3.880  28.742  0.00  0.00    +0.030 A 
ATOM     11  C   UNL     1       4.830  -5.211  29.099  0.00  0.00    +0.024 A 
ATOM     12  C   UNL     1       5.243  -6.147  28.142  0.00  0.00    +0.025 A 
ATOM     13  C   UNL     1       5.537  -5.689  26.856  0.00  0.00    +0.024 A 
ATOM     14  C   UNL     1       5.293  -4.361  26.497  0.00  0.00    +0.030 A 
BRANCH  12  15
ATOM     15  N   UNL     1       5.594  -7.450  28.508  0.00  0.00    -0.358 N 
ATOM     16  H   UNL     1       6.133  -7.518  29.365  0.00  0.00    +0.142 HD
ATOM     17  H   UNL     1       4.824  -8.112  28.489  0.00  0.00    +0.142 HD
ENDBRANCH  12  15
ENDBRANCH   6   9
ENDBRANCH   5   6
BRANCH   5  18
ATOM     18  C   UNL     1       5.569  -0.194  24.938  0.00  0.00    +0.112 C 
BRANCH  18  20
ATOM     19  C   UNL     1       6.547   1.574  23.218  0.00  0.00    +0.008 C 
ATOM     20  C   UNL     1       6.616   0.914  24.589  0.00  0.00    -0.001 C 
ATOM     21  C   UNL     1       6.985   1.963  25.640  0.00  0.00    +0.008 C 
ENDBRANCH  18  20
ENDBRANCH   5  18
ENDBRANCH   4   5
ENDBRANCH   1   4
BRANCH   1  22
ATOM     22  C   UNL     1       8.628  -1.900  25.225  0.00  0.00    +0.110 C 
BRANCH  22  23
ATOM     23  N   UNL     1       8.186  -3.239  24.721  0.00  0.00    -0.275 N 
ATOM     24  H   UNL     1       7.184  -3.315  24.593  0.00  0.00    +0.152 HD
ATOM     25  C   UNL     1       8.744  -4.480  24.590  0.00  0.00    +0.401 C 
ATOM     26  O   UNL     1       9.891  -4.803  24.850  0.00  0.00    -0.226 OA
BRANCH  25  27
ATOM     27  O   UNL     1       7.756  -5.331  24.175  0.00  0.00    -0.445 OA
BRANCH  27  28
ATOM     28  C   UNL     1       6.842  -5.036  23.085  0.00  0.00    +0.206 C 
ATOM     29  C   UNL     1       5.442  -5.640  23.119  0.00  0.00    +0.204 C 
ATOM     30  O   UNL     1       5.026  -5.847  21.746  0.00  0.00    -0.376 OA
ATOM     31  C   UNL     1       6.173  -5.718  20.893  0.00  0.00    +0.163 C 
ATOM     32  C   UNL     1       7.377  -5.691  21.815  0.00  0.00    +0.075 C 
ENDBRANCH  27  28
ENDBRANCH  25  27
ENDBRANCH  22  23
BRANCH  22  33
ATOM     33  C   UNL     1       9.965  -1.310  24.644  0.00  0.00    +0.060 C 
BRANCH  33  34
ATOM     34  C   UNL     1      10.135  -0.076  23.756  0.00  0.00    -0.046 A 
ATOM     35  C   UNL     1      10.466   1.161  24.367  0.00  0.00    +0.004 A 
ATOM     36  C   UNL     1      10.449   2.365  23.655  0.00  0.00    +0.000 A 
ATOM     37  C   UNL     1      10.102   2.368  22.311  0.00  0.00    +0.000 A 
ATOM     38  C   UNL     1       9.786   1.162  21.689  0.00  0.00    +0.000 A 
ATOM     39  C   UNL     1       9.806  -0.047  22.410  0.00  0.00    +0.004 A 
ENDBRANCH  33  34
ENDBRANCH  22  33
ENDBRANCH   1  22
TORSDOF 14
ENDMDL
MODEL 4
REMARK VINA RESULT:      -6.4      2.146      4.836
REMARK  Name = 
REMARK  16 active torsions:
REMARK  status: ('A' for Active; 'I' for Inactive)
REMARK    1  A    between atoms: C_1  and  C_2
REMARK    2  A    between atoms: C_2  and  C_3
REMARK    3  A    between atoms: C_2  and  C_4
REMARK    4  A    between atoms: C_4  and  N_5
REMARK    5  A    between atoms: N_5  and  C_6
REMARK    6  A    between atoms: N_5  and  S_29
REMARK    7  A    between atoms: C_6  and  C_7
REMARK    8  A    between atoms: C_7  and  C_9
REMARK    9  A    between atoms: C_7  and  O_28
REMARK   10  A    between atoms: C_9  and  C_11
REMARK   11  A    between atoms: C_9  and  N_18
REMARK   12  A    between atoms: C_11  and  C_12
REMARK   13  A    between atoms: C_19  and  O_21
REMARK   14  A    between atoms: O_21  and  C_22
REMARK   15  A    between atoms: S_29  and  C_32
REMARK   16  A    between atoms: C_35  and  N_38
REMARK                            x       y       z     vdW  Elec       q    Type
REMARK                         _______ _______ _______ _____ _____    ______ ____
ROOT
ATOM      1  C   UNL     1       9.161  -4.745  25.057  0.00  0.00    +0.151 C 
ENDROOT
BRANCH   1   2
ATOM      2  O   UNL     1      10.474  -5.324  25.179  0.00  0.00    -0.389 OA
ATOM      3  H   UNL     1      11.129  -4.621  25.027  0.00  0.00    +0.210 HD
ENDBRANCH   1   2
BRANCH   1   4
ATOM      4  C   UNL     1       8.237  -5.361  26.133  0.00  0.00    +0.142 C 
BRANCH   4   5
ATOM      5  N   UNL     1       6.806  -5.843  25.762  0.00  0.00    -0.174 NA
BRANCH   5   6
ATOM      6  S   UNL     1       5.822  -5.728  27.207  0.00  0.00    +0.061 S 
ATOM      7  O   UNL     1       6.496  -4.833  28.124  0.00  0.00    -0.153 OA
ATOM      8  O   UNL     1       5.472  -7.063  27.633  0.00  0.00    -0.153 OA
BRANCH   6   9
ATOM      9  C   UNL     1       4.329  -4.910  26.665  0.00  0.00    +0.106 A 
ATOM     10  C   UNL     1       4.280  -3.516  26.514  0.00  0.00    +0.030 A 
ATOM     11  C   UNL     1       3.113  -2.906  26.033  0.00  0.00    +0.024 A 
ATOM     12  C   UNL     1       1.991  -3.670  25.685  0.00  0.00    +0.025 A 
ATOM     13  C   UNL     1       2.009  -5.037  25.970  0.00  0.00    +0.024 A 
ATOM     14  C   UNL     1       3.167  -5.649  26.460  0.00  0.00    +0.030 A 
BRANCH  12  15
ATOM     15  N   UNL     1       0.793  -3.061  25.298  0.00  0.00    -0.358 N 
ATOM     16  H   UNL     1       0.786  -2.707  24.347  0.00  0.00    +0.142 HD
ATOM     17  H   UNL     1      -0.039  -3.605  25.508  0.00  0.00    +0.142 HD
ENDBRANCH  12  15
ENDBRANCH   6   9
ENDBRANCH   5   6
BRANCH   5  18
ATOM     18  C   UNL     1       6.282  -5.232  24.475  0.00  0.00    +0.112 C 
BRANCH  18  20
ATOM     19  C   UNL     1       4.176  -5.733  22.941  0.00  0.00    +0.008 C 
ATOM     20  C   UNL     1       5.632  -6.015  23.288  0.00  0.00    -0.001 C 
ATOM     21  C   UNL     1       6.429  -6.232  22.000  0.00  0.00    +0.008 C 
ENDBRANCH  18  20
ENDBRANCH   5  18
ENDBRANCH   4   5
ENDBRANCH   1   4
BRANCH   1  22
ATOM     22  C   UNL     1       9.245  -3.200  25.057  0.00  0.00    +0.110 C 
BRANCH  22  23
ATOM     23  N   UNL     1       8.162  -2.422  25.737  0.00  0.00    -0.275 N 
ATOM     24  H   UNL     1       7.243  -2.565  25.332  0.00  0.00    +0.152 HD
ATOM     25  C   UNL     1       8.095  -1.387  26.628  0.00  0.00    +0.401 C 
ATOM     26  O   UNL     1       9.030  -0.823  27.170  0.00  0.00    -0.226 OA
BRANCH  25  27
ATOM     27  O   UNL     1       6.778  -1.041  26.756  0.00  0.00    -0.445 OA
BRANCH  27  28
ATOM     28  C   UNL     1       6.239   0.246  26.350  0.00  0.00    +0.206 C 
ATOM     29  C   UNL     1       4.728   0.449  26.377  0.00  0.00    +0.204 C 
ATOM     30  O   UNL     1       4.398   1.391  25.326  0.00  0.00    -0.376 OA
ATOM     31  C   UNL     1       5.535   1.531  24.461  0.00  0.00    +0.163 C 
ATOM     32  C   UNL     1       6.500   0.431  24.858  0.00  0.00    +0.075 C 
ENDBRANCH  27  28
ENDBRANCH  25  27
ENDBRANCH  22  23
BRANCH  22  33
ATOM     33  C   UNL     1       9.896  -2.569  23.772  0.00  0.00    +0.060 C 
BRANCH  33  34
ATOM     34  C   UNL     1       9.798  -1.120  23.289  0.00  0.00    -0.046 A 
ATOM     35  C   UNL     1       9.280  -0.870  21.992  0.00  0.00    +0.004 A 
ATOM     36  C   UNL     1       9.336   0.399  21.406  0.00  0.00    +0.000 A 
ATOM     37  C   UNL     1       9.912   1.455  22.099  0.00  0.00    +0.000 A 
ATOM     38  C   UNL     1      10.415   1.233  23.380  0.00  0.00    +0.000 A 
ATOM     39  C   UNL     1      10.354  -0.046  23.965  0.00  0.00    +0.004 A 
ENDBRANCH  33  34
ENDBRANCH  22  33
ENDBRANCH   1  22
TORSDOF 14
ENDMDL
MODEL 5
REMARK VINA RESULT:      -6.4      2.589      5.965
REMARK  Name = 
REMARK  16 active torsions:
REMARK  status: ('A' for Active; 'I' for Inactive)
REMARK    1  A    between atoms: C_1  and  C_2
REMARK    2  A    between atoms: C_2  and  C_3
REMARK    3  A    between atoms: C_2  and  C_4
REMARK    4  A    between atoms: C_4  and  N_5
REMARK    5  A    between atoms: N_5  and  C_6
REMARK    6  A    between atoms: N_5  and  S_29
REMARK    7  A    between atoms: C_6  and  C_7
REMARK    8  A    between atoms: C_7  and  C_9
REMARK    9  A    between atoms: C_7  and  O_28
REMARK   10  A    between atoms: C_9  and  C_11
REMARK   11  A    between atoms: C_9  and  N_18
REMARK   12  A    between atoms: C_11  and  C_12
REMARK   13  A    between atoms: C_19  and  O_21
REMARK   14  A    between atoms: O_21  and  C_22
REMARK   15  A    between atoms: S_29  and  C_32
REMARK   16  A    between atoms: C_35  and  N_38
REMARK                            x       y       z     vdW  Elec       q    Type
REMARK                         _______ _______ _______ _____ _____    ______ ____
ROOT
ATOM      1  C   UNL     1       9.402  -1.593  22.633  0.00  0.00    +0.151 C 
ENDROOT
BRANCH   1   2
ATOM      2  O   UNL     1      10.536  -1.845  21.783  0.00  0.00    -0.389 OA
ATOM      3  H   UNL     1      10.731  -1.029  21.289  0.00  0.00    +0.210 HD
ENDBRANCH   1   2
BRANCH   1   4
ATOM      4  C   UNL     1       9.739  -2.045  24.072  0.00  0.00    +0.142 C 
BRANCH   4   5
ATOM      5  N   UNL     1       8.612  -2.496  25.043  0.00  0.00    -0.174 NA
BRANCH   5   6
ATOM      6  S   UNL     1       8.773  -4.225  25.269  0.00  0.00    +0.061 S 
ATOM      7  O   UNL     1       8.685  -4.490  26.691  0.00  0.00    -0.153 OA
ATOM      8  O   UNL     1       9.922  -4.682  24.523  0.00  0.00    -0.153 OA
BRANCH   6   9
ATOM      9  C   UNL     1       7.309  -4.913  24.509  0.00  0.00    +0.106 A 
ATOM     10  C   UNL     1       7.314  -5.322  23.168  0.00  0.00    +0.030 A 
ATOM     11  C   UNL     1       6.169  -5.911  22.613  0.00  0.00    +0.024 A 
ATOM     12  C   UNL     1       5.017  -6.111  23.383  0.00  0.00    +0.025 A 
ATOM     13  C   UNL     1       4.983  -5.575  24.672  0.00  0.00    +0.024 A 
ATOM     14  C   UNL     1       6.118  -4.978  25.227  0.00  0.00    +0.030 A 
BRANCH  12  15
ATOM     15  N   UNL     1       3.841  -6.608  22.811  0.00  0.00    -0.358 N 
ATOM     16  H   UNL     1       3.357  -7.300  23.373  0.00  0.00    +0.142 HD
ATOM     17  H   UNL     1       3.211  -5.892  22.462  0.00  0.00    +0.142 HD
ENDBRANCH  12  15
ENDBRANCH   6   9
ENDBRANCH   5   6
BRANCH   5  18
ATOM     18  C   UNL     1       8.489  -1.610  26.270  0.00  0.00    +0.112 C 
BRANCH  18  20
ATOM     19  C   UNL     1       5.935  -1.578  26.988  0.00  0.00    +0.008 C 
ATOM     20  C   UNL     1       7.216  -0.808  26.697  0.00  0.00    -0.001 C 
ATOM     21  C   UNL     1       7.350   0.348  27.689  0.00  0.00    +0.008 C 
ENDBRANCH  18  20
ENDBRANCH   5  18
ENDBRANCH   4   5
ENDBRANCH   1   4
BRANCH   1  22
ATOM     22  C   UNL     1       8.930  -0.126  22.490  0.00  0.00    +0.110 C 
BRANCH  22  23
ATOM     23  N   UNL     1       9.856   0.972  22.914  0.00  0.00    -0.275 N 
ATOM     24  H   UNL     1      10.502   1.261  22.188  0.00  0.00    +0.152 HD
ATOM     25  C   UNL     1      10.228   1.553  24.094  0.00  0.00    +0.401 C 
ATOM     26  O   UNL     1       9.796   1.301  25.206  0.00  0.00    -0.226 OA
BRANCH  25  27
ATOM     27  O   UNL     1      11.236   2.435  23.816  0.00  0.00    -0.445 OA
BRANCH  27  28
ATOM     28  C   UNL     1      11.022   3.746  23.228  0.00  0.00    +0.206 C 
ATOM     29  C   UNL     1      12.077   4.827  23.442  0.00  0.00    +0.204 C 
ATOM     30  O   UNL     1      11.392   6.104  23.452  0.00  0.00    -0.376 OA
ATOM     31  C   UNL     1       9.983   5.870  23.580  0.00  0.00    +0.163 C 
ATOM     32  C   UNL     1       9.833   4.401  23.925  0.00  0.00    +0.075 C 
ENDBRANCH  27  28
ENDBRANCH  25  27
ENDBRANCH  22  23
BRANCH  22  33
ATOM     33  C   UNL     1       7.388   0.103  22.703  0.00  0.00    +0.060 C 
BRANCH  33  34
ATOM     34  C   UNL     1       6.679   1.404  23.081  0.00  0.00    -0.046 A 
ATOM     35  C   UNL     1       6.728   2.493  22.173  0.00  0.00    +0.004 A 
ATOM     36  C   UNL     1       6.274   3.769  22.525  0.00  0.00    +0.000 A 
ATOM     37  C   UNL     1       5.759   3.994  23.794  0.00  0.00    +0.000 A 
ATOM     38  C   UNL     1       5.690   2.934  24.696  0.00  0.00    +0.000 A 
ATOM     39  C   UNL     1       6.147   1.651  24.336  0.00  0.00    +0.004 A 
ENDBRANCH  33  34
ENDBRANCH  22  33
ENDBRANCH   1  22
TORSDOF 14
ENDMDL
MODEL 6
REMARK VINA RESULT:      -6.4      2.204      5.524
REMARK  Name = 
REMARK  16 active torsions:
REMARK  status: ('A' for Active; 'I' for Inactive)
REMARK    1  A    between atoms: C_1  and  C_2
REMARK    2  A    between atoms: C_2  and  C_3
REMARK    3  A    between atoms: C_2  and  C_4
REMARK    4  A    between atoms: C_4  and  N_5
REMARK    5  A    between atoms: N_5  and  C_6
REMARK    6  A    between atoms: N_5  and  S_29
REMARK    7  A    between atoms: C_6  and  C_7
REMARK    8  A    between atoms: C_7  and  C_9
REMARK    9  A    between atoms: C_7  and  O_28
REMARK   10  A    between atoms: C_9  and  C_11
REMARK   11  A    between atoms: C_9  and  N_18
REMARK   12  A    between atoms: C_11  and  C_12
REMARK   13  A    between atoms: C_19  and  O_21
REMARK   14  A    between atoms: O_21  and  C_22
REMARK   15  A    between atoms: S_29  and  C_32
REMARK   16  A    between atoms: C_35  and  N_38
REMARK                            x       y       z     vdW  Elec       q    Type
REMARK                         _______ _______ _______ _____ _____    ______ ____
ROOT
ATOM      1  C   UNL     1       8.951  -4.557  24.686  0.00  0.00    +0.151 C 
ENDROOT
BRANCH   1   2
ATOM      2  O   UNL     1       9.990  -5.496  25.023  0.00  0.00    -0.389 OA
ATOM      3  H   UNL     1       9.923  -6.252  24.415  0.00  0.00    +0.210 HD
ENDBRANCH   1   2
BRANCH   1   4
ATOM      4  C   UNL     1       7.959  -5.231  23.710  0.00  0.00    +0.142 C 
BRANCH   4   5
ATOM      5  N   UNL     1       6.492  -4.728  23.603  0.00  0.00    -0.174 NA
BRANCH   5   6
ATOM      6  S   UNL     1       6.476  -3.395  22.467  0.00  0.00    +0.061 S 
ATOM      7  O   UNL     1       5.330  -3.574  21.599  0.00  0.00    -0.153 OA
ATOM      8  O   UNL     1       7.796  -3.261  21.895  0.00  0.00    -0.153 OA
BRANCH   6   9
ATOM      9  C   UNL     1       6.161  -1.953  23.475  0.00  0.00    +0.106 A 
ATOM     10  C   UNL     1       5.410  -2.045  24.656  0.00  0.00    +0.030 A 
ATOM     11  C   UNL     1       5.226  -0.910  25.457  0.00  0.00    +0.024 A 
ATOM     12  C   UNL     1       5.795   0.321  25.104  0.00  0.00    +0.025 A 
ATOM     13  C   UNL     1       6.421   0.426  23.860  0.00  0.00    +0.024 A 
ATOM     14  C   UNL     1       6.598  -0.701  23.053  0.00  0.00    +0.030 A 
BRANCH  12  15
ATOM     15  N   UNL     1       5.535   1.478  25.846  0.00  0.00    -0.358 N 
ATOM     16  H   UNL     1       4.622   1.501  26.288  0.00  0.00    +0.142 HD
ATOM     17  H   UNL     1       6.277   1.737  26.490  0.00  0.00    +0.142 HD
ENDBRANCH  12  15
ENDBRANCH   6   9
ENDBRANCH   5   6
BRANCH   5  18
ATOM     18  C   UNL     1       5.487  -5.850  23.421  0.00  0.00    +0.112 C 
BRANCH  18  20
ATOM     19  C   UNL     1       2.876  -5.374  23.425  0.00  0.00    +0.008 C 
ATOM     20  C   UNL     1       4.095  -5.956  24.128  0.00  0.00    -0.001 C 
ATOM     21  C   UNL     1       3.704  -7.256  24.833  0.00  0.00    +0.008 C 
ENDBRANCH  18  20
ENDBRANCH   5  18
ENDBRANCH   4   5
ENDBRANCH   1   4
BRANCH   1  22
ATOM     22  C   UNL     1       8.323  -3.958  25.967  0.00  0.00    +0.110 C 
BRANCH  22  23
ATOM     23  N   UNL     1       7.016  -4.508  26.450  0.00  0.00    -0.275 N 
ATOM     24  H   UNL     1       6.212  -3.971  26.145  0.00  0.00    +0.152 HD
ATOM     25  C   UNL     1       6.610  -5.421  27.382  0.00  0.00    +0.401 C 
ATOM     26  O   UNL     1       7.320  -6.114  28.092  0.00  0.00    -0.226 OA
BRANCH  25  27
ATOM     27  O   UNL     1       5.244  -5.374  27.433  0.00  0.00    -0.445 OA
BRANCH  27  28
ATOM     28  C   UNL     1       4.478  -4.138  27.444  0.00  0.00    +0.206 C 
ATOM     29  C   UNL     1       4.396  -3.339  28.740  0.00  0.00    +0.204 C 
ATOM     30  O   UNL     1       3.113  -2.663  28.751  0.00  0.00    -0.376 OA
ATOM     31  C   UNL     1       2.284  -3.234  27.730  0.00  0.00    +0.163 C 
ATOM     32  C   UNL     1       3.004  -4.482  27.256  0.00  0.00    +0.075 C 
ENDBRANCH  27  28
ENDBRANCH  25  27
ENDBRANCH  22  23
BRANCH  22  33
ATOM     33  C   UNL     1       8.592  -2.425  26.187  0.00  0.00    +0.060 C 
BRANCH  33  34
ATOM     34  C   UNL     1       9.374  -1.472  25.280  0.00  0.00    -0.046 A 
ATOM     35  C   UNL     1       9.466  -0.106  25.650  0.00  0.00    +0.004 A 
ATOM     36  C   UNL     1       9.994   0.859  24.784  0.00  0.00    +0.000 A 
ATOM     37  C   UNL     1      10.443   0.487  23.525  0.00  0.00    +0.000 A 
ATOM     38  C   UNL     1      10.372  -0.853  23.148  0.00  0.00    +0.000 A 
ATOM     39  C   UNL     1       9.842  -1.820  24.024  0.00  0.00    +0.004 A 
ENDBRANCH  33  34
ENDBRANCH  22  33
ENDBRANCH   1  22
TORSDOF 14
ENDMDL
MODEL 7
REMARK VINA RESULT:      -6.3      1.754      4.547
REMARK  Name = 
REMARK  16 active torsions:
REMARK  status: ('A' for Active; 'I' for Inactive)
REMARK    1  A    between atoms: C_1  and  C_2
REMARK    2  A    between atoms: C_2  and  C_3
REMARK    3  A    between atoms: C_2  and  C_4
REMARK    4  A    between atoms: C_4  and  N_5
REMARK    5  A    between atoms: N_5  and  C_6
REMARK    6  A    between atoms: N_5  and  S_29
REMARK    7  A    between atoms: C_6  and  C_7
REMARK    8  A    between atoms: C_7  and  C_9
REMARK    9  A    between atoms: C_7  and  O_28
REMARK   10  A    between atoms: C_9  and  C_11
REMARK   11  A    between atoms: C_9  and  N_18
REMARK   12  A    between atoms: C_11  and  C_12
REMARK   13  A    between atoms: C_19  and  O_21
REMARK   14  A    between atoms: O_21  and  C_22
REMARK   15  A    between atoms: S_29  and  C_32
REMARK   16  A    between atoms: C_35  and  N_38
REMARK                            x       y       z     vdW  Elec       q    Type
REMARK                         _______ _______ _______ _____ _____    ______ ____
ROOT
ATOM      1  C   UNL     1       8.791  -1.511  26.126  0.00  0.00    +0.151 C 
ENDROOT
BRANCH   1   2
ATOM      2  O   UNL     1       9.454  -0.233  26.146  0.00  0.00    -0.389 OA
ATOM      3  H   UNL     1       8.794   0.453  25.947  0.00  0.00    +0.210 HD
ENDBRANCH   1   2
BRANCH   1   4
ATOM      4  C   UNL     1       7.335  -1.332  26.615  0.00  0.00    +0.142 C 
BRANCH   4   5
ATOM      5  N   UNL     1       6.158  -1.316  25.600  0.00  0.00    -0.174 NA
BRANCH   5   6
ATOM      6  S   UNL     1       4.761  -1.998  26.407  0.00  0.00    +0.061 S 
ATOM      7  O   UNL     1       3.615  -1.179  26.065  0.00  0.00    -0.153 OA
ATOM      8  O   UNL     1       5.094  -2.224  27.794  0.00  0.00    -0.153 OA
BRANCH   6   9
ATOM      9  C   UNL     1       4.528  -3.589  25.627  0.00  0.00    +0.106 A 
ATOM     10  C   UNL     1       5.216  -4.725  26.078  0.00  0.00    +0.030 A 
ATOM     11  C   UNL     1       4.971  -5.971  25.485  0.00  0.00    +0.024 A 
ATOM     12  C   UNL     1       4.035  -6.106  24.452  0.00  0.00    +0.025 A 
ATOM     13  C   UNL     1       3.462  -4.947  23.924  0.00  0.00    +0.024 A 
ATOM     14  C   UNL     1       3.710  -3.700  24.505  0.00  0.00    +0.030 A 
BRANCH  12  15
ATOM     15  N   UNL     1       3.857  -7.326  23.791  0.00  0.00    -0.358 N 
ATOM     16  H   UNL     1       4.297  -7.381  22.878  0.00  0.00    +0.142 HD
ATOM     17  H   UNL     1       4.056  -8.143  24.360  0.00  0.00    +0.142 HD
ENDBRANCH  12  15
ENDBRANCH   6   9
ENDBRANCH   5   6
BRANCH   5  18
ATOM     18  C   UNL     1       6.006   0.011  24.880  0.00  0.00    +0.112 C 
BRANCH  18  20
ATOM     19  C   UNL     1       7.046   2.262  25.826  0.00  0.00    +0.008 C 
ATOM     20  C   UNL     1       5.815   1.406  25.561  0.00  0.00    -0.001 C 
ATOM     21  C   UNL     1       4.655   2.304  25.129  0.00  0.00    +0.008 C 
ENDBRANCH  18  20
ENDBRANCH   5  18
ENDBRANCH   4   5
ENDBRANCH   1   4
BRANCH   1  22
ATOM     22  C   UNL     1       8.951  -2.186  24.743  0.00  0.00    +0.110 C 
BRANCH  22  23
ATOM     23  N   UNL     1       8.949  -1.323  23.519  0.00  0.00    -0.275 N 
ATOM     24  H   UNL     1       8.062  -0.862  23.348  0.00  0.00    +0.152 HD
ATOM     25  C   UNL     1       9.754  -1.151  22.428  0.00  0.00    +0.401 C 
ATOM     26  O   UNL     1      10.816  -1.705  22.202  0.00  0.00    -0.226 OA
BRANCH  25  27
ATOM     27  O   UNL     1       9.118  -0.283  21.583  0.00  0.00    -0.445 OA
BRANCH  27  28
ATOM     28  C   UNL     1       9.244   1.162  21.664  0.00  0.00    +0.206 C 
ATOM     29  C   UNL     1       9.993   1.767  22.846  0.00  0.00    +0.204 C 
ATOM     30  O   UNL     1       9.399   3.061  23.119  0.00  0.00    -0.376 OA
ATOM     31  C   UNL     1       8.153   3.153  22.413  0.00  0.00    +0.163 C 
ATOM     32  C   UNL     1       7.859   1.756  21.901  0.00  0.00    +0.075 C 
ENDBRANCH  27  28
ENDBRANCH  25  27
ENDBRANCH  22  23
BRANCH  22  33
ATOM     33  C   UNL     1       8.314  -3.619  24.623  0.00  0.00    +0.060 C 
BRANCH  33  34
ATOM     34  C   UNL     1       7.679  -4.259  23.387  0.00  0.00    -0.046 A 
ATOM     35  C   UNL     1       6.800  -3.478  22.593  0.00  0.00    +0.004 A 
ATOM     36  C   UNL     1       6.034  -4.041  21.566  0.00  0.00    +0.000 A 
ATOM     37  C   UNL     1       6.123  -5.401  21.304  0.00  0.00    +0.000 A 
ATOM     38  C   UNL     1       6.990  -6.184  22.065  0.00  0.00    +0.000 A 
ATOM     39  C   UNL     1       7.760  -5.611  23.095  0.00  0.00    +0.004 A 
ENDBRANCH  33  34
ENDBRANCH  22  33
ENDBRANCH   1  22
TORSDOF 14
ENDMDL
MODEL 8
REMARK VINA RESULT:      -6.3      2.492      6.668
REMARK  Name = 
REMARK  16 active torsions:
REMARK  status: ('A' for Active; 'I' for Inactive)
REMARK    1  A    between atoms: C_1  and  C_2
REMARK    2  A    between atoms: C_2  and  C_3
REMARK    3  A    between atoms: C_2  and  C_4
REMARK    4  A    between atoms: C_4  and  N_5
REMARK    5  A    between atoms: N_5  and  C_6
REMARK    6  A    between atoms: N_5  and  S_29
REMARK    7  A    between atoms: C_6  and  C_7
REMARK    8  A    between atoms: C_7  and  C_9
REMARK    9  A    between atoms: C_7  and  O_28
REMARK   10  A    between atoms: C_9  and  C_11
REMARK   11  A    between atoms: C_9  and  N_18
REMARK   12  A    between atoms: C_11  and  C_12
REMARK   13  A    between atoms: C_19  and  O_21
REMARK   14  A    between atoms: O_21  and  C_22
REMARK   15  A    between atoms: S_29  and  C_32
REMARK   16  A    between atoms: C_35  and  N_38
REMARK                            x       y       z     vdW  Elec       q    Type
REMARK                         _______ _______ _______ _____ _____    ______ ____
ROOT
ATOM      1  C   UNL     1       8.262  -4.184  26.622  0.00  0.00    +0.151 C 
ENDROOT
BRANCH   1   2
ATOM      2  O   UNL     1       9.363  -4.936  27.167  0.00  0.00    -0.389 OA
ATOM      3  H   UNL     1       9.273  -4.945  28.136  0.00  0.00    +0.210 HD
ENDBRANCH   1   2
BRANCH   1   4
ATOM      4  C   UNL     1       8.602  -3.771  25.172  0.00  0.00    +0.142 C 
BRANCH   4   5
ATOM      5  N   UNL     1       8.431  -2.297  24.710  0.00  0.00    -0.174 NA
BRANCH   5   6
ATOM      6  S   UNL     1       9.330  -2.106  23.219  0.00  0.00    +0.061 S 
ATOM      7  O   UNL     1       8.417  -2.357  22.123  0.00  0.00    -0.153 OA
ATOM      8  O   UNL     1      10.556  -2.863  23.321  0.00  0.00    -0.153 OA
BRANCH   6   9
ATOM      9  C   UNL     1       9.753  -0.370  23.173  0.00  0.00    +0.106 A 
ATOM     10  C   UNL     1       9.710   0.354  21.973  0.00  0.00    +0.030 A 
ATOM     11  C   UNL     1       9.992   1.727  21.975  0.00  0.00    +0.024 A 
ATOM     12  C   UNL     1      10.305   2.396  23.165  0.00  0.00    +0.025 A 
ATOM     13  C   UNL     1      10.478   1.637  24.324  0.00  0.00    +0.024 A 
ATOM     14  C   UNL     1      10.208   0.265  24.325  0.00  0.00    +0.030 A 
BRANCH  12  15
ATOM     15  N   UNL     1      10.682   3.743  23.161  0.00  0.00    -0.358 N 
ATOM     16  H   UNL     1      11.649   3.913  23.418  0.00  0.00    +0.142 HD
ATOM     17  H   UNL     1      10.416   4.249  22.321  0.00  0.00    +0.142 HD
ENDBRANCH  12  15
ENDBRANCH   6   9
ENDBRANCH   5   6
BRANCH   5  18
ATOM     18  C   UNL     1       6.991  -1.817  24.758  0.00  0.00    +0.112 C 
BRANCH  18  20
ATOM     19  C   UNL     1       7.067   0.232  26.442  0.00  0.00    +0.008 C 
ATOM     20  C   UNL     1       6.517  -0.383  25.162  0.00  0.00    -0.001 C 
ATOM     21  C   UNL     1       6.391   0.700  24.089  0.00  0.00    +0.008 C 
ENDBRANCH  18  20
ENDBRANCH   5  18
ENDBRANCH   4   5
ENDBRANCH   1   4
BRANCH   1  22
ATOM     22  C   UNL     1       6.934  -4.958  26.801  0.00  0.00    +0.110 C 
BRANCH  22  23
ATOM     23  N   UNL     1       6.249  -5.499  25.584  0.00  0.00    -0.275 N 
ATOM     24  H   UNL     1       6.451  -4.978  24.738  0.00  0.00    +0.152 HD
ATOM     25  C   UNL     1       5.238  -6.383  25.327  0.00  0.00    +0.401 C 
ATOM     26  O   UNL     1       4.617  -7.047  26.140  0.00  0.00    -0.226 OA
BRANCH  25  27
ATOM     27  O   UNL     1       4.992  -6.343  23.982  0.00  0.00    -0.445 OA
BRANCH  27  28
ATOM     28  C   UNL     1       5.734  -5.513  23.049  0.00  0.00    +0.206 C 
ATOM     29  C   UNL     1       5.103  -4.214  22.560  0.00  0.00    +0.204 C 
ATOM     30  O   UNL     1       5.591  -3.973  21.217  0.00  0.00    -0.376 OA
ATOM     31  C   UNL     1       6.212  -5.172  20.731  0.00  0.00    +0.163 C 
ATOM     32  C   UNL     1       5.851  -6.261  21.724  0.00  0.00    +0.075 C 
ENDBRANCH  27  28
ENDBRANCH  25  27
ENDBRANCH  22  23
BRANCH  22  33
ATOM     33  C   UNL     1       6.025  -4.459  27.984  0.00  0.00    +0.060 C 
BRANCH  33  34
ATOM     34  C   UNL     1       4.634  -3.828  27.893  0.00  0.00    -0.046 A 
ATOM     35  C   UNL     1       3.523  -4.559  28.386  0.00  0.00    +0.004 A 
ATOM     36  C   UNL     1       2.206  -4.139  28.168  0.00  0.00    +0.000 A 
ATOM     37  C   UNL     1       1.962  -2.977  27.449  0.00  0.00    +0.000 A 
ATOM     38  C   UNL     1       3.041  -2.238  26.967  0.00  0.00    +0.000 A 
ATOM     39  C   UNL     1       4.364  -2.664  27.192  0.00  0.00    +0.004 A 
ENDBRANCH  33  34
ENDBRANCH  22  33
ENDBRANCH   1  22
TORSDOF 14
ENDMDL
MODEL 9
REMARK VINA RESULT:      -6.2      2.907      6.776
REMARK  Name = 
REMARK  16 active torsions:
REMARK  status: ('A' for Active; 'I' for Inactive)
REMARK    1  A    between atoms: C_1  and  C_2
REMARK    2  A    between atoms: C_2  and  C_3
REMARK    3  A    between atoms: C_2  and  C_4
REMARK    4  A    between atoms: C_4  and  N_5
REMARK    5  A    between atoms: N_5  and  C_6
REMARK    6  A    between atoms: N_5  and  S_29
REMARK    7  A    between atoms: C_6  and  C_7
REMARK    8  A    between atoms: C_7  and  C_9
REMARK    9  A    between atoms: C_7  and  O_28
REMARK   10  A    between atoms: C_9  and  C_11
REMARK   11  A    between atoms: C_9  and  N_18
REMARK   12  A    between atoms: C_11  and  C_12
REMARK   13  A    between atoms: C_19  and  O_21
REMARK   14  A    between atoms: O_21  and  C_22
REMARK   15  A    between atoms: S_29  and  C_32
REMARK   16  A    between atoms: C_35  and  N_38
REMARK                            x       y       z     vdW  Elec       q    Type
REMARK                         _______ _______ _______ _____ _____    ______ ____
ROOT
ATOM      1  C   UNL     1       8.762  -2.033  25.814  0.00  0.00    +0.151 C 
ENDROOT
BRANCH   1   2
ATOM      2  O   UNL     1       9.389  -2.184  24.526  0.00  0.00    -0.389 OA
ATOM      3  H   UNL     1       9.303  -3.114  24.256  0.00  0.00    +0.210 HD
ENDBRANCH   1   2
BRANCH   1   4
ATOM      4  C   UNL     1       8.680  -0.529  26.162  0.00  0.00    +0.142 C 
BRANCH   4   5
ATOM      5  N   UNL     1       8.546   0.536  25.038  0.00  0.00    -0.174 NA
BRANCH   5   6
ATOM      6  S   UNL     1       7.079   1.442  25.344  0.00  0.00    +0.061 S 
ATOM      7  O   UNL     1       7.156   1.953  26.698  0.00  0.00    -0.153 OA
ATOM      8  O   UNL     1       5.948   0.637  24.943  0.00  0.00    -0.153 OA
BRANCH   6   9
ATOM      9  C   UNL     1       7.182   2.843  24.240  0.00  0.00    +0.106 A 
ATOM     10  C   UNL     1       7.672   4.080  24.682  0.00  0.00    +0.030 A 
ATOM     11  C   UNL     1       7.794   5.146  23.781  0.00  0.00    +0.024 A 
ATOM     12  C   UNL     1       7.446   4.993  22.432  0.00  0.00    +0.025 A 
ATOM     13  C   UNL     1       6.834   3.801  22.040  0.00  0.00    +0.024 A 
ATOM     14  C   UNL     1       6.699   2.738  22.938  0.00  0.00    +0.030 A 
BRANCH  12  15
ATOM     15  N   UNL     1       7.474   6.078  21.550  0.00  0.00    -0.358 N 
ATOM     16  H   UNL     1       8.296   6.667  21.629  0.00  0.00    +0.142 HD
ATOM     17  H   UNL     1       7.269   5.837  20.584  0.00  0.00    +0.142 HD
ENDBRANCH  12  15
ENDBRANCH   6   9
ENDBRANCH   5   6
BRANCH   5  18
ATOM     18  C   UNL     1       9.833   1.299  24.781  0.00  0.00    +0.112 C 
BRANCH  18  20
ATOM     19  C   UNL     1       9.782   1.025  22.142  0.00  0.00    +0.008 C 
ATOM     20  C   UNL     1      10.435   1.632  23.376  0.00  0.00    -0.001 C 
ATOM     21  C   UNL     1      10.879   3.063  23.065  0.00  0.00    +0.008 C 
ENDBRANCH  18  20
ENDBRANCH   5  18
ENDBRANCH   4   5
ENDBRANCH   1   4
BRANCH   1  22
ATOM     22  C   UNL     1       7.420  -2.802  25.859  0.00  0.00    +0.110 C 
BRANCH  22  23
ATOM     23  N   UNL     1       7.323  -4.027  26.714  0.00  0.00    -0.275 N 
ATOM     24  H   UNL     1       6.955  -3.848  27.641  0.00  0.00    +0.152 HD
ATOM     25  C   UNL     1       7.802  -5.307  26.669  0.00  0.00    +0.401 C 
ATOM     26  O   UNL     1       8.469  -5.812  25.782  0.00  0.00    -0.226 OA
BRANCH  25  27
ATOM     27  O   UNL     1       7.457  -5.914  27.845  0.00  0.00    -0.445 OA
BRANCH  27  28
ATOM     28  C   UNL     1       6.143  -5.805  28.456  0.00  0.00    +0.206 C 
ATOM     29  C   UNL     1       5.924  -6.413  29.837  0.00  0.00    +0.204 C 
ATOM     30  O   UNL     1       4.539  -6.837  29.909  0.00  0.00    -0.376 OA
ATOM     31  C   UNL     1       3.987  -6.828  28.585  0.00  0.00    +0.163 C 
ATOM     32  C   UNL     1       5.161  -6.643  27.643  0.00  0.00    +0.075 C 
ENDBRANCH  27  28
ENDBRANCH  25  27
ENDBRANCH  22  23
BRANCH  22  33
ATOM     33  C   UNL     1       6.596  -2.784  24.519  0.00  0.00    +0.060 C 
BRANCH  33  34
ATOM     34  C   UNL     1       6.399  -3.932  23.527  0.00  0.00    -0.046 A 
ATOM     35  C   UNL     1       5.307  -4.817  23.721  0.00  0.00    +0.004 A 
ATOM     36  C   UNL     1       5.170  -5.994  22.977  0.00  0.00    +0.000 A 
ATOM     37  C   UNL     1       6.120  -6.322  22.020  0.00  0.00    +0.000 A 
ATOM     38  C   UNL     1       7.194  -5.459  21.806  0.00  0.00    +0.000 A 
ATOM     39  C   UNL     1       7.325  -4.274  22.556  0.00  0.00    +0.004 A 
ENDBRANCH  33  34
ENDBRANCH  22  33
ENDBRANCH   1  22
TORSDOF 14
ENDMDL
