MODEL 1
REMARK VINA RESULT:      -8.6      0.000      0.000
REMARK  Name = 
REMARK  11 active torsions:
REMARK  status: ('A' for Active; 'I' for Inactive)
REMARK    1  A    between atoms: C_1  and  C_2
REMARK    2  A    between atoms: C_5  and  C_7
REMARK    3  A    between atoms: N_9  and  C_10
REMARK    4  A    between atoms: C_10  and  C_11
REMARK    5  A    between atoms: C_10  and  C_12
REMARK    6  A    between atoms: C_10  and  C_13
REMARK    7  A    between atoms: C_15  and  C_22
REMARK    8  A    between atoms: C_16  and  O_21
REMARK    9  A    between atoms: N_19  and  C_20
REMARK   10  A    between atoms: N_24  and  C_25
REMARK   11  A    between atoms: C_25  and  C_26
REMARK                            x       y       z     vdW  Elec       q    Type
REMARK                         _______ _______ _______ _____ _____    ______ ____
ROOT
ATOM      1  C   UNL     1       5.512  -4.708  25.324  0.00  0.00    +0.045 A 
ATOM      2  N   UNL     1       5.718  -5.327  26.587  0.00  0.00    -0.310 N 
ATOM      3  C   UNL     1       4.675  -5.905  27.410  0.00  0.00    +0.152 C 
ATOM      4  C   UNL     1       6.992  -5.420  27.169  0.00  0.00    +0.294 A 
ATOM      5  O   UNL     1       7.245  -5.903  28.276  0.00  0.00    -0.264 OA
ATOM      6  C   UNL     1       8.164  -4.889  26.423  0.00  0.00    +0.194 A 
ATOM      7  C   UNL     1       7.975  -4.358  25.209  0.00  0.00    +0.085 A 
ATOM      8  C   UNL     1       6.625  -4.255  24.689  0.00  0.00    +0.040 A 
ENDROOT
BRANCH   7   9
ATOM      9  C   UNL     1       9.123  -3.777  24.424  0.00  0.00    +0.248 C 
ATOM     10  N   UNL     1       8.814  -2.706  23.625  0.00  0.00    -0.307 N 
ATOM     11  H   UNL     1       7.844  -2.413  23.576  0.00  0.00    +0.149 HD
ATOM     12  O   UNL     1      10.253  -4.244  24.527  0.00  0.00    -0.270 OA
BRANCH  10  13
ATOM     13  C   UNL     1       9.738  -2.102  22.699  0.00  0.00    +0.139 C 
BRANCH  13  14
ATOM     14  C   UNL     1       9.917  -0.634  22.984  0.00  0.00    -0.030 A 
ATOM     15  C   UNL     1      10.245  -0.182  24.272  0.00  0.00    +0.008 A 
ATOM     16  C   UNL     1      10.449   1.179  24.508  0.00  0.00    +0.038 A 
ATOM     17  C   UNL     1      10.329   2.083  23.458  0.00  0.00    +0.123 A 
ATOM     18  F   UNL     1      10.537   3.387  23.683  0.00  0.00    -0.205 F 
ATOM     19  C   UNL     1      10.006   1.654  22.177  0.00  0.00    +0.038 A 
ATOM     20  C   UNL     1       9.804   0.295  21.939  0.00  0.00    +0.008 A 
ENDBRANCH  13  14
ENDBRANCH  10  13
ENDBRANCH   7   9
BRANCH   1  21
ATOM     21  C   UNL     1       4.115  -4.461  24.577  0.00  0.00    +0.070 C 
ATOM     22  C   UNL     1       3.357  -3.350  25.350  0.00  0.00    +0.038 C 
ATOM     23  C   UNL     1       4.416  -3.986  23.133  0.00  0.00    +0.038 C 
BRANCH  21  25
ATOM     24  C   UNL     1       3.600  -6.939  24.156  0.00  0.00    +0.301 C 
ATOM     25  N   UNL     1       3.233  -5.637  24.492  0.00  0.00    -0.297 N 
ATOM     26  H   UNL     1       2.301  -5.600  24.855  0.00  0.00    +0.150 HD
ATOM     27  O   UNL     1       4.749  -7.261  23.869  0.00  0.00    -0.265 OA
BRANCH  24  31
ATOM     28  C   UNL     1       0.846 -10.679  25.559  0.00  0.00    +0.111 C 
ATOM     29  C   UNL     1       1.252  -9.503  24.772  0.00  0.00    +0.215 A 
ATOM     30  O   UNL     1       2.432  -8.891  25.113  0.00  0.00    -0.417 OA
ATOM     31  C   UNL     1       2.486  -7.875  24.194  0.00  0.00    +0.304 A 
ATOM     32  N   UNL     1       1.443  -7.859  23.381  0.00  0.00    -0.102 NA
ATOM     33  N   UNL     1       0.649  -8.919  23.757  0.00  0.00    -0.112 NA
ENDBRANCH  24  31
ENDBRANCH  21  25
ENDBRANCH   1  21
BRANCH   6  34
ATOM     34  O   UNL     1       9.394  -4.955  27.063  0.00  0.00    -0.502 OA
ATOM     35  H   UNL     1       9.662  -4.014  27.171  0.00  0.00    +0.292 HD
ENDBRANCH   6  34
TORSDOF 7
ENDMDL
MODEL 2
REMARK VINA RESULT:      -7.7      2.018      3.019
REMARK  Name = 
REMARK  11 active torsions:
REMARK  status: ('A' for Active; 'I' for Inactive)
REMARK    1  A    between atoms: C_1  and  C_2
REMARK    2  A    between atoms: C_5  and  C_7
REMARK    3  A    between atoms: N_9  and  C_10
REMARK    4  A    between atoms: C_10  and  C_11
REMARK    5  A    between atoms: C_10  and  C_12
REMARK    6  A    between atoms: C_10  and  C_13
REMARK    7  A    between atoms: C_15  and  C_22
REMARK    8  A    between atoms: C_16  and  O_21
REMARK    9  A    between atoms: N_19  and  C_20
REMARK   10  A    between atoms: N_24  and  C_25
REMARK   11  A    between atoms: C_25  and  C_26
REMARK                            x       y       z     vdW  Elec       q    Type
REMARK                         _______ _______ _______ _____ _____    ______ ____
ROOT
ATOM      1  C   UNL     1       6.740  -3.533  25.065  0.00  0.00    +0.045 A 
ATOM      2  N   UNL     1       7.864  -4.362  25.334  0.00  0.00    -0.310 N 
ATOM      3  C   UNL     1       7.858  -5.513  26.214  0.00  0.00    +0.152 C 
ATOM      4  C   UNL     1       9.120  -4.118  24.758  0.00  0.00    +0.294 A 
ATOM      5  O   UNL     1      10.150  -4.764  24.972  0.00  0.00    -0.264 OA
ATOM      6  C   UNL     1       9.268  -2.981  23.810  0.00  0.00    +0.194 A 
ATOM      7  C   UNL     1       8.196  -2.237  23.516  0.00  0.00    +0.085 A 
ATOM      8  C   UNL     1       6.939  -2.520  24.181  0.00  0.00    +0.040 A 
ENDROOT
BRANCH   7   9
ATOM      9  C   UNL     1       8.297  -1.054  22.586  0.00  0.00    +0.248 C 
ATOM     10  N   UNL     1       7.687   0.095  23.019  0.00  0.00    -0.307 N 
ATOM     11  H   UNL     1       7.174   0.061  23.894  0.00  0.00    +0.149 HD
ATOM     12  O   UNL     1       8.908  -1.141  21.525  0.00  0.00    -0.270 OA
BRANCH  10  13
ATOM     13  C   UNL     1       7.556   1.286  22.218  0.00  0.00    +0.139 C 
BRANCH  13  14
ATOM     14  C   UNL     1       8.459   2.382  22.717  0.00  0.00    -0.030 A 
ATOM     15  C   UNL     1       7.934   3.604  23.167  0.00  0.00    +0.008 A 
ATOM     16  C   UNL     1       8.785   4.593  23.666  0.00  0.00    +0.038 A 
ATOM     17  C   UNL     1      10.154   4.358  23.718  0.00  0.00    +0.123 A 
ATOM     18  F   UNL     1      10.968   5.302  24.209  0.00  0.00    -0.205 F 
ATOM     19  C   UNL     1      10.692   3.154  23.278  0.00  0.00    +0.038 A 
ATOM     20  C   UNL     1       9.844   2.165  22.781  0.00  0.00    +0.008 A 
ENDBRANCH  13  14
ENDBRANCH  10  13
ENDBRANCH   7   9
BRANCH   1  21
ATOM     21  C   UNL     1       5.274  -3.643  25.705  0.00  0.00    +0.070 C 
ATOM     22  C   UNL     1       5.432  -3.619  27.248  0.00  0.00    +0.038 C 
ATOM     23  C   UNL     1       4.450  -2.416  25.241  0.00  0.00    +0.038 C 
BRANCH  21  25
ATOM     24  C   UNL     1       4.066  -5.216  24.078  0.00  0.00    +0.301 C 
ATOM     25  N   UNL     1       4.522  -4.856  25.345  0.00  0.00    -0.297 N 
ATOM     26  H   UNL     1       4.439  -5.614  25.994  0.00  0.00    +0.150 HD
ATOM     27  O   UNL     1       4.239  -4.523  23.079  0.00  0.00    -0.265 OA
BRANCH  24  31
ATOM     28  C   UNL     1       0.848  -8.635  22.855  0.00  0.00    +0.111 C 
ATOM     29  C   UNL     1       1.987  -8.022  23.557  0.00  0.00    +0.215 A 
ATOM     30  O   UNL     1       2.309  -6.728  23.232  0.00  0.00    -0.417 OA
ATOM     31  C   UNL     1       3.378  -6.498  24.059  0.00  0.00    +0.304 A 
ATOM     32  N   UNL     1       3.686  -7.545  24.806  0.00  0.00    -0.102 NA
ATOM     33  N   UNL     1       2.779  -8.528  24.480  0.00  0.00    -0.112 NA
ENDBRANCH  24  31
ENDBRANCH  21  25
ENDBRANCH   1  21
BRANCH   6  34
ATOM     34  O   UNL     1      10.542  -2.747  23.310  0.00  0.00    -0.502 OA
ATOM     35  H   UNL     1      10.534  -1.795  23.060  0.00  0.00    +0.292 HD
ENDBRANCH   6  34
TORSDOF 7
ENDMDL
MODEL 3
REMARK VINA RESULT:      -7.6      1.871      2.409
REMARK  Name = 
REMARK  11 active torsions:
REMARK  status: ('A' for Active; 'I' for Inactive)
REMARK    1  A    between atoms: C_1  and  C_2
REMARK    2  A    between atoms: C_5  and  C_7
REMARK    3  A    between atoms: N_9  and  C_10
REMARK    4  A    between atoms: C_10  and  C_11
REMARK    5  A    between atoms: C_10  and  C_12
REMARK    6  A    between atoms: C_10  and  C_13
REMARK    7  A    between atoms: C_15  and  C_22
REMARK    8  A    between atoms: C_16  and  O_21
REMARK    9  A    between atoms: N_19  and  C_20
REMARK   10  A    between atoms: N_24  and  C_25
REMARK   11  A    between atoms: C_25  and  C_26
REMARK                            x       y       z     vdW  Elec       q    Type
REMARK                         _______ _______ _______ _____ _____    ______ ____
ROOT
ATOM      1  C   UNL     1       6.896  -4.868  23.804  0.00  0.00    +0.045 A 
ATOM      2  N   UNL     1       6.625  -5.077  25.184  0.00  0.00    -0.310 N 
ATOM      3  C   UNL     1       5.648  -6.009  25.708  0.00  0.00    +0.152 C 
ATOM      4  C   UNL     1       7.297  -4.363  26.188  0.00  0.00    +0.294 A 
ATOM      5  O   UNL     1       7.090  -4.457  27.401  0.00  0.00    -0.264 OA
ATOM      6  C   UNL     1       8.348  -3.387  25.796  0.00  0.00    +0.194 A 
ATOM      7  C   UNL     1       8.641  -3.233  24.499  0.00  0.00    +0.085 A 
ATOM      8  C   UNL     1       7.876  -3.972  23.513  0.00  0.00    +0.040 A 
ENDROOT
BRANCH   7   9
ATOM      9  C   UNL     1       9.675  -2.235  24.045  0.00  0.00    +0.248 C 
ATOM     10  N   UNL     1       9.639  -1.017  24.673  0.00  0.00    -0.307 N 
ATOM     11  H   UNL     1       8.903  -0.852  25.351  0.00  0.00    +0.149 HD
ATOM     12  O   UNL     1      10.494  -2.530  23.179  0.00  0.00    -0.270 OA
BRANCH  10  13
ATOM     13  C   UNL     1      10.452   0.110  24.287  0.00  0.00    +0.139 C 
BRANCH  13  14
ATOM     14  C   UNL     1       9.630   1.168  23.601  0.00  0.00    -0.030 A 
ATOM     15  C   UNL     1       9.161   0.983  22.290  0.00  0.00    +0.008 A 
ATOM     16  C   UNL     1       8.364   1.958  21.685  0.00  0.00    +0.038 A 
ATOM     17  C   UNL     1       8.034   3.109  22.391  0.00  0.00    +0.123 A 
ATOM     18  F   UNL     1       7.259   4.037  21.815  0.00  0.00    -0.205 F 
ATOM     19  C   UNL     1       8.487   3.308  23.689  0.00  0.00    +0.038 A 
ATOM     20  C   UNL     1       9.282   2.336  24.295  0.00  0.00    +0.008 A 
ENDBRANCH  13  14
ENDBRANCH  10  13
ENDBRANCH   7   9
BRANCH   1  21
ATOM     21  C   UNL     1       6.159  -5.549  22.553  0.00  0.00    +0.070 C 
ATOM     22  C   UNL     1       5.771  -4.419  21.563  0.00  0.00    +0.038 C 
ATOM     23  C   UNL     1       7.156  -6.523  21.876  0.00  0.00    +0.038 C 
BRANCH  21  25
ATOM     24  C   UNL     1       3.668  -5.783  23.122  0.00  0.00    +0.301 C 
ATOM     25  N   UNL     1       4.938  -6.304  22.879  0.00  0.00    -0.297 N 
ATOM     26  H   UNL     1       4.912  -7.299  22.771  0.00  0.00    +0.150 HD
ATOM     27  O   UNL     1       3.419  -4.582  23.103  0.00  0.00    -0.265 OA
BRANCH  24  31
ATOM     28  C   UNL     1       1.577  -9.696  25.087  0.00  0.00    +0.111 C 
ATOM     29  C   UNL     1       1.720  -8.516  24.218  0.00  0.00    +0.215 A 
ATOM     30  O   UNL     1       2.883  -7.796  24.316  0.00  0.00    -0.417 OA
ATOM     31  C   UNL     1       2.670  -6.809  23.388  0.00  0.00    +0.304 A 
ATOM     32  N   UNL     1       1.494  -6.908  22.791  0.00  0.00    -0.102 NA
ATOM     33  N   UNL     1       0.884  -8.019  23.330  0.00  0.00    -0.112 NA
ENDBRANCH  24  31
ENDBRANCH  21  25
ENDBRANCH   1  21
BRANCH   6  34
ATOM     34  O   UNL     1       8.945  -2.666  26.821  0.00  0.00    -0.502 OA
ATOM     35  H   UNL     1       8.472  -2.960  27.632  0.00  0.00    +0.292 HD
ENDBRANCH   6  34
TORSDOF 7
ENDMDL
MODEL 4
REMARK VINA RESULT:      -7.6      3.282      4.960
REMARK  Name = 
REMARK  11 active torsions:
REMARK  status: ('A' for Active; 'I' for Inactive)
REMARK    1  A    between atoms: C_1  and  C_2
REMARK    2  A    between atoms: C_5  and  C_7
REMARK    3  A    between atoms: N_9  and  C_10
REMARK    4  A    between atoms: C_10  and  C_11
REMARK    5  A    between atoms: C_10  and  C_12
REMARK    6  A    between atoms: C_10  and  C_13
REMARK    7  A    between atoms: C_15  and  C_22
REMARK    8  A    between atoms: C_16  and  O_21
REMARK    9  A    between atoms: N_19  and  C_20
REMARK   10  A    between atoms: N_24  and  C_25
REMARK   11  A    between atoms: C_25  and  C_26
REMARK                            x       y       z     vdW  Elec       q    Type
REMARK                         _______ _______ _______ _____ _____    ______ ____
ROOT
ATOM      1  C   UNL     1       6.946  -2.921  24.114  0.00  0.00    +0.045 A 
ATOM      2  N   UNL     1       8.256  -3.470  24.048  0.00  0.00    -0.310 N 
ATOM      3  C   UNL     1       8.584  -4.866  24.252  0.00  0.00    +0.152 C 
ATOM      4  C   UNL     1       9.381  -2.674  23.784  0.00  0.00    +0.294 A 
ATOM      5  O   UNL     1      10.551  -3.067  23.752  0.00  0.00    -0.264 OA
ATOM      6  C   UNL     1       9.191  -1.221  23.528  0.00  0.00    +0.194 A 
ATOM      7  C   UNL     1       7.951  -0.717  23.534  0.00  0.00    +0.085 A 
ATOM      8  C   UNL     1       6.839  -1.590  23.858  0.00  0.00    +0.040 A 
ENDROOT
BRANCH   7   9
ATOM      9  C   UNL     1       7.705   0.753  23.311  0.00  0.00    +0.248 C 
ATOM     10  N   UNL     1       8.251   1.594  24.247  0.00  0.00    -0.307 N 
ATOM     11  H   UNL     1       8.731   1.179  25.039  0.00  0.00    +0.149 HD
ATOM     12  O   UNL     1       7.067   1.142  22.338  0.00  0.00    -0.270 OA
BRANCH  10  13
ATOM     13  C   UNL     1       8.014   3.015  24.285  0.00  0.00    +0.139 C 
BRANCH  13  14
ATOM     14  C   UNL     1       9.279   3.788  24.024  0.00  0.00    -0.030 A 
ATOM     15  C   UNL     1      10.452   3.138  23.609  0.00  0.00    +0.008 A 
ATOM     16  C   UNL     1      11.604   3.877  23.330  0.00  0.00    +0.038 A 
ATOM     17  C   UNL     1      11.580   5.260  23.463  0.00  0.00    +0.123 A 
ATOM     18  F   UNL     1      12.682   5.969  23.184  0.00  0.00    -0.205 F 
ATOM     19  C   UNL     1      10.429   5.922  23.872  0.00  0.00    +0.038 A 
ATOM     20  C   UNL     1       9.277   5.186  24.148  0.00  0.00    +0.008 A 
ENDBRANCH  13  14
ENDBRANCH  10  13
ENDBRANCH   7   9
BRANCH   1  21
ATOM     21  C   UNL     1       5.586  -3.687  24.480  0.00  0.00    +0.070 C 
ATOM     22  C   UNL     1       4.482  -2.616  24.684  0.00  0.00    +0.038 C 
ATOM     23  C   UNL     1       5.214  -4.608  23.291  0.00  0.00    +0.038 C 
BRANCH  21  25
ATOM     24  C   UNL     1       6.201  -4.171  26.924  0.00  0.00    +0.301 C 
ATOM     25  N   UNL     1       5.642  -4.517  25.695  0.00  0.00    -0.297 N 
ATOM     26  H   UNL     1       5.100  -5.357  25.761  0.00  0.00    +0.150 HD
ATOM     27  O   UNL     1       6.745  -3.091  27.135  0.00  0.00    -0.265 OA
BRANCH  24  31
ATOM     28  C   UNL     1       4.248  -6.826  30.485  0.00  0.00    +0.111 C 
ATOM     29  C   UNL     1       5.247  -6.399  29.491  0.00  0.00    +0.215 A 
ATOM     30  O   UNL     1       4.934  -5.320  28.704  0.00  0.00    -0.417 OA
ATOM     31  C   UNL     1       6.062  -5.213  27.930  0.00  0.00    +0.304 A 
ATOM     32  N   UNL     1       6.966  -6.137  28.207  0.00  0.00    -0.102 NA
ATOM     33  N   UNL     1       6.435  -6.900  29.223  0.00  0.00    -0.112 NA
ENDBRANCH  24  31
ENDBRANCH  21  25
ENDBRANCH   1  21
BRANCH   6  34
ATOM     34  O   UNL     1      10.339  -0.467  23.326  0.00  0.00    -0.502 OA
ATOM     35  H   UNL     1      11.005  -0.872  23.926  0.00  0.00    +0.292 HD
ENDBRANCH   6  34
TORSDOF 7
ENDMDL
MODEL 5
REMARK VINA RESULT:      -7.5      3.520      5.852
REMARK  Name = 
REMARK  11 active torsions:
REMARK  status: ('A' for Active; 'I' for Inactive)
REMARK    1  A    between atoms: C_1  and  C_2
REMARK    2  A    between atoms: C_5  and  C_7
REMARK    3  A    between atoms: N_9  and  C_10
REMARK    4  A    between atoms: C_10  and  C_11
REMARK    5  A    between atoms: C_10  and  C_12
REMARK    6  A    between atoms: C_10  and  C_13
REMARK    7  A    between atoms: C_15  and  C_22
REMARK    8  A    between atoms: C_16  and  O_21
REMARK    9  A    between atoms: N_19  and  C_20
REMARK   10  A    between atoms: N_24  and  C_25
REMARK   11  A    between atoms: C_25  and  C_26
REMARK                            x       y       z     vdW  Elec       q    Type
REMARK                         _______ _______ _______ _____ _____    ______ ____
ROOT
ATOM      1  C   UNL     1       5.689  -3.181  26.754  0.00  0.00    +0.045 A 
ATOM      2  N   UNL     1       5.872  -4.339  27.559  0.00  0.00    -0.310 N 
ATOM      3  C   UNL     1       4.954  -4.795  28.581  0.00  0.00    +0.152 C 
ATOM      4  C   UNL     1       7.006  -5.157  27.433  0.00  0.00    +0.294 A 
ATOM      5  O   UNL     1       7.256  -6.151  28.120  0.00  0.00    -0.264 OA
ATOM      6  C   UNL     1       8.024  -4.823  26.402  0.00  0.00    +0.194 A 
ATOM      7  C   UNL     1       7.821  -3.765  25.608  0.00  0.00    +0.085 A 
ATOM      8  C   UNL     1       6.650  -2.938  25.823  0.00  0.00    +0.040 A 
ENDROOT
BRANCH   7   9
ATOM      9  C   UNL     1       8.837  -3.364  24.568  0.00  0.00    +0.248 C 
ATOM     10  N   UNL     1       8.517  -2.258  23.823  0.00  0.00    -0.307 N 
ATOM     11  H   UNL     1       7.616  -1.820  23.982  0.00  0.00    +0.149 HD
ATOM     12  O   UNL     1       9.879  -3.998  24.431  0.00  0.00    -0.270 OA
BRANCH  10  13
ATOM     13  C   UNL     1       9.289  -1.799  22.695  0.00  0.00    +0.139 C 
BRANCH  13  14
ATOM     14  C   UNL     1       9.727  -0.370  22.877  0.00  0.00    -0.030 A 
ATOM     15  C   UNL     1       9.767   0.519  21.791  0.00  0.00    +0.008 A 
ATOM     16  C   UNL     1      10.136   1.852  21.988  0.00  0.00    +0.038 A 
ATOM     17  C   UNL     1      10.457   2.293  23.266  0.00  0.00    +0.123 A 
ATOM     18  F   UNL     1      10.798   3.575  23.455  0.00  0.00    -0.205 F 
ATOM     19  C   UNL     1      10.421   1.429  24.353  0.00  0.00    +0.038 A 
ATOM     20  C   UNL     1      10.052   0.099  24.159  0.00  0.00    +0.008 A 
ENDBRANCH  13  14
ENDBRANCH  10  13
ENDBRANCH   7   9
BRANCH   1  21
ATOM     21  C   UNL     1       4.493  -2.116  26.837  0.00  0.00    +0.070 C 
ATOM     22  C   UNL     1       3.184  -2.848  26.443  0.00  0.00    +0.038 C 
ATOM     23  C   UNL     1       4.396  -1.612  28.300  0.00  0.00    +0.038 C 
BRANCH  21  25
ATOM     24  C   UNL     1       5.508   0.133  26.136  0.00  0.00    +0.301 C 
ATOM     25  N   UNL     1       4.637  -0.941  25.962  0.00  0.00    -0.297 N 
ATOM     26  H   UNL     1       4.216  -0.930  25.054  0.00  0.00    +0.150 HD
ATOM     27  O   UNL     1       6.277   0.229  27.088  0.00  0.00    -0.265 OA
BRANCH  24  31
ATOM     28  C   UNL     1       6.774   2.782  22.273  0.00  0.00    +0.111 C 
ATOM     29  C   UNL     1       5.935   2.304  23.384  0.00  0.00    +0.215 A 
ATOM     30  O   UNL     1       6.438   1.295  24.166  0.00  0.00    -0.417 OA
ATOM     31  C   UNL     1       5.420   1.120  25.070  0.00  0.00    +0.304 A 
ATOM     32  N   UNL     1       4.397   1.929  24.856  0.00  0.00    -0.102 NA
ATOM     33  N   UNL     1       4.737   2.697  23.765  0.00  0.00    -0.112 NA
ENDBRANCH  24  31
ENDBRANCH  21  25
ENDBRANCH   1  21
BRANCH   6  34
ATOM     34  O   UNL     1       9.152  -5.630  26.354  0.00  0.00    -0.502 OA
ATOM     35  H   UNL     1       9.063  -6.219  27.137  0.00  0.00    +0.292 HD
ENDBRANCH   6  34
TORSDOF 7
ENDMDL
MODEL 6
REMARK VINA RESULT:      -7.3      2.472      3.888
REMARK  Name = 
REMARK  11 active torsions:
REMARK  status: ('A' for Active; 'I' for Inactive)
REMARK    1  A    between atoms: C_1  and  C_2
REMARK    2  A    between atoms: C_5  and  C_7
REMARK    3  A    between atoms: N_9  and  C_10
REMARK    4  A    between atoms: C_10  and  C_11
REMARK    5  A    between atoms: C_10  and  C_12
REMARK    6  A    between atoms: C_10  and  C_13
REMARK    7  A    between atoms: C_15  and  C_22
REMARK    8  A    between atoms: C_16  and  O_21
REMARK    9  A    between atoms: N_19  and  C_20
REMARK   10  A    between atoms: N_24  and  C_25
REMARK   11  A    between atoms: C_25  and  C_26
REMARK                            x       y       z     vdW  Elec       q    Type
REMARK                         _______ _______ _______ _____ _____    ______ ____
ROOT
ATOM      1  C   UNL     1       5.822  -4.821  25.192  0.00  0.00    +0.045 A 
ATOM      2  N   UNL     1       6.026  -5.472  26.440  0.00  0.00    -0.310 N 
ATOM      3  C   UNL     1       4.991  -6.118  27.221  0.00  0.00    +0.152 C 
ATOM      4  C   UNL     1       7.291  -5.532  27.047  0.00  0.00    +0.294 A 
ATOM      5  O   UNL     1       7.540  -6.040  28.144  0.00  0.00    -0.264 OA
ATOM      6  C   UNL     1       8.455  -4.930  26.344  0.00  0.00    +0.194 A 
ATOM      7  C   UNL     1       8.270  -4.369  25.144  0.00  0.00    +0.085 A 
ATOM      8  C   UNL     1       6.929  -4.303  24.597  0.00  0.00    +0.040 A 
ENDROOT
BRANCH   7   9
ATOM      9  C   UNL     1       9.410  -3.717  24.403  0.00  0.00    +0.248 C 
ATOM     10  N   UNL     1       9.075  -2.631  23.636  0.00  0.00    -0.307 N 
ATOM     11  H   UNL     1       8.096  -2.372  23.579  0.00  0.00    +0.149 HD
ATOM     12  O   UNL     1      10.555  -4.146  24.511  0.00  0.00    -0.270 OA
BRANCH  10  13
ATOM     13  C   UNL     1       9.993  -1.958  22.751  0.00  0.00    +0.139 C 
BRANCH  13  14
ATOM     14  C   UNL     1      10.016  -0.475  23.010  0.00  0.00    -0.030 A 
ATOM     15  C   UNL     1      10.240   0.031  24.300  0.00  0.00    +0.008 A 
ATOM     16  C   UNL     1      10.299   1.410  24.513  0.00  0.00    +0.038 A 
ATOM     17  C   UNL     1      10.140   2.277  23.438  0.00  0.00    +0.123 A 
ATOM     18  F   UNL     1      10.210   3.599  23.641  0.00  0.00    -0.205 F 
ATOM     19  C   UNL     1       9.919   1.795  22.154  0.00  0.00    +0.038 A 
ATOM     20  C   UNL     1       9.861   0.418  21.940  0.00  0.00    +0.008 A 
ENDBRANCH  13  14
ENDBRANCH  10  13
ENDBRANCH   7   9
BRANCH   1  21
ATOM     21  C   UNL     1       4.432  -4.607  24.422  0.00  0.00    +0.070 C 
ATOM     22  C   UNL     1       4.747  -3.928  23.063  0.00  0.00    +0.038 C 
ATOM     23  C   UNL     1       3.794  -5.998  24.180  0.00  0.00    +0.038 C 
BRANCH  21  25
ATOM     24  C   UNL     1       3.702  -2.639  25.896  0.00  0.00    +0.301 C 
ATOM     25  N   UNL     1       3.445  -3.773  25.128  0.00  0.00    -0.297 N 
ATOM     26  H   UNL     1       2.467  -3.880  24.946  0.00  0.00    +0.150 HD
ATOM     27  O   UNL     1       4.831  -2.198  26.089  0.00  0.00    -0.265 OA
BRANCH  24  31
ATOM     28  C   UNL     1       0.821  -0.109  28.871  0.00  0.00    +0.111 C 
ATOM     29  C   UNL     1       1.198  -0.934  27.711  0.00  0.00    +0.215 A 
ATOM     30  O   UNL     1       2.519  -1.284  27.587  0.00  0.00    -0.417 OA
ATOM     31  C   UNL     1       2.495  -2.028  26.435  0.00  0.00    +0.304 A 
ATOM     32  N   UNL     1       1.288  -2.115  25.903  0.00  0.00    -0.102 NA
ATOM     33  N   UNL     1       0.450  -1.409  26.737  0.00  0.00    -0.112 NA
ENDBRANCH  24  31
ENDBRANCH  21  25
ENDBRANCH   1  21
BRANCH   6  34
ATOM     34  O   UNL     1       9.673  -4.967  27.010  0.00  0.00    -0.502 OA
ATOM     35  H   UNL     1      10.100  -5.794  26.690  0.00  0.00    +0.292 HD
ENDBRANCH   6  34
TORSDOF 7
ENDMDL
MODEL 7
REMARK VINA RESULT:      -7.2      4.575     10.369
REMARK  Name = 
REMARK  11 active torsions:
REMARK  status: ('A' for Active; 'I' for Inactive)
REMARK    1  A    between atoms: C_1  and  C_2
REMARK    2  A    between atoms: C_5  and  C_7
REMARK    3  A    between atoms: N_9  and  C_10
REMARK    4  A    between atoms: C_10  and  C_11
REMARK    5  A    between atoms: C_10  and  C_12
REMARK    6  A    between atoms: C_10  and  C_13
REMARK    7  A    between atoms: C_15  and  C_22
REMARK    8  A    between atoms: C_16  and  O_21
REMARK    9  A    between atoms: N_19  and  C_20
REMARK   10  A    between atoms: N_24  and  C_25
REMARK   11  A    between atoms: C_25  and  C_26
REMARK                            x       y       z     vdW  Elec       q    Type
REMARK                         _______ _______ _______ _____ _____    ______ ____
ROOT
ATOM      1  C   UNL     1       8.537  -0.082  24.544  0.00  0.00    +0.045 A 
ATOM      2  N   UNL     1       9.469  -0.478  23.545  0.00  0.00    -0.310 N 
ATOM      3  C   UNL     1      10.044   0.401  22.549  0.00  0.00    +0.152 C 
ATOM      4  C   UNL     1       9.914  -1.804  23.431  0.00  0.00    +0.294 A 
ATOM      5  O   UNL     1      10.686  -2.233  22.569  0.00  0.00    -0.264 OA
ATOM      6  C   UNL     1       9.424  -2.814  24.406  0.00  0.00    +0.194 A 
ATOM      7  C   UNL     1       8.591  -2.427  25.380  0.00  0.00    +0.085 A 
ATOM      8  C   UNL     1       8.139  -1.050  25.411  0.00  0.00    +0.040 A 
ENDROOT
BRANCH   7   9
ATOM      9  C   UNL     1       8.041  -3.416  26.376  0.00  0.00    +0.248 C 
ATOM     10  N   UNL     1       6.676  -3.423  26.512  0.00  0.00    -0.307 N 
ATOM     11  H   UNL     1       6.141  -2.742  25.983  0.00  0.00    +0.149 HD
ATOM     12  O   UNL     1       8.790  -4.164  26.997  0.00  0.00    -0.270 OA
BRANCH  10  13
ATOM     13  C   UNL     1       5.972  -4.195  27.505  0.00  0.00    +0.139 C 
BRANCH  13  14
ATOM     14  C   UNL     1       5.152  -5.286  26.869  0.00  0.00    -0.030 A 
ATOM     15  C   UNL     1       4.015  -5.804  27.510  0.00  0.00    +0.008 A 
ATOM     16  C   UNL     1       3.243  -6.786  26.885  0.00  0.00    +0.038 A 
ATOM     17  C   UNL     1       3.605  -7.243  25.623  0.00  0.00    +0.123 A 
ATOM     18  F   UNL     1       2.856  -8.175  25.020  0.00  0.00    -0.205 F 
ATOM     19  C   UNL     1       4.725  -6.741  24.973  0.00  0.00    +0.038 A 
ATOM     20  C   UNL     1       5.496  -5.760  25.594  0.00  0.00    +0.008 A 
ENDBRANCH  13  14
ENDBRANCH  10  13
ENDBRANCH   7   9
BRANCH   1  21
ATOM     21  C   UNL     1       7.884   1.369  24.746  0.00  0.00    +0.070 C 
ATOM     22  C   UNL     1       6.713   1.502  23.738  0.00  0.00    +0.038 C 
ATOM     23  C   UNL     1       7.344   1.459  26.196  0.00  0.00    +0.038 C 
BRANCH  21  25
ATOM     24  C   UNL     1       8.459   3.854  24.475  0.00  0.00    +0.301 C 
ATOM     25  N   UNL     1       8.798   2.503  24.532  0.00  0.00    -0.297 N 
ATOM     26  H   UNL     1       9.789   2.375  24.588  0.00  0.00    +0.150 HD
ATOM     27  O   UNL     1       7.309   4.265  24.590  0.00  0.00    -0.265 OA
BRANCH  24  31
ATOM     28  C   UNL     1      12.839   5.346  23.012  0.00  0.00    +0.111 C 
ATOM     29  C   UNL     1      11.520   5.417  23.662  0.00  0.00    +0.215 A 
ATOM     30  O   UNL     1      10.714   4.309  23.580  0.00  0.00    -0.417 OA
ATOM     31  C   UNL     1       9.610   4.724  24.279  0.00  0.00    +0.304 A 
ATOM     32  N   UNL     1       9.722   5.961  24.732  0.00  0.00    -0.102 NA
ATOM     33  N   UNL     1      10.964   6.404  24.334  0.00  0.00    -0.112 NA
ENDBRANCH  24  31
ENDBRANCH  21  25
ENDBRANCH   1  21
BRANCH   6  34
ATOM     34  O   UNL     1       9.850  -4.122  24.218  0.00  0.00    -0.502 OA
ATOM     35  H   UNL     1       9.312  -4.446  23.461  0.00  0.00    +0.292 HD
ENDBRANCH   6  34
TORSDOF 7
ENDMDL
MODEL 8
REMARK VINA RESULT:      -7.2      2.560      3.463
REMARK  Name = 
REMARK  11 active torsions:
REMARK  status: ('A' for Active; 'I' for Inactive)
REMARK    1  A    between atoms: C_1  and  C_2
REMARK    2  A    between atoms: C_5  and  C_7
REMARK    3  A    between atoms: N_9  and  C_10
REMARK    4  A    between atoms: C_10  and  C_11
REMARK    5  A    between atoms: C_10  and  C_12
REMARK    6  A    between atoms: C_10  and  C_13
REMARK    7  A    between atoms: C_15  and  C_22
REMARK    8  A    between atoms: C_16  and  O_21
REMARK    9  A    between atoms: N_19  and  C_20
REMARK   10  A    between atoms: N_24  and  C_25
REMARK   11  A    between atoms: C_25  and  C_26
REMARK                            x       y       z     vdW  Elec       q    Type
REMARK                         _______ _______ _______ _____ _____    ______ ____
ROOT
ATOM      1  C   UNL     1       7.382  -4.099  23.309  0.00  0.00    +0.045 A 
ATOM      2  N   UNL     1       7.713  -4.105  24.692  0.00  0.00    -0.310 N 
ATOM      3  C   UNL     1       7.513  -5.224  25.591  0.00  0.00    +0.152 C 
ATOM      4  C   UNL     1       8.269  -2.983  25.326  0.00  0.00    +0.294 A 
ATOM      5  O   UNL     1       8.544  -2.896  26.527  0.00  0.00    -0.264 OA
ATOM      6  C   UNL     1       8.554  -1.768  24.519  0.00  0.00    +0.194 A 
ATOM      7  C   UNL     1       8.294  -1.785  23.206  0.00  0.00    +0.085 A 
ATOM      8  C   UNL     1       7.680  -2.963  22.626  0.00  0.00    +0.040 A 
ENDROOT
BRANCH   7   9
ATOM      9  C   UNL     1       8.535  -0.569  22.347  0.00  0.00    +0.248 C 
ATOM     10  N   UNL     1       7.720   0.505  22.597  0.00  0.00    -0.307 N 
ATOM     11  H   UNL     1       6.990   0.397  23.294  0.00  0.00    +0.149 HD
ATOM     12  O   UNL     1       9.422  -0.567  21.498  0.00  0.00    -0.270 OA
BRANCH  10  13
ATOM     13  C   UNL     1       7.702   1.703  21.797  0.00  0.00    +0.139 C 
BRANCH  13  14
ATOM     14  C   UNL     1       8.296   2.868  22.543  0.00  0.00    -0.030 A 
ATOM     15  C   UNL     1       9.573   2.783  23.120  0.00  0.00    +0.008 A 
ATOM     16  C   UNL     1      10.125   3.888  23.771  0.00  0.00    +0.038 A 
ATOM     17  C   UNL     1       9.403   5.074  23.840  0.00  0.00    +0.123 A 
ATOM     18  F   UNL     1       9.939   6.137  24.454  0.00  0.00    -0.205 F 
ATOM     19  C   UNL     1       8.138   5.178  23.275  0.00  0.00    +0.038 A 
ATOM     20  C   UNL     1       7.587   4.076  22.622  0.00  0.00    +0.008 A 
ENDBRANCH  13  14
ENDBRANCH  10  13
ENDBRANCH   7   9
BRANCH   1  21
ATOM     21  C   UNL     1       6.676  -5.270  22.472  0.00  0.00    +0.070 C 
ATOM     22  C   UNL     1       6.082  -4.637  21.187  0.00  0.00    +0.038 C 
ATOM     23  C   UNL     1       7.757  -6.314  22.094  0.00  0.00    +0.038 C 
BRANCH  21  25
ATOM     24  C   UNL     1       4.395  -5.429  23.635  0.00  0.00    +0.301 C 
ATOM     25  N   UNL     1       5.591  -5.976  23.174  0.00  0.00    -0.297 N 
ATOM     26  H   UNL     1       5.575  -6.976  23.208  0.00  0.00    +0.150 HD
ATOM     27  O   UNL     1       4.107  -4.242  23.515  0.00  0.00    -0.265 OA
BRANCH  24  31
ATOM     28  C   UNL     1       0.532  -7.286  25.910  0.00  0.00    +0.111 C 
ATOM     29  C   UNL     1       1.853  -7.263  25.260  0.00  0.00    +0.215 A 
ATOM     30  O   UNL     1       2.298  -6.060  24.775  0.00  0.00    -0.417 OA
ATOM     31  C   UNL     1       3.522  -6.410  24.262  0.00  0.00    +0.304 A 
ATOM     32  N   UNL     1       3.791  -7.696  24.407  0.00  0.00    -0.102 NA
ATOM     33  N   UNL     1       2.709  -8.244  25.059  0.00  0.00    -0.112 NA
ENDBRANCH  24  31
ENDBRANCH  21  25
ENDBRANCH   1  21
BRANCH   6  34
ATOM     34  O   UNL     1       9.052  -0.666  25.202  0.00  0.00    -0.502 OA
ATOM     35  H   UNL     1       8.358   0.022  25.092  0.00  0.00    +0.292 HD
ENDBRANCH   6  34
TORSDOF 7
ENDMDL
MODEL 9
REMARK VINA RESULT:      -6.9      3.015      4.207
REMARK  Name = 
REMARK  11 active torsions:
REMARK  status: ('A' for Active; 'I' for Inactive)
REMARK    1  A    between atoms: C_1  and  C_2
REMARK    2  A    between atoms: C_5  and  C_7
REMARK    3  A    between atoms: N_9  and  C_10
REMARK    4  A    between atoms: C_10  and  C_11
REMARK    5  A    between atoms: C_10  and  C_12
REMARK    6  A    between atoms: C_10  and  C_13
REMARK    7  A    between atoms: C_15  and  C_22
REMARK    8  A    between atoms: C_16  and  O_21
REMARK    9  A    between atoms: N_19  and  C_20
REMARK   10  A    between atoms: N_24  and  C_25
REMARK   11  A    between atoms: C_25  and  C_26
REMARK                            x       y       z     vdW  Elec       q    Type
REMARK                         _______ _______ _______ _____ _____    ______ ____
ROOT
ATOM      1  C   UNL     1       6.492  -3.438  25.094  0.00  0.00    +0.045 A 
ATOM      2  N   UNL     1       7.144  -3.656  23.849  0.00  0.00    -0.310 N 
ATOM      3  C   UNL     1       7.482  -4.955  23.303  0.00  0.00    +0.152 C 
ATOM      4  C   UNL     1       7.538  -2.593  23.022  0.00  0.00    +0.294 A 
ATOM      5  O   UNL     1       8.142  -2.698  21.951  0.00  0.00    -0.264 OA
ATOM      6  C   UNL     1       7.231  -1.201  23.445  0.00  0.00    +0.194 A 
ATOM      7  C   UNL     1       6.567  -1.001  24.590  0.00  0.00    +0.085 A 
ATOM      8  C   UNL     1       6.230  -2.144  25.416  0.00  0.00    +0.040 A 
ENDROOT
BRANCH   7   9
ATOM      9  C   UNL     1       6.258   0.391  25.080  0.00  0.00    +0.248 C 
ATOM     10  N   UNL     1       7.344   1.150  25.434  0.00  0.00    -0.307 N 
ATOM     11  H   UNL     1       8.261   0.718  25.393  0.00  0.00    +0.149 HD
ATOM     12  O   UNL     1       5.100   0.795  25.132  0.00  0.00    -0.270 OA
BRANCH  10  13
ATOM     13  C   UNL     1       7.249   2.449  26.051  0.00  0.00    +0.139 C 
BRANCH  13  14
ATOM     14  C   UNL     1       8.120   3.454  25.346  0.00  0.00    -0.030 A 
ATOM     15  C   UNL     1       8.092   4.812  25.702  0.00  0.00    +0.008 A 
ATOM     16  C   UNL     1       8.938   5.723  25.065  0.00  0.00    +0.038 A 
ATOM     17  C   UNL     1       9.811   5.275  24.080  0.00  0.00    +0.123 A 
ATOM     18  F   UNL     1      10.631   6.147  23.480  0.00  0.00    -0.205 F 
ATOM     19  C   UNL     1       9.855   3.935  23.716  0.00  0.00    +0.038 A 
ATOM     20  C   UNL     1       9.012   3.024  24.352  0.00  0.00    +0.008 A 
ENDBRANCH  13  14
ENDBRANCH  10  13
ENDBRANCH   7   9
BRANCH   1  21
ATOM     21  C   UNL     1       6.057  -4.542  26.171  0.00  0.00    +0.070 C 
ATOM     22  C   UNL     1       7.344  -5.257  26.660  0.00  0.00    +0.038 C 
ATOM     23  C   UNL     1       5.374  -3.817  27.358  0.00  0.00    +0.038 C 
BRANCH  21  25
ATOM     24  C   UNL     1       4.028  -5.377  24.842  0.00  0.00    +0.301 C 
ATOM     25  N   UNL     1       5.128  -5.571  25.675  0.00  0.00    -0.297 N 
ATOM     26  H   UNL     1       5.347  -6.543  25.774  0.00  0.00    +0.150 HD
ATOM     27  O   UNL     1       3.688  -4.275  24.421  0.00  0.00    -0.265 OA
BRANCH  24  31
ATOM     28  C   UNL     1       0.940  -8.419  22.661  0.00  0.00    +0.111 C 
ATOM     29  C   UNL     1       1.995  -7.978  23.588  0.00  0.00    +0.215 A 
ATOM     30  O   UNL     1       2.367  -6.658  23.540  0.00  0.00    -0.417 OA
ATOM     31  C   UNL     1       3.333  -6.613  24.513  0.00  0.00    +0.304 A 
ATOM     32  N   UNL     1       3.539  -7.785  25.088  0.00  0.00    -0.102 NA
ATOM     33  N   UNL     1       2.667  -8.666  24.489  0.00  0.00    -0.112 NA
ENDBRANCH  24  31
ENDBRANCH  21  25
ENDBRANCH   1  21
BRANCH   6  34
ATOM     34  O   UNL     1       7.690  -0.182  22.620  0.00  0.00    -0.502 OA
ATOM     35  H   UNL     1       7.986   0.520  23.243  0.00  0.00    +0.292 HD
ENDBRANCH   6  34
TORSDOF 7
ENDMDL
