MODEL 1
REMARK VINA RESULT:      -7.3      0.000      0.000
REMARK  Name = 
REMARK  16 active torsions:
REMARK  status: ('A' for Active; 'I' for Inactive)
REMARK    1  A    between atoms: C_1  and  C_2
REMARK    2  A    between atoms: C_3  and  C_9
REMARK    3  A    between atoms: C_7  and  O_8
REMARK    4  A    between atoms: N_11  and  C_12
REMARK    5  A    between atoms: C_12  and  C_14
REMARK    6  A    between atoms: C_12  and  C_22
REMARK    7  A    between atoms: C_14  and  S_15
REMARK    8  A    between atoms: S_15  and  C_16
REMARK    9  A    between atoms: C_22  and  C_24
REMARK   10  A    between atoms: C_22  and  O_45
REMARK   11  A    between atoms: C_24  and  N_25
REMARK   12  A    between atoms: C_36  and  C_38
REMARK   13  A    between atoms: N_40  and  C_41
REMARK   14  A    between atoms: C_41  and  C_42
REMARK   15  A    between atoms: C_41  and  C_43
REMARK   16  A    between atoms: C_41  and  C_44
REMARK                            x       y       z     vdW  Elec       q    Type
REMARK                         _______ _______ _______ _____ _____    ______ ____
ROOT
ATOM      1  C   UNL     1       7.041  -2.206  22.870  0.00  0.00    +0.113 C 
ENDROOT
BRANCH   1   3
ATOM      2  C   UNL     1       6.476   0.053  24.082  0.00  0.00    +0.245 C 
ATOM      3  N   UNL     1       6.538  -0.784  22.992  0.00  0.00    -0.305 N 
ATOM      4  H   UNL     1       6.094  -0.450  22.148  0.00  0.00    +0.149 HD
ATOM      5  O   UNL     1       6.896  -0.301  25.186  0.00  0.00    -0.270 OA
BRANCH   2  12
ATOM      6  C   UNL     1       4.601   1.863  25.969  0.00  0.00    +0.048 C 
ATOM      7  C   UNL     1       5.147   2.282  24.634  0.00  0.00    +0.003 A 
ATOM      8  C   UNL     1       4.742   3.559  24.151  0.00  0.00    +0.120 A 
ATOM      9  C   UNL     1       5.258   4.112  22.985  0.00  0.00    +0.046 A 
ATOM     10  C   UNL     1       6.210   3.399  22.274  0.00  0.00    +0.004 A 
ATOM     11  C   UNL     1       6.589   2.116  22.702  0.00  0.00    +0.013 A 
ATOM     12  C   UNL     1       6.041   1.510  23.856  0.00  0.00    +0.043 A 
BRANCH   8  13
ATOM     13  O   UNL     1       3.798   4.260  24.861  0.00  0.00    -0.506 OA
ATOM     14  H   UNL     1       2.914   3.968  24.577  0.00  0.00    +0.292 HD
ENDBRANCH   8  13
ENDBRANCH   2  12
ENDBRANCH   1   3
BRANCH   1  15
ATOM     15  C   UNL     1       6.087  -3.298  22.247  0.00  0.00    +0.149 C 
BRANCH  15  16
ATOM     16  O   UNL     1       5.338  -2.757  21.151  0.00  0.00    -0.389 OA
ATOM     17  H   UNL     1       5.630  -3.258  20.359  0.00  0.00    +0.210 HD
ENDBRANCH  15  16
BRANCH  15  18
ATOM     18  C   UNL     1       5.091  -4.043  23.283  0.00  0.00    +0.118 C 
BRANCH  18  19
ATOM     19  N   UNL     1       5.356  -5.460  23.652  0.00  0.00    -0.289 NA
ATOM     20  C   UNL     1       4.306  -6.217  24.429  0.00  0.00    +0.143 C 
ATOM     21  C   UNL     1       4.271  -5.997  25.959  0.00  0.00    +0.032 C 
ATOM     22  C   UNL     1       5.642  -6.200  26.605  0.00  0.00    -0.005 C 
ATOM     23  C   UNL     1       6.676  -5.328  25.901  0.00  0.00    +0.006 C 
ATOM     24  C   UNL     1       6.625  -3.850  26.343  0.00  0.00    +0.005 C 
ATOM     25  C   UNL     1       5.748  -3.447  27.541  0.00  0.00    +0.000 C 
ATOM     26  C   UNL     1       5.211  -4.537  28.461  0.00  0.00    +0.000 C 
ATOM     27  C   UNL     1       5.675  -5.935  28.109  0.00  0.00    +0.004 C 
ATOM     28  C   UNL     1       6.641  -5.628  24.374  0.00  0.00    +0.089 C 
BRANCH  20  29
ATOM     29  C   UNL     1       2.855  -6.182  23.897  0.00  0.00    +0.231 C 
ATOM     30  N   UNL     1       2.589  -7.033  22.846  0.00  0.00    -0.309 N 
ATOM     31  H   UNL     1       3.395  -7.457  22.400  0.00  0.00    +0.149 HD
ATOM     32  O   UNL     1       1.963  -5.557  24.475  0.00  0.00    -0.274 OA
BRANCH  30  33
ATOM     33  C   UNL     1       1.228  -7.417  22.418  0.00  0.00    +0.026 C 
ATOM     34  C   UNL     1       1.259  -8.293  21.147  0.00  0.00    +0.031 C 
ATOM     35  C   UNL     1       0.444  -6.137  22.081  0.00  0.00    +0.031 C 
ATOM     36  C   UNL     1       0.483  -8.164  23.537  0.00  0.00    +0.031 C 
ENDBRANCH  30  33
ENDBRANCH  20  29
ENDBRANCH  18  19
ENDBRANCH  15  18
ENDBRANCH   1  15
BRANCH   1  37
ATOM     37  C   UNL     1       8.438  -2.275  22.193  0.00  0.00    +0.099 C 
BRANCH  37  38
ATOM     38  S   UNL     1       9.800  -2.003  23.399  0.00  0.00    -0.123 S 
BRANCH  38  39
ATOM     39  C   UNL     1      10.033  -0.240  23.267  0.00  0.00    +0.008 A 
ATOM     40  C   UNL     1      10.243   0.531  24.412  0.00  0.00    +0.015 A 
ATOM     41  C   UNL     1      10.327   1.922  24.322  0.00  0.00    +0.001 A 
ATOM     42  C   UNL     1      10.192   2.549  23.086  0.00  0.00    +0.000 A 
ATOM     43  C   UNL     1       9.976   1.788  21.937  0.00  0.00    +0.001 A 
ATOM     44  C   UNL     1       9.892   0.395  22.028  0.00  0.00    +0.015 A 
ENDBRANCH  38  39
ENDBRANCH  37  38
ENDBRANCH   1  37
TORSDOF 12
ENDMDL
MODEL 2
REMARK VINA RESULT:      -7.2      2.336      8.476
REMARK  Name = 
REMARK  16 active torsions:
REMARK  status: ('A' for Active; 'I' for Inactive)
REMARK    1  A    between atoms: C_1  and  C_2
REMARK    2  A    between atoms: C_3  and  C_9
REMARK    3  A    between atoms: C_7  and  O_8
REMARK    4  A    between atoms: N_11  and  C_12
REMARK    5  A    between atoms: C_12  and  C_14
REMARK    6  A    between atoms: C_12  and  C_22
REMARK    7  A    between atoms: C_14  and  S_15
REMARK    8  A    between atoms: S_15  and  C_16
REMARK    9  A    between atoms: C_22  and  C_24
REMARK   10  A    between atoms: C_22  and  O_45
REMARK   11  A    between atoms: C_24  and  N_25
REMARK   12  A    between atoms: C_36  and  C_38
REMARK   13  A    between atoms: N_40  and  C_41
REMARK   14  A    between atoms: C_41  and  C_42
REMARK   15  A    between atoms: C_41  and  C_43
REMARK   16  A    between atoms: C_41  and  C_44
REMARK                            x       y       z     vdW  Elec       q    Type
REMARK                         _______ _______ _______ _____ _____    ______ ____
ROOT
ATOM      1  C   UNL     1       5.451  -3.210  22.915  0.00  0.00    +0.113 C 
ENDROOT
BRANCH   1   3
ATOM      2  C   UNL     1       3.420  -4.452  24.022  0.00  0.00    +0.245 C 
ATOM      3  N   UNL     1       4.540  -4.377  23.226  0.00  0.00    -0.305 N 
ATOM      4  H   UNL     1       4.882  -5.253  22.856  0.00  0.00    +0.149 HD
ATOM      5  O   UNL     1       2.982  -3.457  24.605  0.00  0.00    -0.270 OA
BRANCH   2  12
ATOM      6  C   UNL     1       3.913  -7.063  25.836  0.00  0.00    +0.048 C 
ATOM      7  C   UNL     1       2.878  -6.944  24.753  0.00  0.00    +0.003 A 
ATOM      8  C   UNL     1       2.106  -8.108  24.478  0.00  0.00    +0.120 A 
ATOM      9  C   UNL     1       1.046  -8.103  23.578  0.00  0.00    +0.046 A 
ATOM     10  C   UNL     1       0.723  -6.918  22.937  0.00  0.00    +0.004 A 
ATOM     11  C   UNL     1       1.500  -5.768  23.153  0.00  0.00    +0.013 A 
ATOM     12  C   UNL     1       2.615  -5.761  24.024  0.00  0.00    +0.043 A 
BRANCH   8  13
ATOM     13  O   UNL     1       2.433  -9.279  25.118  0.00  0.00    -0.506 OA
ATOM     14  H   UNL     1       3.393  -9.421  25.038  0.00  0.00    +0.292 HD
ENDBRANCH   8  13
ENDBRANCH   2  12
ENDBRANCH   1   3
BRANCH   1  15
ATOM     15  C   UNL     1       5.908  -2.268  24.096  0.00  0.00    +0.149 C 
BRANCH  15  16
ATOM     16  O   UNL     1       4.811  -1.477  24.572  0.00  0.00    -0.389 OA
ATOM     17  H   UNL     1       4.052  -1.703  23.995  0.00  0.00    +0.210 HD
ENDBRANCH  15  16
BRANCH  15  18
ATOM     18  C   UNL     1       7.184  -1.319  23.794  0.00  0.00    +0.118 C 
BRANCH  18  19
ATOM     19  N   UNL     1       8.431  -1.509  24.582  0.00  0.00    -0.289 NA
ATOM     20  C   UNL     1       8.769  -0.505  25.659  0.00  0.00    +0.143 C 
ATOM     21  C   UNL     1       9.450   0.806  25.205  0.00  0.00    +0.032 C 
ATOM     22  C   UNL     1      10.678   0.549  24.331  0.00  0.00    -0.005 C 
ATOM     23  C   UNL     1      10.298  -0.358  23.166  0.00  0.00    +0.006 C 
ATOM     24  C   UNL     1       9.574   0.389  22.026  0.00  0.00    +0.005 C 
ATOM     25  C   UNL     1       9.500   1.925  22.054  0.00  0.00    +0.000 C 
ATOM     26  C   UNL     1      10.406   2.690  23.012  0.00  0.00    +0.000 C 
ATOM     27  C   UNL     1      11.353   1.815  23.806  0.00  0.00    +0.004 C 
ATOM     28  C   UNL     1       9.631  -1.650  23.723  0.00  0.00    +0.089 C 
BRANCH  20  29
ATOM     29  C   UNL     1       7.668  -0.155  26.685  0.00  0.00    +0.231 C 
ATOM     30  N   UNL     1       7.602   1.172  27.053  0.00  0.00    -0.309 N 
ATOM     31  H   UNL     1       8.384   1.753  26.773  0.00  0.00    +0.149 HD
ATOM     32  O   UNL     1       6.809  -0.971  27.025  0.00  0.00    -0.274 OA
BRANCH  30  33
ATOM     33  C   UNL     1       6.440   1.785  27.730  0.00  0.00    +0.026 C 
ATOM     34  C   UNL     1       6.085   1.037  29.034  0.00  0.00    +0.031 C 
ATOM     35  C   UNL     1       5.224   1.690  26.794  0.00  0.00    +0.031 C 
ATOM     36  C   UNL     1       6.699   3.268  28.046  0.00  0.00    +0.031 C 
ENDBRANCH  30  33
ENDBRANCH  20  29
ENDBRANCH  18  19
ENDBRANCH  15  18
ENDBRANCH   1  15
BRANCH   1  37
ATOM     37  C   UNL     1       6.684  -3.639  22.073  0.00  0.00    +0.099 C 
BRANCH  37  38
ATOM     38  S   UNL     1       7.218  -5.356  22.462  0.00  0.00    -0.123 S 
BRANCH  38  39
ATOM     39  C   UNL     1       7.815  -5.163  24.131  0.00  0.00    +0.008 A 
ATOM     40  C   UNL     1       9.175  -4.959  24.374  0.00  0.00    +0.015 A 
ATOM     41  C   UNL     1       9.659  -4.907  25.683  0.00  0.00    +0.001 A 
ATOM     42  C   UNL     1       8.784  -5.066  26.756  0.00  0.00    +0.000 A 
ATOM     43  C   UNL     1       7.425  -5.274  26.523  0.00  0.00    +0.001 A 
ATOM     44  C   UNL     1       6.941  -5.327  25.212  0.00  0.00    +0.015 A 
ENDBRANCH  38  39
ENDBRANCH  37  38
ENDBRANCH   1  37
TORSDOF 12
ENDMDL
MODEL 3
REMARK VINA RESULT:      -7.1      2.471      4.391
REMARK  Name = 
REMARK  16 active torsions:
REMARK  status: ('A' for Active; 'I' for Inactive)
REMARK    1  A    between atoms: C_1  and  C_2
REMARK    2  A    between atoms: C_3  and  C_9
REMARK    3  A    between atoms: C_7  and  O_8
REMARK    4  A    between atoms: N_11  and  C_12
REMARK    5  A    between atoms: C_12  and  C_14
REMARK    6  A    between atoms: C_12  and  C_22
REMARK    7  A    between atoms: C_14  and  S_15
REMARK    8  A    between atoms: S_15  and  C_16
REMARK    9  A    between atoms: C_22  and  C_24
REMARK   10  A    between atoms: C_22  and  O_45
REMARK   11  A    between atoms: C_24  and  N_25
REMARK   12  A    between atoms: C_36  and  C_38
REMARK   13  A    between atoms: N_40  and  C_41
REMARK   14  A    between atoms: C_41  and  C_42
REMARK   15  A    between atoms: C_41  and  C_43
REMARK   16  A    between atoms: C_41  and  C_44
REMARK                            x       y       z     vdW  Elec       q    Type
REMARK                         _______ _______ _______ _____ _____    ______ ____
ROOT
ATOM      1  C   UNL     1       7.020  -0.432  25.813  0.00  0.00    +0.113 C 
ENDROOT
BRANCH   1   3
ATOM      2  C   UNL     1       6.612   2.125  25.381  0.00  0.00    +0.245 C 
ATOM      3  N   UNL     1       7.261   0.927  25.192  0.00  0.00    -0.305 N 
ATOM      4  H   UNL     1       7.951   0.905  24.454  0.00  0.00    +0.149 HD
ATOM      5  O   UNL     1       5.683   2.230  26.186  0.00  0.00    -0.270 OA
BRANCH   2  12
ATOM      6  C   UNL     1       5.827   3.350  22.512  0.00  0.00    +0.048 C 
ATOM      7  C   UNL     1       6.914   3.873  23.408  0.00  0.00    +0.003 A 
ATOM      8  C   UNL     1       7.689   4.956  22.906  0.00  0.00    +0.120 A 
ATOM      9  C   UNL     1       8.651   5.603  23.675  0.00  0.00    +0.046 A 
ATOM     10  C   UNL     1       8.852   5.184  24.980  0.00  0.00    +0.004 A 
ATOM     11  C   UNL     1       8.135   4.085  25.483  0.00  0.00    +0.013 A 
ATOM     12  C   UNL     1       7.189   3.378  24.704  0.00  0.00    +0.043 A 
BRANCH   8  13
ATOM     13  O   UNL     1       7.484   5.366  21.611  0.00  0.00    -0.506 OA
ATOM     14  H   UNL     1       6.943   6.176  21.622  0.00  0.00    +0.292 HD
ENDBRANCH   8  13
ENDBRANCH   2  12
ENDBRANCH   1   3
BRANCH   1  15
ATOM     15  C   UNL     1       5.793  -1.289  25.312  0.00  0.00    +0.149 C 
BRANCH  15  16
ATOM     16  O   UNL     1       4.554  -0.649  25.641  0.00  0.00    -0.389 OA
ATOM     17  H   UNL     1       4.791   0.103  26.224  0.00  0.00    +0.210 HD
ENDBRANCH  15  16
BRANCH  15  18
ATOM     18  C   UNL     1       5.763  -2.835  25.793  0.00  0.00    +0.118 C 
BRANCH  18  19
ATOM     19  N   UNL     1       4.594  -3.682  25.437  0.00  0.00    -0.289 NA
ATOM     20  C   UNL     1       4.697  -5.177  25.624  0.00  0.00    +0.143 C 
ATOM     21  C   UNL     1       5.407  -5.975  24.506  0.00  0.00    +0.032 C 
ATOM     22  C   UNL     1       4.840  -5.662  23.121  0.00  0.00    -0.005 C 
ATOM     23  C   UNL     1       4.864  -4.157  22.884  0.00  0.00    +0.006 C 
ATOM     24  C   UNL     1       6.260  -3.625  22.494  0.00  0.00    +0.005 C 
ATOM     25  C   UNL     1       7.388  -4.622  22.176  0.00  0.00    +0.000 C 
ATOM     26  C   UNL     1       7.033  -6.084  21.934  0.00  0.00    +0.000 C 
ATOM     27  C   UNL     1       5.548  -6.381  21.974  0.00  0.00    +0.004 C 
ATOM     28  C   UNL     1       4.120  -3.445  24.052  0.00  0.00    +0.089 C 
BRANCH  20  29
ATOM     29  C   UNL     1       5.198  -5.697  26.990  0.00  0.00    +0.231 C 
ATOM     30  N   UNL     1       4.535  -5.201  28.092  0.00  0.00    -0.309 N 
ATOM     31  H   UNL     1       3.919  -4.413  27.925  0.00  0.00    +0.149 HD
ATOM     32  O   UNL     1       6.022  -6.610  27.079  0.00  0.00    -0.274 OA
BRANCH  30  33
ATOM     33  C   UNL     1       4.604  -5.806  29.439  0.00  0.00    +0.026 C 
ATOM     34  C   UNL     1       3.692  -7.047  29.551  0.00  0.00    +0.031 C 
ATOM     35  C   UNL     1       4.109  -4.771  30.463  0.00  0.00    +0.031 C 
ATOM     36  C   UNL     1       6.048  -6.197  29.798  0.00  0.00    +0.031 C 
ENDBRANCH  30  33
ENDBRANCH  20  29
ENDBRANCH  18  19
ENDBRANCH  15  18
ENDBRANCH   1  15
BRANCH   1  37
ATOM     37  C   UNL     1       8.305  -1.305  25.827  0.00  0.00    +0.099 C 
BRANCH  37  38
ATOM     38  S   UNL     1       8.863  -1.732  24.126  0.00  0.00    -0.123 S 
BRANCH  38  39
ATOM     39  C   UNL     1       9.531  -0.172  23.579  0.00  0.00    +0.008 A 
ATOM     40  C   UNL     1      10.355   0.577  24.422  0.00  0.00    +0.015 A 
ATOM     41  C   UNL     1      10.799   1.843  24.034  0.00  0.00    +0.001 A 
ATOM     42  C   UNL     1      10.413   2.370  22.804  0.00  0.00    +0.000 A 
ATOM     43  C   UNL     1       9.586   1.632  21.957  0.00  0.00    +0.001 A 
ATOM     44  C   UNL     1       9.143   0.364  22.346  0.00  0.00    +0.015 A 
ENDBRANCH  38  39
ENDBRANCH  37  38
ENDBRANCH   1  37
TORSDOF 12
ENDMDL
MODEL 4
REMARK VINA RESULT:      -7.0      2.415      3.876
REMARK  Name = 
REMARK  16 active torsions:
REMARK  status: ('A' for Active; 'I' for Inactive)
REMARK    1  A    between atoms: C_1  and  C_2
REMARK    2  A    between atoms: C_3  and  C_9
REMARK    3  A    between atoms: C_7  and  O_8
REMARK    4  A    between atoms: N_11  and  C_12
REMARK    5  A    between atoms: C_12  and  C_14
REMARK    6  A    between atoms: C_12  and  C_22
REMARK    7  A    between atoms: C_14  and  S_15
REMARK    8  A    between atoms: S_15  and  C_16
REMARK    9  A    between atoms: C_22  and  C_24
REMARK   10  A    between atoms: C_22  and  O_45
REMARK   11  A    between atoms: C_24  and  N_25
REMARK   12  A    between atoms: C_36  and  C_38
REMARK   13  A    between atoms: N_40  and  C_41
REMARK   14  A    between atoms: C_41  and  C_42
REMARK   15  A    between atoms: C_41  and  C_43
REMARK   16  A    between atoms: C_41  and  C_44
REMARK                            x       y       z     vdW  Elec       q    Type
REMARK                         _______ _______ _______ _____ _____    ______ ____
ROOT
ATOM      1  C   UNL     1       7.214  -0.354  25.790  0.00  0.00    +0.113 C 
ENDROOT
BRANCH   1   3
ATOM      2  C   UNL     1       7.284   2.270  25.797  0.00  0.00    +0.245 C 
ATOM      3  N   UNL     1       7.318   1.033  25.195  0.00  0.00    -0.305 N 
ATOM      4  H   UNL     1       7.317   1.029  24.185  0.00  0.00    +0.149 HD
ATOM      5  O   UNL     1       7.180   2.383  27.021  0.00  0.00    -0.270 OA
BRANCH   2  12
ATOM      6  C   UNL     1       6.124   2.926  22.868  0.00  0.00    +0.048 C 
ATOM      7  C   UNL     1       7.129   3.762  23.609  0.00  0.00    +0.003 A 
ATOM      8  C   UNL     1       7.646   4.896  22.921  0.00  0.00    +0.120 A 
ATOM      9  C   UNL     1       8.498   5.811  23.529  0.00  0.00    +0.046 A 
ATOM     10  C   UNL     1       8.845   5.618  24.856  0.00  0.00    +0.004 A 
ATOM     11  C   UNL     1       8.388   4.480  25.542  0.00  0.00    +0.013 A 
ATOM     12  C   UNL     1       7.564   3.508  24.930  0.00  0.00    +0.043 A 
BRANCH   8  13
ATOM     13  O   UNL     1       7.297   5.081  21.605  0.00  0.00    -0.506 OA
ATOM     14  H   UNL     1       8.021   5.554  21.154  0.00  0.00    +0.292 HD
ENDBRANCH   8  13
ENDBRANCH   2  12
ENDBRANCH   1   3
BRANCH   1  15
ATOM     15  C   UNL     1       6.457  -1.474  24.974  0.00  0.00    +0.149 C 
BRANCH  15  16
ATOM     16  O   UNL     1       5.873  -0.933  23.783  0.00  0.00    -0.389 OA
ATOM     17  H   UNL     1       5.288  -1.636  23.432  0.00  0.00    +0.210 HD
ENDBRANCH  15  16
BRANCH  15  18
ATOM     18  C   UNL     1       5.352  -2.326  25.796  0.00  0.00    +0.118 C 
BRANCH  18  19
ATOM     19  N   UNL     1       5.799  -3.446  26.666  0.00  0.00    -0.289 NA
ATOM     20  C   UNL     1       5.956  -4.820  26.058  0.00  0.00    +0.143 C 
ATOM     21  C   UNL     1       4.673  -5.668  25.904  0.00  0.00    +0.032 C 
ATOM     22  C   UNL     1       3.882  -5.765  27.209  0.00  0.00    -0.005 C 
ATOM     23  C   UNL     1       3.609  -4.366  27.749  0.00  0.00    +0.006 C 
ATOM     24  C   UNL     1       2.443  -3.654  27.030  0.00  0.00    +0.005 C 
ATOM     25  C   UNL     1       1.563  -4.446  26.048  0.00  0.00    +0.000 C 
ATOM     26  C   UNL     1       1.646  -5.968  26.046  0.00  0.00    +0.000 C 
ATOM     27  C   UNL     1       2.573  -6.544  27.096  0.00  0.00    +0.004 C 
ATOM     28  C   UNL     1       4.957  -3.597  27.877  0.00  0.00    +0.089 C 
BRANCH  20  29
ATOM     29  C   UNL     1       6.780  -4.939  24.756  0.00  0.00    +0.231 C 
ATOM     30  N   UNL     1       6.071  -4.757  23.588  0.00  0.00    -0.309 N 
ATOM     31  H   UNL     1       5.061  -4.752  23.675  0.00  0.00    +0.149 HD
ATOM     32  O   UNL     1       8.009  -5.029  24.767  0.00  0.00    -0.274 OA
BRANCH  30  33
ATOM     33  C   UNL     1       6.695  -4.484  22.277  0.00  0.00    +0.026 C 
ATOM     34  C   UNL     1       7.940  -3.582  22.419  0.00  0.00    +0.031 C 
ATOM     35  C   UNL     1       5.678  -3.737  21.398  0.00  0.00    +0.031 C 
ATOM     36  C   UNL     1       7.089  -5.790  21.565  0.00  0.00    +0.031 C 
ENDBRANCH  30  33
ENDBRANCH  20  29
ENDBRANCH  18  19
ENDBRANCH  15  18
ENDBRANCH   1  15
BRANCH   1  37
ATOM     37  C   UNL     1       8.590  -0.889  26.272  0.00  0.00    +0.099 C 
BRANCH  37  38
ATOM     38  S   UNL     1       9.571  -1.606  24.890  0.00  0.00    -0.123 S 
BRANCH  38  39
ATOM     39  C   UNL     1       9.922  -0.150  23.922  0.00  0.00    +0.008 A 
ATOM     40  C   UNL     1      10.591   0.933  24.496  0.00  0.00    +0.015 A 
ATOM     41  C   UNL     1      10.779   2.112  23.771  0.00  0.00    +0.001 A 
ATOM     42  C   UNL     1      10.291   2.215  22.471  0.00  0.00    +0.000 A 
ATOM     43  C   UNL     1       9.617   1.141  21.891  0.00  0.00    +0.001 A 
ATOM     44  C   UNL     1       9.429  -0.039  22.617  0.00  0.00    +0.015 A 
ENDBRANCH  38  39
ENDBRANCH  37  38
ENDBRANCH   1  37
TORSDOF 12
ENDMDL
MODEL 5
REMARK VINA RESULT:      -6.9      2.350      4.508
REMARK  Name = 
REMARK  16 active torsions:
REMARK  status: ('A' for Active; 'I' for Inactive)
REMARK    1  A    between atoms: C_1  and  C_2
REMARK    2  A    between atoms: C_3  and  C_9
REMARK    3  A    between atoms: C_7  and  O_8
REMARK    4  A    between atoms: N_11  and  C_12
REMARK    5  A    between atoms: C_12  and  C_14
REMARK    6  A    between atoms: C_12  and  C_22
REMARK    7  A    between atoms: C_14  and  S_15
REMARK    8  A    between atoms: S_15  and  C_16
REMARK    9  A    between atoms: C_22  and  C_24
REMARK   10  A    between atoms: C_22  and  O_45
REMARK   11  A    between atoms: C_24  and  N_25
REMARK   12  A    between atoms: C_36  and  C_38
REMARK   13  A    between atoms: N_40  and  C_41
REMARK   14  A    between atoms: C_41  and  C_42
REMARK   15  A    between atoms: C_41  and  C_43
REMARK   16  A    between atoms: C_41  and  C_44
REMARK                            x       y       z     vdW  Elec       q    Type
REMARK                         _______ _______ _______ _____ _____    ______ ____
ROOT
ATOM      1  C   UNL     1       8.288  -3.534  26.046  0.00  0.00    +0.113 C 
ENDROOT
BRANCH   1   3
ATOM      2  C   UNL     1       7.695  -1.004  26.418  0.00  0.00    +0.245 C 
ATOM      3  N   UNL     1       7.478  -2.263  25.909  0.00  0.00    -0.305 N 
ATOM      4  H   UNL     1       6.592  -2.410  25.445  0.00  0.00    +0.149 HD
ATOM      5  O   UNL     1       8.698  -0.749  27.089  0.00  0.00    -0.270 OA
BRANCH   2  12
ATOM      6  C   UNL     1       5.567   0.599  28.222  0.00  0.00    +0.048 C 
ATOM      7  C   UNL     1       5.756   0.778  26.742  0.00  0.00    +0.003 A 
ATOM      8  C   UNL     1       4.874   1.686  26.091  0.00  0.00    +0.120 A 
ATOM      9  C   UNL     1       5.010   2.024  24.749  0.00  0.00    +0.046 A 
ATOM     10  C   UNL     1       6.051   1.466  24.024  0.00  0.00    +0.004 A 
ATOM     11  C   UNL     1       6.905   0.529  24.630  0.00  0.00    +0.013 A 
ATOM     12  C   UNL     1       6.755   0.130  25.979  0.00  0.00    +0.043 A 
BRANCH   8  13
ATOM     13  O   UNL     1       3.844   2.235  26.816  0.00  0.00    -0.506 OA
ATOM     14  H   UNL     1       4.069   2.185  27.763  0.00  0.00    +0.292 HD
ENDBRANCH   8  13
ENDBRANCH   2  12
ENDBRANCH   1   3
BRANCH   1  15
ATOM     15  C   UNL     1       7.544  -4.871  26.433  0.00  0.00    +0.149 C 
BRANCH  15  16
ATOM     16  O   UNL     1       8.437  -5.990  26.369  0.00  0.00    -0.389 OA
ATOM     17  H   UNL     1       8.114  -6.626  27.042  0.00  0.00    +0.210 HD
ENDBRANCH  15  16
BRANCH  15  18
ATOM     18  C   UNL     1       6.190  -5.195  25.607  0.00  0.00    +0.118 C 
BRANCH  18  19
ATOM     19  N   UNL     1       5.344  -4.068  25.131  0.00  0.00    -0.289 NA
ATOM     20  C   UNL     1       4.121  -3.689  25.932  0.00  0.00    +0.143 C 
ATOM     21  C   UNL     1       2.845  -4.529  25.701  0.00  0.00    +0.032 C 
ATOM     22  C   UNL     1       2.482  -4.638  24.219  0.00  0.00    -0.005 C 
ATOM     23  C   UNL     1       3.683  -5.151  23.433  0.00  0.00    +0.006 C 
ATOM     24  C   UNL     1       3.880  -6.678  23.554  0.00  0.00    +0.005 C 
ATOM     25  C   UNL     1       2.791  -7.531  24.227  0.00  0.00    +0.000 C 
ATOM     26  C   UNL     1       1.416  -6.918  24.465  0.00  0.00    +0.000 C 
ATOM     27  C   UNL     1       1.261  -5.509  23.932  0.00  0.00    +0.004 C 
ATOM     28  C   UNL     1       4.910  -4.238  23.723  0.00  0.00    +0.089 C 
BRANCH  20  29
ATOM     29  C   UNL     1       4.297  -3.474  27.452  0.00  0.00    +0.231 C 
ATOM     30  N   UNL     1       3.517  -4.275  28.257  0.00  0.00    -0.309 N 
ATOM     31  H   UNL     1       2.775  -4.788  27.793  0.00  0.00    +0.149 HD
ATOM     32  O   UNL     1       5.186  -2.754  27.911  0.00  0.00    -0.274 OA
BRANCH  30  33
ATOM     33  C   UNL     1       3.764  -4.488  29.699  0.00  0.00    +0.026 C 
ATOM     34  C   UNL     1       5.158  -5.104  29.950  0.00  0.00    +0.031 C 
ATOM     35  C   UNL     1       2.715  -5.477  30.233  0.00  0.00    +0.031 C 
ATOM     36  C   UNL     1       3.637  -3.171  30.484  0.00  0.00    +0.031 C 
ENDBRANCH  30  33
ENDBRANCH  20  29
ENDBRANCH  18  19
ENDBRANCH  15  18
ENDBRANCH   1  15
BRANCH   1  37
ATOM     37  C   UNL     1       9.207  -3.777  24.817  0.00  0.00    +0.099 C 
BRANCH  37  38
ATOM     38  S   UNL     1       8.385  -3.303  23.241  0.00  0.00    -0.123 S 
BRANCH  38  39
ATOM     39  C   UNL     1       9.180  -1.745  22.890  0.00  0.00    +0.008 A 
ATOM     40  C   UNL     1      10.051  -1.174  23.820  0.00  0.00    +0.015 A 
ATOM     41  C   UNL     1      10.598   0.091  23.592  0.00  0.00    +0.001 A 
ATOM     42  C   UNL     1      10.267   0.794  22.436  0.00  0.00    +0.000 A 
ATOM     43  C   UNL     1       9.394   0.234  21.503  0.00  0.00    +0.001 A 
ATOM     44  C   UNL     1       8.848  -1.033  21.732  0.00  0.00    +0.015 A 
ENDBRANCH  38  39
ENDBRANCH  37  38
ENDBRANCH   1  37
TORSDOF 12
ENDMDL
MODEL 6
REMARK VINA RESULT:      -6.8      3.737      6.748
REMARK  Name = 
REMARK  16 active torsions:
REMARK  status: ('A' for Active; 'I' for Inactive)
REMARK    1  A    between atoms: C_1  and  C_2
REMARK    2  A    between atoms: C_3  and  C_9
REMARK    3  A    between atoms: C_7  and  O_8
REMARK    4  A    between atoms: N_11  and  C_12
REMARK    5  A    between atoms: C_12  and  C_14
REMARK    6  A    between atoms: C_12  and  C_22
REMARK    7  A    between atoms: C_14  and  S_15
REMARK    8  A    between atoms: S_15  and  C_16
REMARK    9  A    between atoms: C_22  and  C_24
REMARK   10  A    between atoms: C_22  and  O_45
REMARK   11  A    between atoms: C_24  and  N_25
REMARK   12  A    between atoms: C_36  and  C_38
REMARK   13  A    between atoms: N_40  and  C_41
REMARK   14  A    between atoms: C_41  and  C_42
REMARK   15  A    between atoms: C_41  and  C_43
REMARK   16  A    between atoms: C_41  and  C_44
REMARK                            x       y       z     vdW  Elec       q    Type
REMARK                         _______ _______ _______ _____ _____    ______ ____
ROOT
ATOM      1  C   UNL     1       8.338   1.213  23.577  0.00  0.00    +0.113 C 
ENDROOT
BRANCH   1   3
ATOM      2  C   UNL     1       8.797   3.792  23.409  0.00  0.00    +0.245 C 
ATOM      3  N   UNL     1       9.020   2.526  23.896  0.00  0.00    -0.305 N 
ATOM      4  H   UNL     1       9.826   2.415  24.496  0.00  0.00    +0.149 HD
ATOM      5  O   UNL     1       7.901   4.014  22.590  0.00  0.00    -0.270 OA
BRANCH   2  12
ATOM      6  C   UNL     1      11.912   4.519  23.060  0.00  0.00    +0.048 C 
ATOM      7  C   UNL     1      10.952   5.237  23.965  0.00  0.00    +0.003 A 
ATOM      8  C   UNL     1      11.492   6.277  24.773  0.00  0.00    +0.120 A 
ATOM      9  C   UNL     1      10.696   7.089  25.572  0.00  0.00    +0.046 A 
ATOM     10  C   UNL     1       9.325   6.887  25.571  0.00  0.00    +0.004 A 
ATOM     11  C   UNL     1       8.772   5.835  24.822  0.00  0.00    +0.013 A 
ATOM     12  C   UNL     1       9.566   4.962  24.042  0.00  0.00    +0.043 A 
BRANCH   8  13
ATOM     13  O   UNL     1      12.852   6.472  24.768  0.00  0.00    -0.506 OA
ATOM     14  H   UNL     1      13.029   7.426  24.682  0.00  0.00    +0.292 HD
ENDBRANCH   8  13
ENDBRANCH   2  12
ENDBRANCH   1   3
BRANCH   1  15
ATOM     15  C   UNL     1       6.782   1.089  23.809  0.00  0.00    +0.149 C 
BRANCH  15  16
ATOM     16  O   UNL     1       6.056   1.581  22.675  0.00  0.00    -0.389 OA
ATOM     17  H   UNL     1       6.735   1.896  22.042  0.00  0.00    +0.210 HD
ENDBRANCH  15  16
BRANCH  15  18
ATOM     18  C   UNL     1       6.211   1.762  25.166  0.00  0.00    +0.118 C 
BRANCH  18  19
ATOM     19  N   UNL     1       7.084   1.822  26.369  0.00  0.00    -0.289 NA
ATOM     20  C   UNL     1       6.856   0.827  27.482  0.00  0.00    +0.143 C 
ATOM     21  C   UNL     1       5.727   1.150  28.488  0.00  0.00    +0.032 C 
ATOM     22  C   UNL     1       5.852   2.559  29.068  0.00  0.00    -0.005 C 
ATOM     23  C   UNL     1       5.947   3.574  27.934  0.00  0.00    +0.006 C 
ATOM     24  C   UNL     1       4.580   3.899  27.294  0.00  0.00    +0.005 C 
ATOM     25  C   UNL     1       3.292   3.379  27.955  0.00  0.00    +0.000 C 
ATOM     26  C   UNL     1       3.359   2.843  29.380  0.00  0.00    +0.000 C 
ATOM     27  C   UNL     1       4.726   2.949  30.023  0.00  0.00    +0.004 C 
ATOM     28  C   UNL     1       7.113   3.170  26.985  0.00  0.00    +0.089 C 
BRANCH  20  29
ATOM     29  C   UNL     1       6.759  -0.667  27.101  0.00  0.00    +0.231 C 
ATOM     30  N   UNL     1       5.552  -1.272  27.377  0.00  0.00    -0.309 N 
ATOM     31  H   UNL     1       4.914  -0.748  27.966  0.00  0.00    +0.149 HD
ATOM     32  O   UNL     1       7.641  -1.233  26.452  0.00  0.00    -0.274 OA
BRANCH  30  33
ATOM     33  C   UNL     1       5.122  -2.561  26.796  0.00  0.00    +0.026 C 
ATOM     34  C   UNL     1       4.928  -2.457  25.267  0.00  0.00    +0.031 C 
ATOM     35  C   UNL     1       3.766  -2.945  27.411  0.00  0.00    +0.031 C 
ATOM     36  C   UNL     1       6.133  -3.677  27.109  0.00  0.00    +0.031 C 
ENDBRANCH  30  33
ENDBRANCH  20  29
ENDBRANCH  18  19
ENDBRANCH  15  18
ENDBRANCH   1  15
BRANCH   1  37
ATOM     37  C   UNL     1       8.705   0.693  22.160  0.00  0.00    +0.099 C 
BRANCH  37  38
ATOM     38  S   UNL     1      10.127  -0.475  22.204  0.00  0.00    -0.123 S 
BRANCH  38  39
ATOM     39  C   UNL     1       9.343  -1.951  22.826  0.00  0.00    +0.008 A 
ATOM     40  C   UNL     1       8.133  -2.388  22.284  0.00  0.00    +0.015 A 
ATOM     41  C   UNL     1       7.468  -3.486  22.834  0.00  0.00    +0.001 A 
ATOM     42  C   UNL     1       8.008  -4.147  23.935  0.00  0.00    +0.000 A 
ATOM     43  C   UNL     1       9.214  -3.714  24.487  0.00  0.00    +0.001 A 
ATOM     44  C   UNL     1       9.879  -2.615  23.935  0.00  0.00    +0.015 A 
ENDBRANCH  38  39
ENDBRANCH  37  38
ENDBRANCH   1  37
TORSDOF 12
ENDMDL
MODEL 7
REMARK VINA RESULT:      -6.8      3.048      6.318
REMARK  Name = 
REMARK  16 active torsions:
REMARK  status: ('A' for Active; 'I' for Inactive)
REMARK    1  A    between atoms: C_1  and  C_2
REMARK    2  A    between atoms: C_3  and  C_9
REMARK    3  A    between atoms: C_7  and  O_8
REMARK    4  A    between atoms: N_11  and  C_12
REMARK    5  A    between atoms: C_12  and  C_14
REMARK    6  A    between atoms: C_12  and  C_22
REMARK    7  A    between atoms: C_14  and  S_15
REMARK    8  A    between atoms: S_15  and  C_16
REMARK    9  A    between atoms: C_22  and  C_24
REMARK   10  A    between atoms: C_22  and  O_45
REMARK   11  A    between atoms: C_24  and  N_25
REMARK   12  A    between atoms: C_36  and  C_38
REMARK   13  A    between atoms: N_40  and  C_41
REMARK   14  A    between atoms: C_41  and  C_42
REMARK   15  A    between atoms: C_41  and  C_43
REMARK   16  A    between atoms: C_41  and  C_44
REMARK                            x       y       z     vdW  Elec       q    Type
REMARK                         _______ _______ _______ _____ _____    ______ ____
ROOT
ATOM      1  C   UNL     1       7.193   0.951  27.190  0.00  0.00    +0.113 C 
ENDROOT
BRANCH   1   3
ATOM      2  C   UNL     1       6.942   2.576  25.144  0.00  0.00    +0.245 C 
ATOM      3  N   UNL     1       7.594   2.056  26.238  0.00  0.00    -0.305 N 
ATOM      4  H   UNL     1       8.537   2.386  26.393  0.00  0.00    +0.149 HD
ATOM      5  O   UNL     1       5.828   2.166  24.808  0.00  0.00    -0.270 OA
BRANCH   2  12
ATOM      6  C   UNL     1       5.849   4.110  22.536  0.00  0.00    +0.048 C 
ATOM      7  C   UNL     1       7.124   4.435  23.259  0.00  0.00    +0.003 A 
ATOM      8  C   UNL     1       7.933   5.463  22.697  0.00  0.00    +0.120 A 
ATOM      9  C   UNL     1       9.081   5.934  23.324  0.00  0.00    +0.046 A 
ATOM     10  C   UNL     1       9.443   5.392  24.547  0.00  0.00    +0.004 A 
ATOM     11  C   UNL     1       8.690   4.342  25.099  0.00  0.00    +0.013 A 
ATOM     12  C   UNL     1       7.548   3.809  24.455  0.00  0.00    +0.043 A 
BRANCH   8  13
ATOM     13  O   UNL     1       7.568   5.996  21.485  0.00  0.00    -0.506 OA
ATOM     14  H   UNL     1       6.979   5.366  21.032  0.00  0.00    +0.292 HD
ENDBRANCH   8  13
ENDBRANCH   2  12
ENDBRANCH   1   3
BRANCH   1  15
ATOM     15  C   UNL     1       8.023  -0.392  27.187  0.00  0.00    +0.149 C 
BRANCH  15  16
ATOM     16  O   UNL     1       9.262  -0.225  26.487  0.00  0.00    -0.389 OA
ATOM     17  H   UNL     1       9.909  -0.796  26.953  0.00  0.00    +0.210 HD
ENDBRANCH  15  16
BRANCH  15  18
ATOM     18  C   UNL     1       7.248  -1.704  26.638  0.00  0.00    +0.118 C 
BRANCH  18  19
ATOM     19  N   UNL     1       8.015  -2.741  25.897  0.00  0.00    -0.289 NA
ATOM     20  C   UNL     1       7.730  -2.944  24.428  0.00  0.00    +0.143 C 
ATOM     21  C   UNL     1       6.509  -3.822  24.067  0.00  0.00    +0.032 C 
ATOM     22  C   UNL     1       6.535  -5.173  24.784  0.00  0.00    -0.005 C 
ATOM     23  C   UNL     1       6.688  -4.955  26.284  0.00  0.00    +0.006 C 
ATOM     24  C   UNL     1       5.369  -4.550  26.977  0.00  0.00    +0.005 C 
ATOM     25  C   UNL     1       4.049  -4.615  26.189  0.00  0.00    +0.000 C 
ATOM     26  C   UNL     1       4.015  -5.375  24.868  0.00  0.00    +0.000 C 
ATOM     27  C   UNL     1       5.319  -6.055  24.507  0.00  0.00    +0.004 C 
ATOM     28  C   UNL     1       7.943  -4.073  26.546  0.00  0.00    +0.089 C 
BRANCH  20  29
ATOM     29  C   UNL     1       7.719  -1.695  23.519  0.00  0.00    +0.231 C 
ATOM     30  N   UNL     1       8.789  -0.840  23.676  0.00  0.00    -0.309 N 
ATOM     31  H   UNL     1       9.376  -1.002  24.486  0.00  0.00    +0.149 HD
ATOM     32  O   UNL     1       6.899  -1.556  22.610  0.00  0.00    -0.274 OA
BRANCH  30  33
ATOM     33  C   UNL     1       9.162   0.204  22.698  0.00  0.00    +0.026 C 
ATOM     34  C   UNL     1       7.923   0.972  22.189  0.00  0.00    +0.031 C 
ATOM     35  C   UNL     1       9.818  -0.476  21.485  0.00  0.00    +0.031 C 
ATOM     36  C   UNL     1      10.167   1.198  23.303  0.00  0.00    +0.031 C 
ENDBRANCH  30  33
ENDBRANCH  20  29
ENDBRANCH  18  19
ENDBRANCH  15  18
ENDBRANCH   1  15
BRANCH   1  37
ATOM     37  C   UNL     1       7.024   1.465  28.646  0.00  0.00    +0.099 C 
BRANCH  37  38
ATOM     38  S   UNL     1       5.374   2.235  28.915  0.00  0.00    -0.123 S 
BRANCH  38  39
ATOM     39  C   UNL     1       5.641   3.867  28.250  0.00  0.00    +0.008 A 
ATOM     40  C   UNL     1       4.753   4.401  27.313  0.00  0.00    +0.015 A 
ATOM     41  C   UNL     1       5.012   5.637  26.717  0.00  0.00    +0.001 A 
ATOM     42  C   UNL     1       6.167   6.341  27.049  0.00  0.00    +0.000 A 
ATOM     43  C   UNL     1       7.062   5.815  27.980  0.00  0.00    +0.001 A 
ATOM     44  C   UNL     1       6.802   4.577  28.576  0.00  0.00    +0.015 A 
ENDBRANCH  38  39
ENDBRANCH  37  38
ENDBRANCH   1  37
TORSDOF 12
ENDMDL
MODEL 8
REMARK VINA RESULT:      -6.7      3.073      6.667
REMARK  Name = 
REMARK  16 active torsions:
REMARK  status: ('A' for Active; 'I' for Inactive)
REMARK    1  A    between atoms: C_1  and  C_2
REMARK    2  A    between atoms: C_3  and  C_9
REMARK    3  A    between atoms: C_7  and  O_8
REMARK    4  A    between atoms: N_11  and  C_12
REMARK    5  A    between atoms: C_12  and  C_14
REMARK    6  A    between atoms: C_12  and  C_22
REMARK    7  A    between atoms: C_14  and  S_15
REMARK    8  A    between atoms: S_15  and  C_16
REMARK    9  A    between atoms: C_22  and  C_24
REMARK   10  A    between atoms: C_22  and  O_45
REMARK   11  A    between atoms: C_24  and  N_25
REMARK   12  A    between atoms: C_36  and  C_38
REMARK   13  A    between atoms: N_40  and  C_41
REMARK   14  A    between atoms: C_41  and  C_42
REMARK   15  A    between atoms: C_41  and  C_43
REMARK   16  A    between atoms: C_41  and  C_44
REMARK                            x       y       z     vdW  Elec       q    Type
REMARK                         _______ _______ _______ _____ _____    ______ ____
ROOT
ATOM      1  C   UNL     1       7.146   1.079  27.120  0.00  0.00    +0.113 C 
ENDROOT
BRANCH   1   3
ATOM      2  C   UNL     1       6.741   3.032  25.414  0.00  0.00    +0.245 C 
ATOM      3  N   UNL     1       7.527   2.185  26.161  0.00  0.00    -0.305 N 
ATOM      4  H   UNL     1       8.521   2.228  25.984  0.00  0.00    +0.149 HD
ATOM      5  O   UNL     1       5.510   2.987  25.478  0.00  0.00    -0.270 OA
BRANCH   2  12
ATOM      6  C   UNL     1       5.758   4.423  22.684  0.00  0.00    +0.048 C 
ATOM      7  C   UNL     1       7.051   4.718  23.389  0.00  0.00    +0.003 A 
ATOM      8  C   UNL     1       7.928   5.642  22.752  0.00  0.00    +0.120 A 
ATOM      9  C   UNL     1       9.104   6.084  23.348  0.00  0.00    +0.046 A 
ATOM     10  C   UNL     1       9.426   5.617  24.613  0.00  0.00    +0.004 A 
ATOM     11  C   UNL     1       8.603   4.667  25.240  0.00  0.00    +0.013 A 
ATOM     12  C   UNL     1       7.430   4.163  24.633  0.00  0.00    +0.043 A 
BRANCH   8  13
ATOM     13  O   UNL     1       7.602   6.100  21.499  0.00  0.00    -0.506 OA
ATOM     14  H   UNL     1       6.923   5.514  21.120  0.00  0.00    +0.292 HD
ENDBRANCH   8  13
ENDBRANCH   2  12
ENDBRANCH   1   3
BRANCH   1  15
ATOM     15  C   UNL     1       8.043  -0.219  27.176  0.00  0.00    +0.149 C 
BRANCH  15  16
ATOM     16  O   UNL     1       9.262  -0.029  26.447  0.00  0.00    -0.389 OA
ATOM     17  H   UNL     1       9.683   0.766  26.837  0.00  0.00    +0.210 HD
ENDBRANCH  15  16
BRANCH  15  18
ATOM     18  C   UNL     1       7.329  -1.596  26.713  0.00  0.00    +0.118 C 
BRANCH  18  19
ATOM     19  N   UNL     1       8.090  -2.561  25.876  0.00  0.00    -0.289 NA
ATOM     20  C   UNL     1       7.713  -2.716  24.422  0.00  0.00    +0.143 C 
ATOM     21  C   UNL     1       6.513  -3.638  24.104  0.00  0.00    +0.032 C 
ATOM     22  C   UNL     1       6.652  -5.015  24.754  0.00  0.00    -0.005 C 
ATOM     23  C   UNL     1       6.899  -4.854  26.250  0.00  0.00    +0.006 C 
ATOM     24  C   UNL     1       5.614  -4.546  27.048  0.00  0.00    +0.005 C 
ATOM     25  C   UNL     1       4.247  -4.643  26.349  0.00  0.00    +0.000 C 
ATOM     26  C   UNL     1       4.157  -5.347  25.000  0.00  0.00    +0.000 C 
ATOM     27  C   UNL     1       5.463  -5.945  24.520  0.00  0.00    +0.004 C 
ATOM     28  C   UNL     1       8.126  -3.921  26.466  0.00  0.00    +0.089 C 
BRANCH  20  29
ATOM     29  C   UNL     1       7.580  -1.431  23.574  0.00  0.00    +0.231 C 
ATOM     30  N   UNL     1       8.644  -0.558  23.651  0.00  0.00    -0.309 N 
ATOM     31  H   UNL     1       9.318  -0.740  24.386  0.00  0.00    +0.149 HD
ATOM     32  O   UNL     1       6.663  -1.275  22.765  0.00  0.00    -0.274 OA
BRANCH  30  33
ATOM     33  C   UNL     1       8.889   0.533  22.685  0.00  0.00    +0.026 C 
ATOM     34  C   UNL     1       7.578   1.252  22.299  0.00  0.00    +0.031 C 
ATOM     35  C   UNL     1       9.481  -0.074  21.402  0.00  0.00    +0.031 C 
ATOM     36  C   UNL     1       9.888   1.558  23.246  0.00  0.00    +0.031 C 
ENDBRANCH  30  33
ENDBRANCH  20  29
ENDBRANCH  18  19
ENDBRANCH  15  18
ENDBRANCH   1  15
BRANCH   1  37
ATOM     37  C   UNL     1       6.894   1.611  28.557  0.00  0.00    +0.099 C 
BRANCH  37  38
ATOM     38  S   UNL     1       5.121   2.016  28.838  0.00  0.00    -0.123 S 
BRANCH  38  39
ATOM     39  C   UNL     1       4.373   0.402  28.711  0.00  0.00    +0.008 A 
ATOM     40  C   UNL     1       3.727   0.016  27.534  0.00  0.00    +0.015 A 
ATOM     41  C   UNL     1       3.055  -1.206  27.465  0.00  0.00    +0.001 A 
ATOM     42  C   UNL     1       3.020  -2.045  28.577  0.00  0.00    +0.000 A 
ATOM     43  C   UNL     1       3.658  -1.666  29.758  0.00  0.00    +0.001 A 
ATOM     44  C   UNL     1       4.331  -0.442  29.826  0.00  0.00    +0.015 A 
ENDBRANCH  38  39
ENDBRANCH  37  38
ENDBRANCH   1  37
TORSDOF 12
ENDMDL
MODEL 9
REMARK VINA RESULT:      -6.7      2.728      8.828
REMARK  Name = 
REMARK  16 active torsions:
REMARK  status: ('A' for Active; 'I' for Inactive)
REMARK    1  A    between atoms: C_1  and  C_2
REMARK    2  A    between atoms: C_3  and  C_9
REMARK    3  A    between atoms: C_7  and  O_8
REMARK    4  A    between atoms: N_11  and  C_12
REMARK    5  A    between atoms: C_12  and  C_14
REMARK    6  A    between atoms: C_12  and  C_22
REMARK    7  A    between atoms: C_14  and  S_15
REMARK    8  A    between atoms: S_15  and  C_16
REMARK    9  A    between atoms: C_22  and  C_24
REMARK   10  A    between atoms: C_22  and  O_45
REMARK   11  A    between atoms: C_24  and  N_25
REMARK   12  A    between atoms: C_36  and  C_38
REMARK   13  A    between atoms: N_40  and  C_41
REMARK   14  A    between atoms: C_41  and  C_42
REMARK   15  A    between atoms: C_41  and  C_43
REMARK   16  A    between atoms: C_41  and  C_44
REMARK                            x       y       z     vdW  Elec       q    Type
REMARK                         _______ _______ _______ _____ _____    ______ ____
ROOT
ATOM      1  C   UNL     1       5.109  -1.967  26.643  0.00  0.00    +0.113 C 
ENDROOT
BRANCH   1   3
ATOM      2  C   UNL     1       6.825  -3.325  25.192  0.00  0.00    +0.245 C 
ATOM      3  N   UNL     1       5.615  -2.714  25.428  0.00  0.00    -0.305 N 
ATOM      4  H   UNL     1       4.982  -2.663  24.642  0.00  0.00    +0.149 HD
ATOM      5  O   UNL     1       7.708  -3.350  26.054  0.00  0.00    -0.270 OA
BRANCH   2  12
ATOM      6  C   UNL     1       5.693  -2.616  22.265  0.00  0.00    +0.048 C 
ATOM      7  C   UNL     1       6.422  -3.878  22.629  0.00  0.00    +0.003 A 
ATOM      8  C   UNL     1       6.558  -4.855  21.602  0.00  0.00    +0.120 A 
ATOM      9  C   UNL     1       7.302  -6.017  21.774  0.00  0.00    +0.046 A 
ATOM     10  C   UNL     1       7.943  -6.225  22.985  0.00  0.00    +0.004 A 
ATOM     11  C   UNL     1       7.783  -5.301  24.031  0.00  0.00    +0.013 A 
ATOM     12  C   UNL     1       6.989  -4.137  23.898  0.00  0.00    +0.043 A 
BRANCH   8  13
ATOM     13  O   UNL     1       5.920  -4.642  20.404  0.00  0.00    -0.506 OA
ATOM     14  H   UNL     1       6.259  -3.817  20.014  0.00  0.00    +0.292 HD
ENDBRANCH   8  13
ENDBRANCH   2  12
ENDBRANCH   1   3
BRANCH   1  15
ATOM     15  C   UNL     1       5.131  -0.389  26.626  0.00  0.00    +0.149 C 
BRANCH  15  16
ATOM     16  O   UNL     1       3.825   0.138  26.360  0.00  0.00    -0.389 OA
ATOM     17  H   UNL     1       3.229  -0.292  27.009  0.00  0.00    +0.210 HD
ENDBRANCH  15  16
BRANCH  15  18
ATOM     18  C   UNL     1       6.216   0.296  25.639  0.00  0.00    +0.118 C 
BRANCH  18  19
ATOM     19  N   UNL     1       7.457   0.877  26.217  0.00  0.00    -0.289 NA
ATOM     20  C   UNL     1       7.866   2.272  25.805  0.00  0.00    +0.143 C 
ATOM     21  C   UNL     1       8.621   2.412  24.463  0.00  0.00    +0.032 C 
ATOM     22  C   UNL     1       9.822   1.470  24.373  0.00  0.00    -0.005 C 
ATOM     23  C   UNL     1       9.376   0.041  24.658  0.00  0.00    +0.006 C 
ATOM     24  C   UNL     1       8.687  -0.633  23.451  0.00  0.00    +0.005 C 
ATOM     25  C   UNL     1       8.707   0.066  22.081  0.00  0.00    +0.000 C 
ATOM     26  C   UNL     1       9.667   1.229  21.860  0.00  0.00    +0.000 C 
ATOM     27  C   UNL     1      10.568   1.527  23.041  0.00  0.00    +0.004 C 
ATOM     28  C   UNL     1       8.638   0.001  26.028  0.00  0.00    +0.089 C 
BRANCH  20  29
ATOM     29  C   UNL     1       6.798   3.386  25.884  0.00  0.00    +0.231 C 
ATOM     30  N   UNL     1       6.471   3.979  24.684  0.00  0.00    -0.309 N 
ATOM     31  H   UNL     1       7.082   3.772  23.902  0.00  0.00    +0.149 HD
ATOM     32  O   UNL     1       6.170   3.615  26.920  0.00  0.00    -0.274 OA
BRANCH  30  33
ATOM     33  C   UNL     1       5.260   4.798  24.470  0.00  0.00    +0.026 C 
ATOM     34  C   UNL     1       3.975   4.008  24.804  0.00  0.00    +0.031 C 
ATOM     35  C   UNL     1       5.191   5.190  22.985  0.00  0.00    +0.031 C 
ATOM     36  C   UNL     1       5.302   6.084  25.313  0.00  0.00    +0.031 C 
ENDBRANCH  30  33
ENDBRANCH  20  29
ENDBRANCH  18  19
ENDBRANCH  15  18
ENDBRANCH   1  15
BRANCH   1  37
ATOM     37  C   UNL     1       3.713  -2.472  27.101  0.00  0.00    +0.099 C 
BRANCH  37  38
ATOM     38  S   UNL     1       3.755  -4.240  27.608  0.00  0.00    -0.123 S 
BRANCH  38  39
ATOM     39  C   UNL     1       3.654  -5.057  26.026  0.00  0.00    +0.008 A 
ATOM     40  C   UNL     1       4.435  -6.185  25.763  0.00  0.00    +0.015 A 
ATOM     41  C   UNL     1       4.432  -6.767  24.494  0.00  0.00    +0.001 A 
ATOM     42  C   UNL     1       3.654  -6.217  23.478  0.00  0.00    +0.000 A 
ATOM     43  C   UNL     1       2.874  -5.089  23.729  0.00  0.00    +0.001 A 
ATOM     44  C   UNL     1       2.878  -4.506  25.000  0.00  0.00    +0.015 A 
ENDBRANCH  38  39
ENDBRANCH  37  38
ENDBRANCH   1  37
TORSDOF 12
ENDMDL
