MODEL 1
REMARK VINA RESULT:      -5.7      0.000      0.000
REMARK  Name = 
REMARK  6 active torsions:
REMARK  status: ('A' for Active; 'I' for Inactive)
REMARK    1  A    between atoms: C_3  and  C_19
REMARK    2  A    between atoms: N_5  and  C1*_6
REMARK    3  A    between atoms: C2*_8  and  O2*_18
REMARK    4  A    between atoms: C3*_10  and  O3*_17
REMARK    5  A    between atoms: C4*_12  and  C5*_15
REMARK    6  A    between atoms: C5*_15  and  O5*_16
REMARK                            x       y       z     vdW  Elec       q    Type
REMARK                         _______ _______ _______ _____ _____    ______ ____
ROOT
ATOM      1  C1* UNL     1       9.587  -0.209  25.020  0.00  0.00    +0.270 C 
ATOM      2  O4* UNL     1      10.335  -0.252  23.783  0.00  0.00    -0.344 OA
ATOM      3  C4* UNL     1       9.609   0.514  22.793  0.00  0.00    +0.177 C 
ATOM      4  C3* UNL     1       8.212   0.775  23.354  0.00  0.00    +0.178 C 
ATOM      5  C2* UNL     1       8.472   0.825  24.851  0.00  0.00    +0.196 C 
ENDROOT
BRANCH   1   7
ATOM      6  C   UNL     1       8.418  -1.951  26.395  0.00  0.00    +0.223 A 
ATOM      7  N   UNL     1       9.136  -1.557  25.312  0.00  0.00    -0.220 N 
ATOM      8  N   UNL     1       9.455  -2.607  24.528  0.00  0.00    -0.142 NA
ATOM      9  C   UNL     1       8.905  -3.640  25.206  0.00  0.00    +0.236 A 
ATOM     10  N   UNL     1       8.245  -3.250  26.356  0.00  0.00    -0.211 NA
BRANCH   9  11
ATOM     11  C   UNL     1       9.008  -5.044  24.752  0.00  0.00    +0.281 C 
ATOM     12  N   UNL     1       9.792  -5.843  25.547  0.00  0.00    -0.323 N 
ATOM     13  H   UNL     1       9.840  -6.830  25.341  0.00  0.00    +0.145 HD
ATOM     14  H   UNL     1      10.160  -5.476  26.416  0.00  0.00    +0.145 HD
ATOM     15  O   UNL     1       8.454  -5.502  23.758  0.00  0.00    -0.267 OA
ENDBRANCH   9  11
ENDBRANCH   1   7
BRANCH   4  16
ATOM     16  O3* UNL     1       7.661   2.001  22.879  0.00  0.00    -0.386 OA
ATOM     17  H3* UNL     1       7.665   1.930  21.901  0.00  0.00    +0.210 HD
ENDBRANCH   4  16
BRANCH   5  18
ATOM     18  O2* UNL     1       8.938   2.155  25.175  0.00  0.00    -0.385 OA
ATOM     19  H2* UNL     1       9.720   2.339  24.621  0.00  0.00    +0.210 HD
ENDBRANCH   5  18
BRANCH   3  20
ATOM     20  C5* UNL     1       9.599  -0.261  21.476  0.00  0.00    +0.190 C 
BRANCH  20  21
ATOM     21  O5* UNL     1      10.203  -1.544  21.630  0.00  0.00    -0.392 OA
ATOM     22  H5* UNL     1       9.710  -2.158  21.053  0.00  0.00    +0.210 HD
ENDBRANCH  20  21
ENDBRANCH   3  20
TORSDOF 6
ENDMDL
MODEL 2
REMARK VINA RESULT:      -5.7      2.274      2.557
REMARK  Name = 
REMARK  6 active torsions:
REMARK  status: ('A' for Active; 'I' for Inactive)
REMARK    1  A    between atoms: C_3  and  C_19
REMARK    2  A    between atoms: N_5  and  C1*_6
REMARK    3  A    between atoms: C2*_8  and  O2*_18
REMARK    4  A    between atoms: C3*_10  and  O3*_17
REMARK    5  A    between atoms: C4*_12  and  C5*_15
REMARK    6  A    between atoms: C5*_15  and  O5*_16
REMARK                            x       y       z     vdW  Elec       q    Type
REMARK                         _______ _______ _______ _____ _____    ______ ____
ROOT
ATOM      1  C1* UNL     1       9.806  -1.464  24.155  0.00  0.00    +0.270 C 
ATOM      2  O4* UNL     1      10.241  -0.972  22.866  0.00  0.00    -0.344 OA
ATOM      3  C4* UNL     1       9.885   0.428  22.776  0.00  0.00    +0.177 C 
ATOM      4  C3* UNL     1       8.917   0.726  23.921  0.00  0.00    +0.178 C 
ATOM      5  C2* UNL     1       9.373  -0.256  24.988  0.00  0.00    +0.196 C 
ENDROOT
BRANCH   1   7
ATOM      6  C   UNL     1       8.197  -3.256  24.855  0.00  0.00    +0.223 A 
ATOM      7  N   UNL     1       8.769  -2.453  23.922  0.00  0.00    -0.220 N 
ATOM      8  N   UNL     1       8.297  -2.723  22.688  0.00  0.00    -0.142 NA
ATOM      9  C   UNL     1       7.431  -3.733  22.934  0.00  0.00    +0.236 A 
ATOM     10  N   UNL     1       7.345  -4.065  24.273  0.00  0.00    -0.211 NA
BRANCH   9  11
ATOM     11  C   UNL     1       6.661  -4.408  21.868  0.00  0.00    +0.281 C 
ATOM     12  N   UNL     1       7.116  -5.661  21.541  0.00  0.00    -0.323 N 
ATOM     13  H   UNL     1       6.589  -6.210  20.879  0.00  0.00    +0.145 HD
ATOM     14  H   UNL     1       7.857  -6.081  22.089  0.00  0.00    +0.145 HD
ATOM     15  O   UNL     1       5.686  -3.929  21.296  0.00  0.00    -0.267 OA
ENDBRANCH   9  11
ENDBRANCH   1   7
BRANCH   4  16
ATOM     16  O3* UNL     1       9.018   2.074  24.374  0.00  0.00    -0.386 OA
ATOM     17  H3* UNL     1       8.480   2.118  25.192  0.00  0.00    +0.210 HD
ENDBRANCH   4  16
BRANCH   5  18
ATOM     18  O2* UNL     1      10.498   0.332  25.680  0.00  0.00    -0.385 OA
ATOM     19  H2* UNL     1      10.182   1.141  26.126  0.00  0.00    +0.210 HD
ENDBRANCH   5  18
BRANCH   3  20
ATOM     20  C5* UNL     1       9.292   0.701  21.395  0.00  0.00    +0.190 C 
BRANCH  20  21
ATOM     21  O5* UNL     1       8.969   2.082  21.238  0.00  0.00    -0.392 OA
ATOM     22  H5* UNL     1       8.712   2.206  20.304  0.00  0.00    +0.210 HD
ENDBRANCH  20  21
ENDBRANCH   3  20
TORSDOF 6
ENDMDL
MODEL 3
REMARK VINA RESULT:      -5.6      1.577      2.325
REMARK  Name = 
REMARK  6 active torsions:
REMARK  status: ('A' for Active; 'I' for Inactive)
REMARK    1  A    between atoms: C_3  and  C_19
REMARK    2  A    between atoms: N_5  and  C1*_6
REMARK    3  A    between atoms: C2*_8  and  O2*_18
REMARK    4  A    between atoms: C3*_10  and  O3*_17
REMARK    5  A    between atoms: C4*_12  and  C5*_15
REMARK    6  A    between atoms: C5*_15  and  O5*_16
REMARK                            x       y       z     vdW  Elec       q    Type
REMARK                         _______ _______ _______ _____ _____    ______ ____
ROOT
ATOM      1  C1* UNL     1       9.942  -1.033  23.319  0.00  0.00    +0.270 C 
ATOM      2  O4* UNL     1       9.118  -0.315  22.372  0.00  0.00    -0.344 OA
ATOM      3  C4* UNL     1       8.576   0.848  23.040  0.00  0.00    +0.177 C 
ATOM      4  C3* UNL     1       8.822   0.669  24.538  0.00  0.00    +0.178 C 
ATOM      5  C2* UNL     1      10.104  -0.147  24.556  0.00  0.00    +0.196 C 
ENDROOT
BRANCH   1   7
ATOM      6  C   UNL     1       8.268  -2.850  22.881  0.00  0.00    +0.223 A 
ATOM      7  N   UNL     1       9.315  -2.319  23.563  0.00  0.00    -0.220 N 
ATOM      8  N   UNL     1       9.693  -3.122  24.579  0.00  0.00    -0.142 NA
ATOM      9  C   UNL     1       8.810  -4.142  24.474  0.00  0.00    +0.236 A 
ATOM     10  N   UNL     1       7.931  -3.997  23.417  0.00  0.00    -0.211 NA
BRANCH   9  11
ATOM     11  C   UNL     1       8.798  -5.291  25.404  0.00  0.00    +0.281 C 
ATOM     12  N   UNL     1      10.015  -5.901  25.573  0.00  0.00    -0.323 N 
ATOM     13  H   UNL     1      10.096  -6.640  26.255  0.00  0.00    +0.145 HD
ATOM     14  H   UNL     1      10.841  -5.492  25.152  0.00  0.00    +0.145 HD
ATOM     15  O   UNL     1       7.806  -5.699  26.001  0.00  0.00    -0.267 OA
ENDBRANCH   9  11
ENDBRANCH   1   7
BRANCH   4  16
ATOM     16  O3* UNL     1       8.986   1.915  25.210  0.00  0.00    -0.386 OA
ATOM     17  H3* UNL     1       8.235   2.473  24.919  0.00  0.00    +0.210 HD
ENDBRANCH   4  16
BRANCH   5  18
ATOM     18  O2* UNL     1      11.213   0.768  24.402  0.00  0.00    -0.385 OA
ATOM     19  H2* UNL     1      11.987   0.250  24.111  0.00  0.00    +0.210 HD
ENDBRANCH   5  18
BRANCH   3  20
ATOM     20  C5* UNL     1       7.097   0.983  22.681  0.00  0.00    +0.190 C 
BRANCH  20  21
ATOM     21  O5* UNL     1       6.312   0.004  23.361  0.00  0.00    -0.392 OA
ATOM     22  H5* UNL     1       6.044  -0.655  22.692  0.00  0.00    +0.210 HD
ENDBRANCH  20  21
ENDBRANCH   3  20
TORSDOF 6
ENDMDL
MODEL 4
REMARK VINA RESULT:      -5.5      1.861      3.123
REMARK  Name = 
REMARK  6 active torsions:
REMARK  status: ('A' for Active; 'I' for Inactive)
REMARK    1  A    between atoms: C_3  and  C_19
REMARK    2  A    between atoms: N_5  and  C1*_6
REMARK    3  A    between atoms: C2*_8  and  O2*_18
REMARK    4  A    between atoms: C3*_10  and  O3*_17
REMARK    5  A    between atoms: C4*_12  and  C5*_15
REMARK    6  A    between atoms: C5*_15  and  O5*_16
REMARK                            x       y       z     vdW  Elec       q    Type
REMARK                         _______ _______ _______ _____ _____    ______ ____
ROOT
ATOM      1  C1* UNL     1       8.083  -1.967  22.445  0.00  0.00    +0.270 C 
ATOM      2  O4* UNL     1       7.333  -0.808  22.876  0.00  0.00    -0.344 OA
ATOM      3  C4* UNL     1       8.273   0.180  23.360  0.00  0.00    +0.177 C 
ATOM      4  C3* UNL     1       9.623  -0.517  23.523  0.00  0.00    +0.178 C 
ATOM      5  C2* UNL     1       9.565  -1.585  22.443  0.00  0.00    +0.196 C 
ENDROOT
BRANCH   1   7
ATOM      6  C   UNL     1       6.499  -3.606  23.493  0.00  0.00    +0.223 A 
ATOM      7  N   UNL     1       7.735  -3.070  23.322  0.00  0.00    -0.220 N 
ATOM      8  N   UNL     1       8.637  -3.655  24.135  0.00  0.00    -0.142 NA
ATOM      9  C   UNL     1       7.874  -4.550  24.803  0.00  0.00    +0.236 A 
ATOM     10  N   UNL     1       6.550  -4.544  24.406  0.00  0.00    -0.211 NA
BRANCH   9  11
ATOM     11  C   UNL     1       8.415  -5.440  25.853  0.00  0.00    +0.281 C 
ATOM     12  N   UNL     1       9.721  -5.815  25.665  0.00  0.00    -0.323 N 
ATOM     13  H   UNL     1      10.178  -6.355  26.385  0.00  0.00    +0.145 HD
ATOM     14  H   UNL     1      10.255  -5.404  24.909  0.00  0.00    +0.145 HD
ATOM     15  O   UNL     1       7.786  -5.832  26.832  0.00  0.00    -0.267 OA
ENDBRANCH   9  11
ENDBRANCH   1   7
BRANCH   4  16
ATOM     16  O3* UNL     1      10.718   0.373  23.319  0.00  0.00    -0.386 OA
ATOM     17  H3* UNL     1      10.527   1.157  23.875  0.00  0.00    +0.210 HD
ENDBRANCH   4  16
BRANCH   5  18
ATOM     18  O2* UNL     1       9.944  -0.969  21.191  0.00  0.00    -0.385 OA
ATOM     19  H2* UNL     1       9.149  -0.549  20.813  0.00  0.00    +0.210 HD
ENDBRANCH   5  18
BRANCH   3  20
ATOM     20  C5* UNL     1       7.739   0.779  24.660  0.00  0.00    +0.190 C 
BRANCH  20  21
ATOM     21  O5* UNL     1       8.804   1.103  25.552  0.00  0.00    -0.392 OA
ATOM     22  H5* UNL     1       9.094   0.264  25.960  0.00  0.00    +0.210 HD
ENDBRANCH  20  21
ENDBRANCH   3  20
TORSDOF 6
ENDMDL
MODEL 5
REMARK VINA RESULT:      -5.4      3.476      4.699
REMARK  Name = 
REMARK  6 active torsions:
REMARK  status: ('A' for Active; 'I' for Inactive)
REMARK    1  A    between atoms: C_3  and  C_19
REMARK    2  A    between atoms: N_5  and  C1*_6
REMARK    3  A    between atoms: C2*_8  and  O2*_18
REMARK    4  A    between atoms: C3*_10  and  O3*_17
REMARK    5  A    between atoms: C4*_12  and  C5*_15
REMARK    6  A    between atoms: C5*_15  and  O5*_16
REMARK                            x       y       z     vdW  Elec       q    Type
REMARK                         _______ _______ _______ _____ _____    ______ ____
ROOT
ATOM      1  C1* UNL     1       8.168  -4.873  24.288  0.00  0.00    +0.270 C 
ATOM      2  O4* UNL     1       7.536  -4.745  22.993  0.00  0.00    -0.344 OA
ATOM      3  C4* UNL     1       7.541  -3.345  22.627  0.00  0.00    +0.177 C 
ATOM      4  C3* UNL     1       7.906  -2.549  23.880  0.00  0.00    +0.178 C 
ATOM      5  C2* UNL     1       8.802  -3.522  24.628  0.00  0.00    +0.196 C 
ENDROOT
BRANCH   1   7
ATOM      6  C   UNL     1       5.839  -5.505  24.973  0.00  0.00    +0.223 A 
ATOM      7  N   UNL     1       7.162  -5.334  25.227  0.00  0.00    -0.220 N 
ATOM      8  N   UNL     1       7.449  -5.590  26.520  0.00  0.00    -0.142 NA
ATOM      9  C   UNL     1       6.232  -5.905  27.020  0.00  0.00    +0.236 A 
ATOM     10  N   UNL     1       5.226  -5.873  26.072  0.00  0.00    -0.211 NA
BRANCH   9  11
ATOM     11  C   UNL     1       6.012  -6.246  28.441  0.00  0.00    +0.281 C 
ATOM     12  N   UNL     1       5.501  -7.502  28.653  0.00  0.00    -0.323 N 
ATOM     13  H   UNL     1       5.403  -7.831  29.602  0.00  0.00    +0.145 HD
ATOM     14  H   UNL     1       5.399  -8.138  27.871  0.00  0.00    +0.145 HD
ATOM     15  O   UNL     1       6.257  -5.503  29.387  0.00  0.00    -0.267 OA
ENDBRANCH   9  11
ENDBRANCH   1   7
BRANCH   4  16
ATOM     16  O3* UNL     1       8.594  -1.340  23.568  0.00  0.00    -0.386 OA
ATOM     17  H3* UNL     1       8.875  -0.966  24.429  0.00  0.00    +0.210 HD
ENDBRANCH   4  16
BRANCH   5  18
ATOM     18  O2* UNL     1      10.133  -3.414  24.075  0.00  0.00    -0.385 OA
ATOM     19  H2* UNL     1      10.497  -4.316  23.998  0.00  0.00    +0.210 HD
ENDBRANCH   5  18
BRANCH   3  20
ATOM     20  C5* UNL     1       6.174  -2.978  22.052  0.00  0.00    +0.190 C 
BRANCH  20  21
ATOM     21  O5* UNL     1       5.595  -4.083  21.360  0.00  0.00    -0.392 OA
ATOM     22  H5* UNL     1       6.008  -4.890  21.722  0.00  0.00    +0.210 HD
ENDBRANCH  20  21
ENDBRANCH   3  20
TORSDOF 6
ENDMDL
MODEL 6
REMARK VINA RESULT:      -5.4      2.150      3.160
REMARK  Name = 
REMARK  6 active torsions:
REMARK  status: ('A' for Active; 'I' for Inactive)
REMARK    1  A    between atoms: C_3  and  C_19
REMARK    2  A    between atoms: N_5  and  C1*_6
REMARK    3  A    between atoms: C2*_8  and  O2*_18
REMARK    4  A    between atoms: C3*_10  and  O3*_17
REMARK    5  A    between atoms: C4*_12  and  C5*_15
REMARK    6  A    between atoms: C5*_15  and  O5*_16
REMARK                            x       y       z     vdW  Elec       q    Type
REMARK                         _______ _______ _______ _____ _____    ______ ____
ROOT
ATOM      1  C1* UNL     1       8.780   0.161  22.277  0.00  0.00    +0.270 C 
ATOM      2  O4* UNL     1       7.562   0.674  22.862  0.00  0.00    -0.344 OA
ATOM      3  C4* UNL     1       7.893   1.864  23.616  0.00  0.00    +0.177 C 
ATOM      4  C3* UNL     1       9.414   1.905  23.757  0.00  0.00    +0.178 C 
ATOM      5  C2* UNL     1       9.872   1.212  22.484  0.00  0.00    +0.196 C 
ENDROOT
BRANCH   1   7
ATOM      6  C   UNL     1      10.269  -1.630  23.210  0.00  0.00    +0.223 A 
ATOM      7  N   UNL     1       9.050  -1.131  22.880  0.00  0.00    -0.220 N 
ATOM      8  N   UNL     1       8.073  -2.028  23.126  0.00  0.00    -0.142 NA
ATOM      9  C   UNL     1       8.774  -3.083  23.601  0.00  0.00    +0.236 A 
ATOM     10  N   UNL     1      10.134  -2.847  23.675  0.00  0.00    -0.211 NA
BRANCH   9  11
ATOM     11  C   UNL     1       8.137  -4.357  23.998  0.00  0.00    +0.281 C 
ATOM     12  N   UNL     1       6.795  -4.262  24.270  0.00  0.00    -0.323 N 
ATOM     13  H   UNL     1       6.280  -5.107  24.467  0.00  0.00    +0.145 HD
ATOM     14  H   UNL     1       6.311  -3.390  24.096  0.00  0.00    +0.145 HD
ATOM     15  O   UNL     1       8.718  -5.434  24.086  0.00  0.00    -0.267 OA
ENDBRANCH   9  11
ENDBRANCH   1   7
BRANCH   4  16
ATOM     16  O3* UNL     1       9.912   3.239  23.834  0.00  0.00    -0.386 OA
ATOM     17  H3* UNL     1      10.860   3.181  23.591  0.00  0.00    +0.210 HD
ENDBRANCH   4  16
BRANCH   5  18
ATOM     18  O2* UNL     1       9.864   2.191  21.419  0.00  0.00    -0.385 OA
ATOM     19  H2* UNL     1       9.561   3.038  21.798  0.00  0.00    +0.210 HD
ENDBRANCH   5  18
BRANCH   3  20
ATOM     20  C5* UNL     1       7.161   1.822  24.957  0.00  0.00    +0.190 C 
BRANCH  20  21
ATOM     21  O5* UNL     1       8.023   2.210  26.025  0.00  0.00    -0.392 OA
ATOM     22  H5* UNL     1       8.013   1.480  26.673  0.00  0.00    +0.210 HD
ENDBRANCH  20  21
ENDBRANCH   3  20
TORSDOF 6
ENDMDL
MODEL 7
REMARK VINA RESULT:      -5.4      2.759      5.578
REMARK  Name = 
REMARK  6 active torsions:
REMARK  status: ('A' for Active; 'I' for Inactive)
REMARK    1  A    between atoms: C_3  and  C_19
REMARK    2  A    between atoms: N_5  and  C1*_6
REMARK    3  A    between atoms: C2*_8  and  O2*_18
REMARK    4  A    between atoms: C3*_10  and  O3*_17
REMARK    5  A    between atoms: C4*_12  and  C5*_15
REMARK    6  A    between atoms: C5*_15  and  O5*_16
REMARK                            x       y       z     vdW  Elec       q    Type
REMARK                         _______ _______ _______ _____ _____    ______ ____
ROOT
ATOM      1  C1* UNL     1       7.788  -2.916  22.302  0.00  0.00    +0.270 C 
ATOM      2  O4* UNL     1       8.295  -4.169  22.817  0.00  0.00    -0.344 OA
ATOM      3  C4* UNL     1       7.397  -4.624  23.856  0.00  0.00    +0.177 C 
ATOM      4  C3* UNL     1       6.479  -3.454  24.208  0.00  0.00    +0.178 C 
ATOM      5  C2* UNL     1       6.390  -2.708  22.887  0.00  0.00    +0.196 C 
ENDROOT
BRANCH   1   7
ATOM      6  C   UNL     1       9.820  -2.008  23.460  0.00  0.00    +0.223 A 
ATOM      7  N   UNL     1       8.752  -1.882  22.631  0.00  0.00    -0.220 N 
ATOM      8  N   UNL     1       8.637  -0.619  22.171  0.00  0.00    -0.142 NA
ATOM      9  C   UNL     1       9.677  -0.004  22.778  0.00  0.00    +0.236 A 
ATOM     10  N   UNL     1      10.430  -0.853  23.568  0.00  0.00    -0.211 NA
BRANCH   9  11
ATOM     11  C   UNL     1       9.968   1.436  22.607  0.00  0.00    +0.281 C 
ATOM     12  N   UNL     1       9.542   1.966  21.416  0.00  0.00    -0.323 N 
ATOM     13  H   UNL     1       9.635   2.960  21.267  0.00  0.00    +0.145 HD
ATOM     14  H   UNL     1       8.987   1.398  20.787  0.00  0.00    +0.145 HD
ATOM     15  O   UNL     1      10.537   2.139  23.437  0.00  0.00    -0.267 OA
ENDBRANCH   9  11
ENDBRANCH   1   7
BRANCH   4  16
ATOM     16  O3* UNL     1       5.196  -3.890  24.650  0.00  0.00    -0.386 OA
ATOM     17  H3* UNL     1       5.304  -4.111  25.598  0.00  0.00    +0.210 HD
ENDBRANCH   4  16
BRANCH   5  18
ATOM     18  O2* UNL     1       5.383  -3.359  22.078  0.00  0.00    -0.385 OA
ATOM     19  H2* UNL     1       5.771  -4.182  21.726  0.00  0.00    +0.210 HD
ENDBRANCH   5  18
BRANCH   3  20
ATOM     20  C5* UNL     1       8.222  -5.125  25.041  0.00  0.00    +0.190 C 
BRANCH  20  21
ATOM     21  O5* UNL     1       9.469  -5.667  24.606  0.00  0.00    -0.392 OA
ATOM     22  H5* UNL     1       9.277  -6.218  23.822  0.00  0.00    +0.210 HD
ENDBRANCH  20  21
ENDBRANCH   3  20
TORSDOF 6
ENDMDL
MODEL 8
REMARK VINA RESULT:      -5.4      1.917      2.269
REMARK  Name = 
REMARK  6 active torsions:
REMARK  status: ('A' for Active; 'I' for Inactive)
REMARK    1  A    between atoms: C_3  and  C_19
REMARK    2  A    between atoms: N_5  and  C1*_6
REMARK    3  A    between atoms: C2*_8  and  O2*_18
REMARK    4  A    between atoms: C3*_10  and  O3*_17
REMARK    5  A    between atoms: C4*_12  and  C5*_15
REMARK    6  A    between atoms: C5*_15  and  O5*_16
REMARK                            x       y       z     vdW  Elec       q    Type
REMARK                         _______ _______ _______ _____ _____    ______ ____
ROOT
ATOM      1  C1* UNL     1       7.772  -0.054  24.448  0.00  0.00    +0.270 C 
ATOM      2  O4* UNL     1       8.810   0.940  24.609  0.00  0.00    -0.344 OA
ATOM      3  C4* UNL     1       8.797   1.796  23.442  0.00  0.00    +0.177 C 
ATOM      4  C3* UNL     1       7.929   1.112  22.386  0.00  0.00    +0.178 C 
ATOM      5  C2* UNL     1       6.927   0.351  23.239  0.00  0.00    +0.196 C 
ENDROOT
BRANCH   1   7
ATOM      6  C   UNL     1       9.714  -1.584  24.024  0.00  0.00    +0.223 A 
ATOM      7  N   UNL     1       8.415  -1.351  24.341  0.00  0.00    -0.220 N 
ATOM      8  N   UNL     1       7.735  -2.505  24.494  0.00  0.00    -0.142 NA
ATOM      9  C   UNL     1       8.689  -3.429  24.237  0.00  0.00    +0.236 A 
ATOM     10  N   UNL     1       9.925  -2.876  23.960  0.00  0.00    -0.211 NA
BRANCH   9  11
ATOM     11  C   UNL     1       8.424  -4.884  24.253  0.00  0.00    +0.281 C 
ATOM     12  N   UNL     1       7.101  -5.223  24.112  0.00  0.00    -0.323 N 
ATOM     13  H   UNL     1       6.858  -6.199  24.033  0.00  0.00    +0.145 HD
ATOM     14  H   UNL     1       6.420  -4.501  23.912  0.00  0.00    +0.145 HD
ATOM     15  O   UNL     1       9.282  -5.752  24.376  0.00  0.00    -0.267 OA
ENDBRANCH   9  11
ENDBRANCH   1   7
BRANCH   4  16
ATOM     16  O3* UNL     1       7.281   2.051  21.531  0.00  0.00    -0.386 OA
ATOM     17  H3* UNL     1       6.331   2.014  21.771  0.00  0.00    +0.210 HD
ENDBRANCH   4  16
BRANCH   5  18
ATOM     18  O2* UNL     1       5.879   1.273  23.619  0.00  0.00    -0.385 OA
ATOM     19  H2* UNL     1       6.304   2.077  23.971  0.00  0.00    +0.210 HD
ENDBRANCH   5  18
BRANCH   3  20
ATOM     20  C5* UNL     1      10.235   2.033  22.984  0.00  0.00    +0.190 C 
BRANCH  20  21
ATOM     21  O5* UNL     1      10.290   2.305  21.585  0.00  0.00    -0.392 OA
ATOM     22  H5* UNL     1      11.099   2.831  21.433  0.00  0.00    +0.210 HD
ENDBRANCH  20  21
ENDBRANCH   3  20
TORSDOF 6
ENDMDL
MODEL 9
REMARK VINA RESULT:      -5.3      2.299      5.794
REMARK  Name = 
REMARK  6 active torsions:
REMARK  status: ('A' for Active; 'I' for Inactive)
REMARK    1  A    between atoms: C_3  and  C_19
REMARK    2  A    between atoms: N_5  and  C1*_6
REMARK    3  A    between atoms: C2*_8  and  O2*_18
REMARK    4  A    between atoms: C3*_10  and  O3*_17
REMARK    5  A    between atoms: C4*_12  and  C5*_15
REMARK    6  A    between atoms: C5*_15  and  O5*_16
REMARK                            x       y       z     vdW  Elec       q    Type
REMARK                         _______ _______ _______ _____ _____    ______ ____
ROOT
ATOM      1  C1* UNL     1       8.127  -3.875  23.175  0.00  0.00    +0.270 C 
ATOM      2  O4* UNL     1       8.975  -4.482  24.176  0.00  0.00    -0.344 OA
ATOM      3  C4* UNL     1       8.127  -5.186  25.115  0.00  0.00    +0.177 C 
ATOM      4  C3* UNL     1       6.690  -4.733  24.858  0.00  0.00    +0.178 C 
ATOM      5  C2* UNL     1       6.713  -4.424  23.370  0.00  0.00    +0.196 C 
ENDROOT
BRANCH   1   7
ATOM      6  C   UNL     1       7.316  -1.510  22.963  0.00  0.00    +0.223 A 
ATOM      7  N   UNL     1       8.250  -2.434  23.306  0.00  0.00    -0.220 N 
ATOM      8  N   UNL     1       9.381  -1.846  23.746  0.00  0.00    -0.142 NA
ATOM      9  C   UNL     1       9.076  -0.533  23.632  0.00  0.00    +0.236 A 
ATOM     10  N   UNL     1       7.796  -0.307  23.164  0.00  0.00    -0.211 NA
BRANCH   9  11
ATOM     11  C   UNL     1      10.029   0.544  23.977  0.00  0.00    +0.281 C 
ATOM     12  N   UNL     1      10.568   0.447  25.235  0.00  0.00    -0.323 N 
ATOM     13  H   UNL     1      11.286   1.103  25.506  0.00  0.00    +0.145 HD
ATOM     14  H   UNL     1      10.374  -0.371  25.799  0.00  0.00    +0.145 HD
ATOM     15  O   UNL     1      10.345   1.466  23.230  0.00  0.00    -0.267 OA
ENDBRANCH   9  11
ENDBRANCH   1   7
BRANCH   4  16
ATOM     16  O3* UNL     1       5.742  -5.751  25.166  0.00  0.00    -0.386 OA
ATOM     17  H3* UNL     1       6.006  -6.102  26.042  0.00  0.00    +0.210 HD
ENDBRANCH   4  16
BRANCH   5  18
ATOM     18  O2* UNL     1       6.533  -5.670  22.657  0.00  0.00    -0.385 OA
ATOM     19  H2* UNL     1       5.757  -5.568  22.074  0.00  0.00    +0.210 HD
ENDBRANCH   5  18
BRANCH   3  20
ATOM     20  C5* UNL     1       8.610  -4.894  26.535  0.00  0.00    +0.190 C 
BRANCH  20  21
ATOM     21  O5* UNL     1       7.943  -5.724  27.485  0.00  0.00    -0.392 OA
ATOM     22  H5* UNL     1       8.633  -6.090  28.071  0.00  0.00    +0.210 HD
ENDBRANCH  20  21
ENDBRANCH   3  20
TORSDOF 6
ENDMDL
