MODEL 1
REMARK VINA RESULT:      -6.0      0.000      0.000
REMARK  Name = 
REMARK  4 active torsions:
REMARK  status: ('A' for Active; 'I' for Inactive)
REMARK    1  A    between atoms: C3*_2  and  O3*_20
REMARK    2  A    between atoms: C4*_4  and  C5*_18
REMARK    3  A    between atoms: C1*_7  and  N_9
REMARK    4  A    between atoms: C5*_18  and  O5*_19
REMARK                            x       y       z     vdW  Elec       q    Type
REMARK                         _______ _______ _______ _____ _____    ______ ____
ROOT
ATOM      1  C2* UNL     1       7.687  -2.140  23.137  0.00  0.00    +0.088 C 
ATOM      2  C1* UNL     1       8.727  -3.099  23.718  0.00  0.00    +0.226 C 
ATOM      3  O4* UNL     1       9.858  -2.289  24.112  0.00  0.00    -0.348 OA
ATOM      4  C4* UNL     1       9.518  -0.907  23.915  0.00  0.00    +0.175 C 
ATOM      5  C3* UNL     1       7.998  -0.856  23.862  0.00  0.00    +0.150 C 
ENDROOT
BRANCH   2   6
ATOM      6  N   UNL     1       8.240  -3.892  24.852  0.00  0.00    -0.273 N 
ATOM      7  C   UNL     1       9.088  -4.883  25.335  0.00  0.00    +0.331 A 
ATOM      8  O   UNL     1      10.193  -5.132  24.860  0.00  0.00    -0.246 OA
ATOM      9  N   UNL     1       8.622  -5.598  26.404  0.00  0.00    -0.274 N 
ATOM     10  H   UNL     1       9.224  -6.325  26.760  0.00  0.00    +0.173 HD
ATOM     11  C   UNL     1       7.473  -5.356  27.105  0.00  0.00    +0.267 A 
ATOM     12  O   UNL     1       7.193  -6.017  28.100  0.00  0.00    -0.267 OA
ATOM     13  C   UNL     1       6.626  -4.248  26.589  0.00  0.00    +0.094 A 
ATOM     14  I   UNL     1       4.887  -3.760  27.549  0.00  0.00    -0.037 I 
ATOM     15  C   UNL     1       7.053  -3.588  25.503  0.00  0.00    +0.113 A 
ENDBRANCH   2   6
BRANCH   5  16
ATOM     16  O3* UNL     1       7.504   0.299  23.208  0.00  0.00    -0.389 OA
ATOM     17  H3* UNL     1       7.825   1.090  23.679  0.00  0.00    +0.210 HD
ENDBRANCH   5  16
BRANCH   4  18
ATOM     18  C5* UNL     1      10.084  -0.017  25.019  0.00  0.00    +0.190 C 
BRANCH  18  19
ATOM     19  O5* UNL     1       9.275   1.136  25.235  0.00  0.00    -0.392 OA
ATOM     20  H5* UNL     1       9.855   1.866  25.532  0.00  0.00    +0.210 HD
ENDBRANCH  18  19
ENDBRANCH   4  18
TORSDOF 4
ENDMDL
MODEL 2
REMARK VINA RESULT:      -6.0      2.003      2.543
REMARK  Name = 
REMARK  4 active torsions:
REMARK  status: ('A' for Active; 'I' for Inactive)
REMARK    1  A    between atoms: C3*_2  and  O3*_20
REMARK    2  A    between atoms: C4*_4  and  C5*_18
REMARK    3  A    between atoms: C1*_7  and  N_9
REMARK    4  A    between atoms: C5*_18  and  O5*_19
REMARK                            x       y       z     vdW  Elec       q    Type
REMARK                         _______ _______ _______ _____ _____    ______ ____
ROOT
ATOM      1  C2* UNL     1       6.767  -5.024  22.376  0.00  0.00    +0.088 C 
ATOM      2  C1* UNL     1       7.938  -4.902  23.353  0.00  0.00    +0.226 C 
ATOM      3  O4* UNL     1       8.426  -3.546  23.243  0.00  0.00    -0.348 OA
ATOM      4  C4* UNL     1       7.557  -2.820  22.358  0.00  0.00    +0.175 C 
ATOM      5  C3* UNL     1       6.256  -3.608  22.316  0.00  0.00    +0.150 C 
ENDROOT
BRANCH   2   6
ATOM      6  N   UNL     1       7.589  -5.215  24.744  0.00  0.00    -0.273 N 
ATOM      7  C   UNL     1       8.645  -5.367  25.635  0.00  0.00    +0.331 A 
ATOM      8  O   UNL     1       9.829  -5.269  25.321  0.00  0.00    -0.246 OA
ATOM      9  N   UNL     1       8.298  -5.640  26.930  0.00  0.00    -0.274 N 
ATOM     10  H   UNL     1       9.054  -5.759  27.587  0.00  0.00    +0.173 HD
ATOM     11  C   UNL     1       7.031  -5.658  27.445  0.00  0.00    +0.267 A 
ATOM     12  O   UNL     1       6.842  -5.838  28.644  0.00  0.00    -0.267 OA
ATOM     13  C   UNL     1       5.935  -5.431  26.466  0.00  0.00    +0.094 A 
ATOM     14  I   UNL     1       3.990  -5.412  27.097  0.00  0.00    -0.037 I 
ATOM     15  C   UNL     1       6.274  -5.226  25.185  0.00  0.00    +0.113 A 
ENDBRANCH   2   6
BRANCH   5  16
ATOM     16  O3* UNL     1       5.478  -3.333  21.164  0.00  0.00    -0.389 OA
ATOM     17  H3* UNL     1       5.637  -2.411  20.888  0.00  0.00    +0.210 HD
ENDBRANCH   5  16
BRANCH   4  18
ATOM     18  C5* UNL     1       7.343  -1.381  22.822  0.00  0.00    +0.190 C 
BRANCH  18  19
ATOM     19  O5* UNL     1       6.004  -1.160  23.257  0.00  0.00    -0.392 OA
ATOM     20  H5* UNL     1       5.643  -2.011  23.580  0.00  0.00    +0.210 HD
ENDBRANCH  18  19
ENDBRANCH   4  18
TORSDOF 4
ENDMDL
MODEL 3
REMARK VINA RESULT:      -5.7      3.509      5.137
REMARK  Name = 
REMARK  4 active torsions:
REMARK  status: ('A' for Active; 'I' for Inactive)
REMARK    1  A    between atoms: C3*_2  and  O3*_20
REMARK    2  A    between atoms: C4*_4  and  C5*_18
REMARK    3  A    between atoms: C1*_7  and  N_9
REMARK    4  A    between atoms: C5*_18  and  O5*_19
REMARK                            x       y       z     vdW  Elec       q    Type
REMARK                         _______ _______ _______ _____ _____    ______ ____
ROOT
ATOM      1  C2* UNL     1       5.439  -4.840  24.608  0.00  0.00    +0.088 C 
ATOM      2  C1* UNL     1       6.965  -4.949  24.574  0.00  0.00    +0.226 C 
ATOM      3  O4* UNL     1       7.304  -5.559  23.308  0.00  0.00    -0.348 OA
ATOM      4  C4* UNL     1       6.100  -5.713  22.540  0.00  0.00    +0.175 C 
ATOM      5  C3* UNL     1       5.094  -4.745  23.145  0.00  0.00    +0.150 C 
ENDROOT
BRANCH   2   6
ATOM      6  N   UNL     1       7.658  -3.665  24.732  0.00  0.00    -0.273 N 
ATOM      7  C   UNL     1       7.948  -3.266  26.032  0.00  0.00    +0.331 A 
ATOM      8  O   UNL     1       7.646  -3.912  27.033  0.00  0.00    -0.246 OA
ATOM      9  N   UNL     1       8.611  -2.076  26.156  0.00  0.00    -0.274 N 
ATOM     10  H   UNL     1       8.823  -1.770  27.094  0.00  0.00    +0.173 HD
ATOM     11  C   UNL     1       9.113  -1.314  25.136  0.00  0.00    +0.267 A 
ATOM     12  O   UNL     1       9.762  -0.300  25.369  0.00  0.00    -0.267 OA
ATOM     13  C   UNL     1       8.830  -1.812  23.763  0.00  0.00    +0.094 A 
ATOM     14  I   UNL     1       9.534  -0.785  22.141  0.00  0.00    -0.037 I 
ATOM     15  C   UNL     1       8.125  -2.945  23.642  0.00  0.00    +0.113 A 
ENDBRANCH   2   6
BRANCH   5  16
ATOM     16  O3* UNL     1       3.751  -5.087  22.854  0.00  0.00    -0.389 OA
ATOM     17  H3* UNL     1       3.364  -4.394  22.288  0.00  0.00    +0.210 HD
ENDBRANCH   5  16
BRANCH   4  18
ATOM     18  C5* UNL     1       6.333  -5.446  21.054  0.00  0.00    +0.190 C 
BRANCH  18  19
ATOM     19  O5* UNL     1       5.717  -4.232  20.634  0.00  0.00    -0.392 OA
ATOM     20  H5* UNL     1       6.351  -3.501  20.779  0.00  0.00    +0.210 HD
ENDBRANCH  18  19
ENDBRANCH   4  18
TORSDOF 4
ENDMDL
MODEL 4
REMARK VINA RESULT:      -5.7      2.385      3.172
REMARK  Name = 
REMARK  4 active torsions:
REMARK  status: ('A' for Active; 'I' for Inactive)
REMARK    1  A    between atoms: C3*_2  and  O3*_20
REMARK    2  A    between atoms: C4*_4  and  C5*_18
REMARK    3  A    between atoms: C1*_7  and  N_9
REMARK    4  A    between atoms: C5*_18  and  O5*_19
REMARK                            x       y       z     vdW  Elec       q    Type
REMARK                         _______ _______ _______ _____ _____    ______ ____
ROOT
ATOM      1  C2* UNL     1      10.262  -0.003  22.579  0.00  0.00    +0.088 C 
ATOM      2  C1* UNL     1      10.231  -0.322  24.075  0.00  0.00    +0.226 C 
ATOM      3  O4* UNL     1      10.238   0.948  24.766  0.00  0.00    -0.348 OA
ATOM      4  C4* UNL     1      10.152   1.998  23.789  0.00  0.00    +0.175 C 
ATOM      5  C3* UNL     1       9.599   1.349  22.529  0.00  0.00    +0.150 C 
ENDROOT
BRANCH   2   6
ATOM      6  N   UNL     1       9.078  -1.130  24.488  0.00  0.00    -0.273 N 
ATOM      7  C   UNL     1       9.200  -2.509  24.357  0.00  0.00    +0.331 A 
ATOM      8  O   UNL     1      10.195  -3.071  23.908  0.00  0.00    -0.246 OA
ATOM      9  N   UNL     1       8.120  -3.244  24.765  0.00  0.00    -0.274 N 
ATOM     10  H   UNL     1       8.192  -4.246  24.669  0.00  0.00    +0.173 HD
ATOM     11  C   UNL     1       7.001  -2.767  25.390  0.00  0.00    +0.267 A 
ATOM     12  O   UNL     1       6.127  -3.532  25.784  0.00  0.00    -0.267 OA
ATOM     13  C   UNL     1       6.941  -1.291  25.564  0.00  0.00    +0.094 A 
ATOM     14  I   UNL     1       5.335  -0.438  26.498  0.00  0.00    -0.037 I 
ATOM     15  C   UNL     1       7.971  -0.566  25.106  0.00  0.00    +0.113 A 
ENDBRANCH   2   6
BRANCH   5  16
ATOM     16  O3* UNL     1       9.893   2.083  21.353  0.00  0.00    -0.389 OA
ATOM     17  H3* UNL     1       9.337   2.884  21.333  0.00  0.00    +0.210 HD
ENDBRANCH   5  16
BRANCH   4  18
ATOM     18  C5* UNL     1       9.280   3.156  24.270  0.00  0.00    +0.190 C 
BRANCH  18  19
ATOM     19  O5* UNL     1       9.209   4.199  23.303  0.00  0.00    -0.392 OA
ATOM     20  H5* UNL     1       9.641   3.886  22.483  0.00  0.00    +0.210 HD
ENDBRANCH  18  19
ENDBRANCH   4  18
TORSDOF 4
ENDMDL
MODEL 5
REMARK VINA RESULT:      -5.7      3.398      5.289
REMARK  Name = 
REMARK  4 active torsions:
REMARK  status: ('A' for Active; 'I' for Inactive)
REMARK    1  A    between atoms: C3*_2  and  O3*_20
REMARK    2  A    between atoms: C4*_4  and  C5*_18
REMARK    3  A    between atoms: C1*_7  and  N_9
REMARK    4  A    between atoms: C5*_18  and  O5*_19
REMARK                            x       y       z     vdW  Elec       q    Type
REMARK                         _______ _______ _______ _____ _____    ______ ____
ROOT
ATOM      1  C2* UNL     1       5.679  -3.744  24.366  0.00  0.00    +0.088 C 
ATOM      2  C1* UNL     1       7.181  -3.976  24.541  0.00  0.00    +0.226 C 
ATOM      3  O4* UNL     1       7.522  -5.105  23.705  0.00  0.00    -0.348 OA
ATOM      4  C4* UNL     1       6.357  -5.487  22.958  0.00  0.00    +0.175 C 
ATOM      5  C3* UNL     1       5.435  -4.276  22.977  0.00  0.00    +0.150 C 
ENDROOT
BRANCH   2   6
ATOM      6  N   UNL     1       8.007  -2.812  24.202  0.00  0.00    -0.273 N 
ATOM      7  C   UNL     1       9.385  -3.002  24.195  0.00  0.00    +0.331 A 
ATOM      8  O   UNL     1       9.932  -4.068  24.468  0.00  0.00    -0.246 OA
ATOM      9  N   UNL     1      10.136  -1.909  23.858  0.00  0.00    -0.274 N 
ATOM     10  H   UNL     1      11.137  -2.031  23.856  0.00  0.00    +0.173 HD
ATOM     11  C   UNL     1       9.664  -0.703  23.418  0.00  0.00    +0.267 A 
ATOM     12  O   UNL     1      10.436   0.183  23.068  0.00  0.00    -0.267 OA
ATOM     13  C   UNL     1       8.184  -0.565  23.385  0.00  0.00    +0.094 A 
ATOM     14  I   UNL     1       7.336   1.178  22.732  0.00  0.00    -0.037 I 
ATOM     15  C   UNL     1       7.449  -1.615  23.776  0.00  0.00    +0.113 A 
ENDBRANCH   2   6
BRANCH   5  16
ATOM     16  O3* UNL     1       4.081  -4.605  22.724  0.00  0.00    -0.389 OA
ATOM     17  H3* UNL     1       3.622  -3.815  22.385  0.00  0.00    +0.210 HD
ENDBRANCH   5  16
BRANCH   4  18
ATOM     18  C5* UNL     1       6.708  -5.919  21.535  0.00  0.00    +0.190 C 
BRANCH  18  19
ATOM     19  O5* UNL     1       5.935  -5.218  20.565  0.00  0.00    -0.392 OA
ATOM     20  H5* UNL     1       6.530  -4.947  19.837  0.00  0.00    +0.210 HD
ENDBRANCH  18  19
ENDBRANCH   4  18
TORSDOF 4
ENDMDL
MODEL 6
REMARK VINA RESULT:      -5.6      2.104      5.233
REMARK  Name = 
REMARK  4 active torsions:
REMARK  status: ('A' for Active; 'I' for Inactive)
REMARK    1  A    between atoms: C3*_2  and  O3*_20
REMARK    2  A    between atoms: C4*_4  and  C5*_18
REMARK    3  A    between atoms: C1*_7  and  N_9
REMARK    4  A    between atoms: C5*_18  and  O5*_19
REMARK                            x       y       z     vdW  Elec       q    Type
REMARK                         _______ _______ _______ _____ _____    ______ ____
ROOT
ATOM      1  C2* UNL     1       9.286  -4.838  25.829  0.00  0.00    +0.088 C 
ATOM      2  C1* UNL     1       8.851  -4.039  24.599  0.00  0.00    +0.226 C 
ATOM      3  O4* UNL     1       7.467  -4.382  24.356  0.00  0.00    -0.348 OA
ATOM      4  C4* UNL     1       7.016  -5.235  25.420  0.00  0.00    +0.175 C 
ATOM      5  C3* UNL     1       7.987  -5.013  26.570  0.00  0.00    +0.150 C 
ENDROOT
BRANCH   2   6
ATOM      6  N   UNL     1       9.006  -2.587  24.745  0.00  0.00    -0.273 N 
ATOM      7  C   UNL     1       9.872  -1.957  23.858  0.00  0.00    +0.331 A 
ATOM      8  O   UNL     1      10.510  -2.544  22.988  0.00  0.00    -0.246 OA
ATOM      9  N   UNL     1       9.988  -0.602  24.000  0.00  0.00    -0.274 N 
ATOM     10  H   UNL     1      10.618  -0.132  23.367  0.00  0.00    +0.173 HD
ATOM     11  C   UNL     1       9.256   0.194  24.837  0.00  0.00    +0.267 A 
ATOM     12  O   UNL     1       9.391   1.413  24.823  0.00  0.00    -0.267 OA
ATOM     13  C   UNL     1       8.298  -0.517  25.726  0.00  0.00    +0.094 A 
ATOM     14  I   UNL     1       7.122   0.546  27.017  0.00  0.00    -0.037 I 
ATOM     15  C   UNL     1       8.231  -1.852  25.631  0.00  0.00    +0.113 A 
ENDBRANCH   2   6
BRANCH   5  16
ATOM     16  O3* UNL     1       8.001  -6.084  27.497  0.00  0.00    -0.389 OA
ATOM     17  H3* UNL     1       8.822  -6.037  28.022  0.00  0.00    +0.210 HD
ENDBRANCH   5  16
BRANCH   4  18
ATOM     18  C5* UNL     1       5.573  -4.935  25.819  0.00  0.00    +0.190 C 
BRANCH  18  19
ATOM     19  O5* UNL     1       5.121  -5.802  26.855  0.00  0.00    -0.392 OA
ATOM     20  H5* UNL     1       5.728  -5.710  27.618  0.00  0.00    +0.210 HD
ENDBRANCH  18  19
ENDBRANCH   4  18
TORSDOF 4
ENDMDL
MODEL 7
REMARK VINA RESULT:      -5.5      3.305      4.241
REMARK  Name = 
REMARK  4 active torsions:
REMARK  status: ('A' for Active; 'I' for Inactive)
REMARK    1  A    between atoms: C3*_2  and  O3*_20
REMARK    2  A    between atoms: C4*_4  and  C5*_18
REMARK    3  A    between atoms: C1*_7  and  N_9
REMARK    4  A    between atoms: C5*_18  and  O5*_19
REMARK                            x       y       z     vdW  Elec       q    Type
REMARK                         _______ _______ _______ _____ _____    ______ ____
ROOT
ATOM      1  C2* UNL     1       7.690  -3.235  23.325  0.00  0.00    +0.088 C 
ATOM      2  C1* UNL     1       7.581  -4.749  23.133  0.00  0.00    +0.226 C 
ATOM      3  O4* UNL     1       8.571  -5.345  24.002  0.00  0.00    -0.348 OA
ATOM      4  C4* UNL     1       9.178  -4.303  24.782  0.00  0.00    +0.175 C 
ATOM      5  C3* UNL     1       8.210  -3.130  24.735  0.00  0.00    +0.150 C 
ENDROOT
BRANCH   2   6
ATOM      6  N   UNL     1       6.248  -5.292  23.418  0.00  0.00    -0.273 N 
ATOM      7  C   UNL     1       5.479  -5.672  22.323  0.00  0.00    +0.331 A 
ATOM      8  O   UNL     1       5.846  -5.564  21.156  0.00  0.00    -0.246 OA
ATOM      9  N   UNL     1       4.247  -6.192  22.612  0.00  0.00    -0.274 N 
ATOM     10  H   UNL     1       3.676  -6.466  21.827  0.00  0.00    +0.173 HD
ATOM     11  C   UNL     1       3.757  -6.480  23.856  0.00  0.00    +0.267 A 
ATOM     12  O   UNL     1       2.665  -7.021  23.991  0.00  0.00    -0.267 OA
ATOM     13  C   UNL     1       4.640  -6.112  24.995  0.00  0.00    +0.094 A 
ATOM     14  I   UNL     1       4.045  -6.501  26.913  0.00  0.00    -0.037 I 
ATOM     15  C   UNL     1       5.820  -5.543  24.713  0.00  0.00    +0.113 A 
ENDBRANCH   2   6
BRANCH   5  16
ATOM     16  O3* UNL     1       8.829  -1.889  25.021  0.00  0.00    -0.389 OA
ATOM     17  H3* UNL     1       8.166  -1.288  25.409  0.00  0.00    +0.210 HD
ENDBRANCH   5  16
BRANCH   4  18
ATOM     18  C5* UNL     1       9.466  -4.755  26.212  0.00  0.00    +0.190 C 
BRANCH  18  19
ATOM     19  O5* UNL     1       8.613  -5.825  26.608  0.00  0.00    -0.392 OA
ATOM     20  H5* UNL     1       7.687  -5.557  26.442  0.00  0.00    +0.210 HD
ENDBRANCH  18  19
ENDBRANCH   4  18
TORSDOF 4
ENDMDL
MODEL 8
REMARK VINA RESULT:      -5.5      2.917      3.433
REMARK  Name = 
REMARK  4 active torsions:
REMARK  status: ('A' for Active; 'I' for Inactive)
REMARK    1  A    between atoms: C3*_2  and  O3*_20
REMARK    2  A    between atoms: C4*_4  and  C5*_18
REMARK    3  A    between atoms: C1*_7  and  N_9
REMARK    4  A    between atoms: C5*_18  and  O5*_19
REMARK                            x       y       z     vdW  Elec       q    Type
REMARK                         _______ _______ _______ _____ _____    ______ ____
ROOT
ATOM      1  C2* UNL     1       6.457  -1.540  23.275  0.00  0.00    +0.088 C 
ATOM      2  C1* UNL     1       6.674  -2.799  22.432  0.00  0.00    +0.226 C 
ATOM      3  O4* UNL     1       8.104  -2.979  22.324  0.00  0.00    -0.348 OA
ATOM      4  C4* UNL     1       8.750  -1.987  23.137  0.00  0.00    +0.175 C 
ATOM      5  C3* UNL     1       7.698  -1.512  24.128  0.00  0.00    +0.150 C 
ENDROOT
BRANCH   2   6
ATOM      6  N   UNL     1       6.041  -4.002  22.984  0.00  0.00    -0.273 N 
ATOM      7  C   UNL     1       5.672  -4.989  22.076  0.00  0.00    +0.331 A 
ATOM      8  O   UNL     1       5.832  -4.899  20.862  0.00  0.00    -0.246 OA
ATOM      9  N   UNL     1       5.101  -6.110  22.614  0.00  0.00    -0.274 N 
ATOM     10  H   UNL     1       4.822  -6.831  21.966  0.00  0.00    +0.173 HD
ATOM     11  C   UNL     1       4.971  -6.398  23.944  0.00  0.00    +0.267 A 
ATOM     12  O   UNL     1       4.512  -7.474  24.312  0.00  0.00    -0.267 OA
ATOM     13  C   UNL     1       5.434  -5.339  24.880  0.00  0.00    +0.094 A 
ATOM     14  I   UNL     1       5.317  -5.639  26.899  0.00  0.00    -0.037 I 
ATOM     15  C   UNL     1       5.935  -4.214  24.352  0.00  0.00    +0.113 A 
ENDBRANCH   2   6
BRANCH   5  16
ATOM     16  O3* UNL     1       7.984  -0.236  24.672  0.00  0.00    -0.389 OA
ATOM     17  H3* UNL     1       8.629  -0.338  25.396  0.00  0.00    +0.210 HD
ENDBRANCH   5  16
BRANCH   4  18
ATOM     18  C5* UNL     1       9.990  -2.542  23.837  0.00  0.00    +0.190 C 
BRANCH  18  19
ATOM     19  O5* UNL     1       9.770  -3.859  24.333  0.00  0.00    -0.392 OA
ATOM     20  H5* UNL     1      10.142  -3.912  25.237  0.00  0.00    +0.210 HD
ENDBRANCH  18  19
ENDBRANCH   4  18
TORSDOF 4
ENDMDL
MODEL 9
REMARK VINA RESULT:      -5.4      1.622      2.040
REMARK  Name = 
REMARK  4 active torsions:
REMARK  status: ('A' for Active; 'I' for Inactive)
REMARK    1  A    between atoms: C3*_2  and  O3*_20
REMARK    2  A    between atoms: C4*_4  and  C5*_18
REMARK    3  A    between atoms: C1*_7  and  N_9
REMARK    4  A    between atoms: C5*_18  and  O5*_19
REMARK                            x       y       z     vdW  Elec       q    Type
REMARK                         _______ _______ _______ _____ _____    ______ ____
ROOT
ATOM      1  C2* UNL     1       9.793  -1.826  22.827  0.00  0.00    +0.088 C 
ATOM      2  C1* UNL     1       9.429  -1.932  24.309  0.00  0.00    +0.226 C 
ATOM      3  O4* UNL     1       8.918  -0.637  24.699  0.00  0.00    -0.348 OA
ATOM      4  C4* UNL     1       8.841   0.193  23.529  0.00  0.00    +0.175 C 
ATOM      5  C3* UNL     1       8.846  -0.759  22.343  0.00  0.00    +0.150 C 
ENDROOT
BRANCH   2   6
ATOM      6  N   UNL     1       8.455  -2.986  24.611  0.00  0.00    -0.273 N 
ATOM      7  C   UNL     1       8.958  -4.267  24.806  0.00  0.00    +0.331 A 
ATOM      8  O   UNL     1      10.149  -4.557  24.725  0.00  0.00    -0.246 OA
ATOM      9  N   UNL     1       8.035  -5.231  25.105  0.00  0.00    -0.274 N 
ATOM     10  H   UNL     1       8.385  -6.168  25.242  0.00  0.00    +0.173 HD
ATOM     11  C   UNL     1       6.702  -5.035  25.344  0.00  0.00    +0.267 A 
ATOM     12  O   UNL     1       5.981  -5.967  25.682  0.00  0.00    -0.267 OA
ATOM     13  C   UNL     1       6.219  -3.638  25.182  0.00  0.00    +0.094 A 
ATOM     14  I   UNL     1       4.254  -3.192  25.526  0.00  0.00    -0.037 I 
ATOM     15  C   UNL     1       7.114  -2.704  24.828  0.00  0.00    +0.113 A 
ENDBRANCH   2   6
BRANCH   5  16
ATOM     16  O3* UNL     1       9.256  -0.140  21.137  0.00  0.00    -0.389 OA
ATOM     17  H3* UNL     1       9.722  -0.797  20.587  0.00  0.00    +0.210 HD
ENDBRANCH   5  16
BRANCH   4  18
ATOM     18  C5* UNL     1       7.602   1.087  23.544  0.00  0.00    +0.190 C 
BRANCH  18  19
ATOM     19  O5* UNL     1       6.633   0.661  22.590  0.00  0.00    -0.392 OA
ATOM     20  H5* UNL     1       6.433   1.416  21.999  0.00  0.00    +0.210 HD
ENDBRANCH  18  19
ENDBRANCH   4  18
TORSDOF 4
ENDMDL
