MODEL 1
REMARK VINA RESULT:      -6.0      0.000      0.000
REMARK  Name = 
REMARK  5 active torsions:
REMARK  status: ('A' for Active; 'I' for Inactive)
REMARK    1  A    between atoms: C3*_2  and  O3*_22
REMARK    2  A    between atoms: C4*_4  and  C5*_20
REMARK    3  A    between atoms: C1*_7  and  N_9
REMARK    4  A    between atoms: C_11  and  C_17
REMARK    5  A    between atoms: C5*_20  and  O5*_21
REMARK                            x       y       z     vdW  Elec       q    Type
REMARK                         _______ _______ _______ _____ _____    ______ ____
ROOT
ATOM      1  N   UNL     1       8.161  -2.489  23.799  0.00  0.00    -0.258 N 
ATOM      2  C   UNL     1       9.535  -2.603  23.873  0.00  0.00    +0.310 C 
ATOM      3  O   UNL     1      10.141  -3.610  24.225  0.00  0.00    -0.252 OA
ATOM      4  N   UNL     1      10.235  -1.465  23.561  0.00  0.00    -0.239 N 
ATOM      5  H   UNL     1      11.240  -1.537  23.641  0.00  0.00    +0.159 HD
ATOM      6  C   UNL     1       9.736  -0.191  23.434  0.00  0.00    +0.229 C 
ATOM      7  O   UNL     1      10.495   0.771  23.349  0.00  0.00    -0.275 OA
ATOM      8  C   UNL     1       8.218  -0.068  23.504  0.00  0.00    +0.116 C 
ATOM      9  C   UNL     1       7.621  -1.383  23.019  0.00  0.00    +0.128 C 
ENDROOT
BRANCH   1  11
ATOM     10  C2* UNL     1       5.779  -3.311  23.953  0.00  0.00    +0.086 C 
ATOM     11  C1* UNL     1       7.261  -3.575  24.161  0.00  0.00    +0.212 C 
ATOM     12  O4* UNL     1       7.611  -4.763  23.438  0.00  0.00    -0.350 OA
ATOM     13  C4* UNL     1       6.411  -5.287  22.834  0.00  0.00    +0.174 C 
ATOM     14  C3* UNL     1       5.445  -4.111  22.716  0.00  0.00    +0.150 C 
BRANCH  14  15
ATOM     15  O3* UNL     1       4.077  -4.496  22.703  0.00  0.00    -0.389 OA
ATOM     16  H3* UNL     1       3.614  -4.062  23.441  0.00  0.00    +0.210 HD
ENDBRANCH  14  15
BRANCH  13  17
ATOM     17  C5* UNL     1       6.725  -5.989  21.509  0.00  0.00    +0.190 C 
BRANCH  17  18
ATOM     18  O5* UNL     1       5.943  -5.518  20.418  0.00  0.00    -0.392 OA
ATOM     19  H5* UNL     1       6.341  -5.871  19.589  0.00  0.00    +0.210 HD
ENDBRANCH  17  18
ENDBRANCH  13  17
ENDBRANCH   1  11
BRANCH   8  20
ATOM     20  C   UNL     1       7.727   1.098  22.687  0.00  0.00    -0.005 C 
ATOM     21  C   UNL     1       7.334   2.260  23.220  0.00  0.00    +0.047 C 
ATOM     22 BR   UNL     1       6.743   3.711  22.228  0.00  0.00    -0.059 Br
ENDBRANCH   8  20
TORSDOF 5
ENDMDL
MODEL 2
REMARK VINA RESULT:      -6.0      3.833      5.993
REMARK  Name = 
REMARK  5 active torsions:
REMARK  status: ('A' for Active; 'I' for Inactive)
REMARK    1  A    between atoms: C3*_2  and  O3*_22
REMARK    2  A    between atoms: C4*_4  and  C5*_20
REMARK    3  A    between atoms: C1*_7  and  N_9
REMARK    4  A    between atoms: C_11  and  C_17
REMARK    5  A    between atoms: C5*_20  and  O5*_21
REMARK                            x       y       z     vdW  Elec       q    Type
REMARK                         _______ _______ _______ _____ _____    ______ ____
ROOT
ATOM      1  N   UNL     1       8.569  -3.580  24.994  0.00  0.00    -0.258 N 
ATOM      2  C   UNL     1       9.357  -4.631  25.415  0.00  0.00    +0.310 C 
ATOM      3  O   UNL     1      10.395  -4.997  24.873  0.00  0.00    -0.252 OA
ATOM      4  N   UNL     1       8.884  -5.319  26.505  0.00  0.00    -0.239 N 
ATOM      5  H   UNL     1       9.444  -6.107  26.799  0.00  0.00    +0.159 HD
ATOM      6  C   UNL     1       7.626  -5.245  27.051  0.00  0.00    +0.229 C 
ATOM      7  O   UNL     1       7.264  -6.057  27.900  0.00  0.00    -0.275 OA
ATOM      8  C   UNL     1       6.716  -4.170  26.467  0.00  0.00    +0.116 C 
ATOM      9  C   UNL     1       7.600  -3.046  25.943  0.00  0.00    +0.128 C 
ENDROOT
BRANCH   1  11
ATOM     10  C2* UNL     1       7.779  -1.865  23.317  0.00  0.00    +0.086 C 
ATOM     11  C1* UNL     1       8.882  -2.785  23.815  0.00  0.00    +0.212 C 
ATOM     12  O4* UNL     1      10.053  -1.993  24.056  0.00  0.00    -0.350 OA
ATOM     13  C4* UNL     1       9.755  -0.632  23.681  0.00  0.00    +0.174 C 
ATOM     14  C3* UNL     1       8.237  -0.493  23.753  0.00  0.00    +0.150 C 
BRANCH  14  15
ATOM     15  O3* UNL     1       7.716   0.519  22.902  0.00  0.00    -0.389 OA
ATOM     16  H3* UNL     1       6.821   0.268  22.614  0.00  0.00    +0.210 HD
ENDBRANCH  14  15
BRANCH  13  17
ATOM     17  C5* UNL     1      10.528   0.361  24.555  0.00  0.00    +0.190 C 
BRANCH  17  18
ATOM     18  O5* UNL     1       9.758   1.490  24.949  0.00  0.00    -0.392 OA
ATOM     19  H5* UNL     1      10.221   1.922  25.702  0.00  0.00    +0.210 HD
ENDBRANCH  17  18
ENDBRANCH  13  17
ENDBRANCH   1  11
BRANCH   8  20
ATOM     20  C   UNL     1       5.734  -3.669  27.493  0.00  0.00    -0.005 C 
ATOM     21  C   UNL     1       4.425  -3.945  27.460  0.00  0.00    +0.047 C 
ATOM     22 BR   UNL     1       3.206  -3.352  28.725  0.00  0.00    -0.059 Br
ENDBRANCH   8  20
TORSDOF 5
ENDMDL
MODEL 3
REMARK VINA RESULT:      -5.9      3.156      6.317
REMARK  Name = 
REMARK  5 active torsions:
REMARK  status: ('A' for Active; 'I' for Inactive)
REMARK    1  A    between atoms: C3*_2  and  O3*_22
REMARK    2  A    between atoms: C4*_4  and  C5*_20
REMARK    3  A    between atoms: C1*_7  and  N_9
REMARK    4  A    between atoms: C_11  and  C_17
REMARK    5  A    between atoms: C5*_20  and  O5*_21
REMARK                            x       y       z     vdW  Elec       q    Type
REMARK                         _______ _______ _______ _____ _____    ______ ____
ROOT
ATOM      1  N   UNL     1       8.940  -0.908  24.986  0.00  0.00    -0.258 N 
ATOM      2  C   UNL     1       8.643  -1.282  26.281  0.00  0.00    +0.310 C 
ATOM      3  O   UNL     1       9.033  -0.704  27.290  0.00  0.00    -0.252 OA
ATOM      4  N   UNL     1       7.883  -2.419  26.403  0.00  0.00    -0.239 N 
ATOM      5  H   UNL     1       7.687  -2.711  27.350  0.00  0.00    +0.159 HD
ATOM      6  C   UNL     1       7.607  -3.342  25.424  0.00  0.00    +0.229 C 
ATOM      7  O   UNL     1       7.084  -4.416  25.709  0.00  0.00    -0.275 OA
ATOM      8  C   UNL     1       8.078  -2.976  24.021  0.00  0.00    +0.116 C 
ATOM      9  C   UNL     1       8.109  -1.456  23.922  0.00  0.00    +0.128 C 
ENDROOT
BRANCH   1  11
ATOM     10  C2* UNL     1      10.347   0.280  23.259  0.00  0.00    +0.086 C 
ATOM     11  C1* UNL     1       9.791   0.232  24.673  0.00  0.00    +0.212 C 
ATOM     12  O4* UNL     1       9.083   1.454  24.919  0.00  0.00    -0.350 OA
ATOM     13  C4* UNL     1       9.215   2.288  23.749  0.00  0.00    +0.174 C 
ATOM     14  C3* UNL     1       9.517   1.347  22.587  0.00  0.00    +0.150 C 
BRANCH  14  15
ATOM     15  O3* UNL     1      10.232   1.965  21.525  0.00  0.00    -0.389 OA
ATOM     16  H3* UNL     1      10.271   2.925  21.679  0.00  0.00    +0.210 HD
ENDBRANCH  14  15
BRANCH  13  17
ATOM     17  C5* UNL     1       7.973   3.164  23.556  0.00  0.00    +0.190 C 
BRANCH  17  18
ATOM     18  O5* UNL     1       8.016   3.957  22.376  0.00  0.00    -0.392 OA
ATOM     19  H5* UNL     1       8.486   3.440  21.683  0.00  0.00    +0.210 HD
ENDBRANCH  17  18
ENDBRANCH  13  17
ENDBRANCH   1  11
BRANCH   8  20
ATOM     20  C   UNL     1       7.185  -3.581  22.971  0.00  0.00    -0.005 C 
ATOM     21  C   UNL     1       7.378  -4.797  22.448  0.00  0.00    +0.047 C 
ATOM     22 BR   UNL     1       6.278  -5.564  21.167  0.00  0.00    -0.059 Br
ENDBRANCH   8  20
TORSDOF 5
ENDMDL
MODEL 4
REMARK VINA RESULT:      -5.8      1.660      2.451
REMARK  Name = 
REMARK  5 active torsions:
REMARK  status: ('A' for Active; 'I' for Inactive)
REMARK    1  A    between atoms: C3*_2  and  O3*_22
REMARK    2  A    between atoms: C4*_4  and  C5*_20
REMARK    3  A    between atoms: C1*_7  and  N_9
REMARK    4  A    between atoms: C_11  and  C_17
REMARK    5  A    between atoms: C5*_20  and  O5*_21
REMARK                            x       y       z     vdW  Elec       q    Type
REMARK                         _______ _______ _______ _____ _____    ______ ____
ROOT
ATOM      1  N   UNL     1       8.410  -1.350  24.033  0.00  0.00    -0.258 N 
ATOM      2  C   UNL     1       9.748  -1.571  23.778  0.00  0.00    +0.310 C 
ATOM      3  O   UNL     1      10.279  -2.674  23.699  0.00  0.00    -0.252 OA
ATOM      4  N   UNL     1      10.515  -0.439  23.651  0.00  0.00    -0.239 N 
ATOM      5  H   UNL     1      11.500  -0.597  23.492  0.00  0.00    +0.159 HD
ATOM      6  C   UNL     1      10.164   0.844  23.992  0.00  0.00    +0.229 C 
ATOM      7  O   UNL     1      11.008   1.737  24.017  0.00  0.00    -0.275 OA
ATOM      8  C   UNL     1       8.712   1.040  24.416  0.00  0.00    +0.116 C 
ATOM      9  C   UNL     1       7.877  -0.029  23.724  0.00  0.00    +0.128 C 
ENDROOT
BRANCH   1  11
ATOM     10  C2* UNL     1       7.149  -3.311  23.063  0.00  0.00    +0.086 C 
ATOM     11  C1* UNL     1       7.464  -2.433  24.264  0.00  0.00    +0.212 C 
ATOM     12  O4* UNL     1       7.933  -3.275  25.325  0.00  0.00    -0.350 OA
ATOM     13  C4* UNL     1       7.875  -4.642  24.868  0.00  0.00    +0.174 C 
ATOM     14  C3* UNL     1       7.913  -4.583  23.344  0.00  0.00    +0.150 C 
BRANCH  14  15
ATOM     15  O3* UNL     1       7.301  -5.702  22.715  0.00  0.00    -0.389 OA
ATOM     16  H3* UNL     1       6.543  -5.996  23.250  0.00  0.00    +0.210 HD
ENDBRANCH  14  15
BRANCH  13  17
ATOM     17  C5* UNL     1       8.989  -5.481  25.502  0.00  0.00    +0.190 C 
BRANCH  17  18
ATOM     18  O5* UNL     1      10.277  -5.220  24.956  0.00  0.00    -0.392 OA
ATOM     19  H5* UNL     1      10.946  -5.611  25.563  0.00  0.00    +0.210 HD
ENDBRANCH  17  18
ENDBRANCH  13  17
ENDBRANCH   1  11
BRANCH   8  20
ATOM     20  C   UNL     1       8.228   2.426  24.078  0.00  0.00    -0.005 C 
ATOM     21  C   UNL     1       7.811   2.785  22.859  0.00  0.00    +0.047 C 
ATOM     22 BR   UNL     1       7.195   4.481  22.431  0.00  0.00    -0.059 Br
ENDBRANCH   8  20
TORSDOF 5
ENDMDL
MODEL 5
REMARK VINA RESULT:      -5.7      3.846      6.477
REMARK  Name = 
REMARK  5 active torsions:
REMARK  status: ('A' for Active; 'I' for Inactive)
REMARK    1  A    between atoms: C3*_2  and  O3*_22
REMARK    2  A    between atoms: C4*_4  and  C5*_20
REMARK    3  A    between atoms: C1*_7  and  N_9
REMARK    4  A    between atoms: C_11  and  C_17
REMARK    5  A    between atoms: C5*_20  and  O5*_21
REMARK                            x       y       z     vdW  Elec       q    Type
REMARK                         _______ _______ _______ _____ _____    ______ ____
ROOT
ATOM      1  N   UNL     1       6.487  -4.727  23.055  0.00  0.00    -0.258 N 
ATOM      2  C   UNL     1       5.807  -5.648  22.284  0.00  0.00    +0.310 C 
ATOM      3  O   UNL     1       5.712  -5.613  21.062  0.00  0.00    -0.252 OA
ATOM      4  N   UNL     1       5.168  -6.641  22.985  0.00  0.00    -0.239 N 
ATOM      5  H   UNL     1       4.646  -7.301  22.426  0.00  0.00    +0.159 HD
ATOM      6  C   UNL     1       4.921  -6.676  24.336  0.00  0.00    +0.229 C 
ATOM      7  O   UNL     1       4.166  -7.522  24.811  0.00  0.00    -0.275 OA
ATOM      8  C   UNL     1       5.561  -5.560  25.153  0.00  0.00    +0.116 C 
ATOM      9  C   UNL     1       6.819  -5.110  24.421  0.00  0.00    +0.128 C 
ENDROOT
BRANCH   1  11
ATOM     10  C2* UNL     1       6.300  -2.343  22.244  0.00  0.00    +0.086 C 
ATOM     11  C1* UNL     1       7.164  -3.571  22.484  0.00  0.00    +0.212 C 
ATOM     12  O4* UNL     1       8.266  -3.189  23.316  0.00  0.00    -0.350 OA
ATOM     13  C4* UNL     1       8.167  -1.771  23.564  0.00  0.00    +0.174 C 
ATOM     14  C3* UNL     1       6.700  -1.404  23.357  0.00  0.00    +0.150 C 
BRANCH  14  15
ATOM     15  O3* UNL     1       6.499  -0.047  22.985  0.00  0.00    -0.389 OA
ATOM     16  H3* UNL     1       6.017  -0.013  22.140  0.00  0.00    +0.210 HD
ENDBRANCH  14  15
BRANCH  13  17
ATOM     17  C5* UNL     1       8.725  -1.414  24.945  0.00  0.00    +0.190 C 
BRANCH  17  18
ATOM     18  O5* UNL     1       8.693  -2.497  25.867  0.00  0.00    -0.392 OA
ATOM     19  H5* UNL     1       7.837  -2.455  26.351  0.00  0.00    +0.210 HD
ENDBRANCH  17  18
ENDBRANCH  13  17
ENDBRANCH   1  11
BRANCH   8  20
ATOM     20  C   UNL     1       5.869  -6.017  26.554  0.00  0.00    -0.005 C 
ATOM     21  C   UNL     1       5.338  -5.457  27.647  0.00  0.00    +0.047 C 
ATOM     22 BR   UNL     1       5.693  -6.019  29.378  0.00  0.00    -0.059 Br
ENDBRANCH   8  20
TORSDOF 5
ENDMDL
MODEL 6
REMARK VINA RESULT:      -5.7      3.333      5.934
REMARK  Name = 
REMARK  5 active torsions:
REMARK  status: ('A' for Active; 'I' for Inactive)
REMARK    1  A    between atoms: C3*_2  and  O3*_22
REMARK    2  A    between atoms: C4*_4  and  C5*_20
REMARK    3  A    between atoms: C1*_7  and  N_9
REMARK    4  A    between atoms: C_11  and  C_17
REMARK    5  A    between atoms: C5*_20  and  O5*_21
REMARK                            x       y       z     vdW  Elec       q    Type
REMARK                         _______ _______ _______ _____ _____    ______ ____
ROOT
ATOM      1  N   UNL     1       7.499  -1.595  25.153  0.00  0.00    -0.258 N 
ATOM      2  C   UNL     1       6.912  -1.890  26.367  0.00  0.00    +0.310 C 
ATOM      3  O   UNL     1       6.745  -1.091  27.283  0.00  0.00    -0.252 OA
ATOM      4  N   UNL     1       6.537  -3.200  26.534  0.00  0.00    -0.239 N 
ATOM      5  H   UNL     1       6.132  -3.425  27.431  0.00  0.00    +0.159 HD
ATOM      6  C   UNL     1       6.900  -4.272  25.756  0.00  0.00    +0.229 C 
ATOM      7  O   UNL     1       6.663  -5.420  26.126  0.00  0.00    -0.275 OA
ATOM      8  C   UNL     1       7.681  -3.936  24.491  0.00  0.00    +0.116 C 
ATOM      9  C   UNL     1       7.282  -2.531  24.058  0.00  0.00    +0.128 C 
ENDROOT
BRANCH   1  11
ATOM     10  C2* UNL     1       9.393   0.058  25.388  0.00  0.00    +0.086 C 
ATOM     11  C1* UNL     1       8.018  -0.273  24.831  0.00  0.00    +0.212 C 
ATOM     12  O4* UNL     1       8.053  -0.093  23.409  0.00  0.00    -0.350 OA
ATOM     13  C4* UNL     1       9.367   0.386  23.054  0.00  0.00    +0.174 C 
ATOM     14  C3* UNL     1      10.298  -0.045  24.183  0.00  0.00    +0.150 C 
BRANCH  14  15
ATOM     15  O3* UNL     1      11.444   0.784  24.325  0.00  0.00    -0.389 OA
ATOM     16  H3* UNL     1      12.083   0.571  23.623  0.00  0.00    +0.210 HD
ENDBRANCH  14  15
BRANCH  13  17
ATOM     17  C5* UNL     1       9.775  -0.111  21.664  0.00  0.00    +0.190 C 
BRANCH  17  18
ATOM     18  O5* UNL     1      10.174  -1.477  21.645  0.00  0.00    -0.392 OA
ATOM     19  H5* UNL     1      10.089  -1.802  20.719  0.00  0.00    +0.210 HD
ENDBRANCH  17  18
ENDBRANCH  13  17
ENDBRANCH   1  11
BRANCH   8  20
ATOM     20  C   UNL     1       7.421  -4.945  23.404  0.00  0.00    -0.005 C 
ATOM     21  C   UNL     1       6.606  -4.720  22.368  0.00  0.00    +0.047 C 
ATOM     22 BR   UNL     1       6.288  -5.945  21.012  0.00  0.00    -0.059 Br
ENDBRANCH   8  20
TORSDOF 5
ENDMDL
MODEL 7
REMARK VINA RESULT:      -5.6      4.048      5.984
REMARK  Name = 
REMARK  5 active torsions:
REMARK  status: ('A' for Active; 'I' for Inactive)
REMARK    1  A    between atoms: C3*_2  and  O3*_22
REMARK    2  A    between atoms: C4*_4  and  C5*_20
REMARK    3  A    between atoms: C1*_7  and  N_9
REMARK    4  A    between atoms: C_11  and  C_17
REMARK    5  A    between atoms: C5*_20  and  O5*_21
REMARK                            x       y       z     vdW  Elec       q    Type
REMARK                         _______ _______ _______ _____ _____    ______ ____
ROOT
ATOM      1  N   UNL     1       7.639  -5.036  24.933  0.00  0.00    -0.258 N 
ATOM      2  C   UNL     1       8.666  -5.268  25.825  0.00  0.00    +0.310 C 
ATOM      3  O   UNL     1       9.861  -5.251  25.547  0.00  0.00    -0.252 OA
ATOM      4  N   UNL     1       8.273  -5.580  27.103  0.00  0.00    -0.239 N 
ATOM      5  H   UNL     1       9.021  -5.778  27.752  0.00  0.00    +0.159 HD
ATOM      6  C   UNL     1       7.012  -5.928  27.522  0.00  0.00    +0.229 C 
ATOM      7  O   UNL     1       6.831  -6.377  28.651  0.00  0.00    -0.275 OA
ATOM      8  C   UNL     1       5.912  -5.807  26.473  0.00  0.00    +0.116 C 
ATOM      9  C   UNL     1       6.328  -4.724  25.485  0.00  0.00    +0.128 C 
ENDROOT
BRANCH   1  11
ATOM     10  C2* UNL     1       6.687  -4.982  22.595  0.00  0.00    +0.086 C 
ATOM     11  C1* UNL     1       7.871  -4.760  23.522  0.00  0.00    +0.212 C 
ATOM     12  O4* UNL     1       8.326  -3.411  23.355  0.00  0.00    -0.350 OA
ATOM     13  C4* UNL     1       7.521  -2.793  22.330  0.00  0.00    +0.174 C 
ATOM     14  C3* UNL     1       6.216  -3.582  22.280  0.00  0.00    +0.150 C 
BRANCH  14  15
ATOM     15  O3* UNL     1       5.565  -3.528  21.018  0.00  0.00    -0.389 OA
ATOM     16  H3* UNL     1       4.778  -2.960  21.086  0.00  0.00    +0.210 HD
ENDBRANCH  14  15
BRANCH  13  17
ATOM     17  C5* UNL     1       7.350  -1.294  22.595  0.00  0.00    +0.190 C 
BRANCH  17  18
ATOM     18  O5* UNL     1       8.124  -0.819  23.690  0.00  0.00    -0.392 OA
ATOM     19  H5* UNL     1       7.531  -0.757  24.473  0.00  0.00    +0.210 HD
ENDBRANCH  17  18
ENDBRANCH  13  17
ENDBRANCH   1  11
BRANCH   8  20
ATOM     20  C   UNL     1       4.583  -5.494  27.110  0.00  0.00    -0.005 C 
ATOM     21  C   UNL     1       3.497  -6.262  26.968  0.00  0.00    +0.047 C 
ATOM     22 BR   UNL     1       1.859  -5.901  27.759  0.00  0.00    -0.059 Br
ENDBRANCH   8  20
TORSDOF 5
ENDMDL
MODEL 8
REMARK VINA RESULT:      -5.6      2.215      3.028
REMARK  Name = 
REMARK  5 active torsions:
REMARK  status: ('A' for Active; 'I' for Inactive)
REMARK    1  A    between atoms: C3*_2  and  O3*_22
REMARK    2  A    between atoms: C4*_4  and  C5*_20
REMARK    3  A    between atoms: C1*_7  and  N_9
REMARK    4  A    between atoms: C_11  and  C_17
REMARK    5  A    between atoms: C5*_20  and  O5*_21
REMARK                            x       y       z     vdW  Elec       q    Type
REMARK                         _______ _______ _______ _____ _____    ______ ____
ROOT
ATOM      1  N   UNL     1       8.163  -1.431  22.937  0.00  0.00    -0.258 N 
ATOM      2  C   UNL     1       6.845  -1.065  23.121  0.00  0.00    +0.310 C 
ATOM      3  O   UNL     1       5.929  -1.834  23.393  0.00  0.00    -0.252 OA
ATOM      4  N   UNL     1       6.576   0.269  22.934  0.00  0.00    -0.239 N 
ATOM      5  H   UNL     1       5.608   0.536  23.041  0.00  0.00    +0.159 HD
ATOM      6  C   UNL     1       7.394   1.207  22.353  0.00  0.00    +0.229 C 
ATOM      7  O   UNL     1       6.960   2.319  22.064  0.00  0.00    -0.275 OA
ATOM      8  C   UNL     1       8.805   0.736  22.020  0.00  0.00    +0.116 C 
ATOM      9  C   UNL     1       9.167  -0.377  22.995  0.00  0.00    +0.128 C 
ENDROOT
BRANCH   1  11
ATOM     10  C2* UNL     1       8.787  -3.368  24.432  0.00  0.00    +0.086 C 
ATOM     11  C1* UNL     1       8.614  -2.813  23.027  0.00  0.00    +0.212 C 
ATOM     12  O4* UNL     1       7.714  -3.670  22.313  0.00  0.00    -0.350 OA
ATOM     13  C4* UNL     1       7.358  -4.765  23.182  0.00  0.00    +0.174 C 
ATOM     14  C3* UNL     1       7.589  -4.270  24.607  0.00  0.00    +0.150 C 
BRANCH  14  15
ATOM     15  O3* UNL     1       7.858  -5.312  25.536  0.00  0.00    -0.389 OA
ATOM     16  H3* UNL     1       8.740  -5.682  25.356  0.00  0.00    +0.210 HD
ENDBRANCH  14  15
BRANCH  13  17
ATOM     17  C5* UNL     1       5.933  -5.250  22.898  0.00  0.00    +0.190 C 
BRANCH  17  18
ATOM     18  O5* UNL     1       5.192  -4.373  22.058  0.00  0.00    -0.392 OA
ATOM     19  H5* UNL     1       4.954  -4.869  21.242  0.00  0.00    +0.210 HD
ENDBRANCH  17  18
ENDBRANCH  13  17
ENDBRANCH   1  11
BRANCH   8  20
ATOM     20  C   UNL     1       9.790   1.873  22.087  0.00  0.00    -0.005 C 
ATOM     21  C   UNL     1      10.192   2.434  23.233  0.00  0.00    +0.047 C 
ATOM     22 BR   UNL     1      11.418   3.822  23.335  0.00  0.00    -0.059 Br
ENDBRANCH   8  20
TORSDOF 5
ENDMDL
MODEL 9
REMARK VINA RESULT:      -5.6      3.097      6.364
REMARK  Name = 
REMARK  5 active torsions:
REMARK  status: ('A' for Active; 'I' for Inactive)
REMARK    1  A    between atoms: C3*_2  and  O3*_22
REMARK    2  A    between atoms: C4*_4  and  C5*_20
REMARK    3  A    between atoms: C1*_7  and  N_9
REMARK    4  A    between atoms: C_11  and  C_17
REMARK    5  A    between atoms: C5*_20  and  O5*_21
REMARK                            x       y       z     vdW  Elec       q    Type
REMARK                         _______ _______ _______ _____ _____    ______ ____
ROOT
ATOM      1  N   UNL     1       9.343   0.556  22.934  0.00  0.00    -0.258 N 
ATOM      2  C   UNL     1      10.288   0.237  23.887  0.00  0.00    +0.310 C 
ATOM      3  O   UNL     1      11.106   1.019  24.360  0.00  0.00    -0.252 OA
ATOM      4  N   UNL     1      10.307  -1.080  24.277  0.00  0.00    -0.239 N 
ATOM      5  H   UNL     1      11.015  -1.323  24.954  0.00  0.00    +0.159 HD
ATOM      6  C   UNL     1       9.683  -2.137  23.660  0.00  0.00    +0.229 C 
ATOM      7  O   UNL     1       9.939  -3.292  23.991  0.00  0.00    -0.275 OA
ATOM      8  C   UNL     1       8.754  -1.773  22.508  0.00  0.00    +0.116 C 
ATOM      9  C   UNL     1       8.227  -0.366  22.760  0.00  0.00    +0.128 C 
ENDROOT
BRANCH   1  11
ATOM     10  C2* UNL     1       7.971   2.156  21.543  0.00  0.00    +0.086 C 
ATOM     11  C1* UNL     1       9.227   1.888  22.356  0.00  0.00    +0.212 C 
ATOM     12  O4* UNL     1       9.314   2.878  23.389  0.00  0.00    -0.350 OA
ATOM     13  C4* UNL     1       8.204   3.787  23.229  0.00  0.00    +0.174 C 
ATOM     14  C3* UNL     1       7.135   3.020  22.456  0.00  0.00    +0.150 C 
BRANCH  14  15
ATOM     15  O3* UNL     1       6.258   3.858  21.714  0.00  0.00    -0.389 OA
ATOM     16  H3* UNL     1       6.388   4.782  21.988  0.00  0.00    +0.210 HD
ENDBRANCH  14  15
BRANCH  13  17
ATOM     17  C5* UNL     1       7.744   4.335  24.583  0.00  0.00    +0.190 C 
BRANCH  17  18
ATOM     18  O5* UNL     1       6.470   4.968  24.535  0.00  0.00    -0.392 OA
ATOM     19  H5* UNL     1       6.122   4.875  23.619  0.00  0.00    +0.210 HD
ENDBRANCH  17  18
ENDBRANCH  13  17
ENDBRANCH   1  11
BRANCH   8  20
ATOM     20  C   UNL     1       7.631  -2.768  22.377  0.00  0.00    -0.005 C 
ATOM     21  C   UNL     1       6.502  -2.707  23.093  0.00  0.00    +0.047 C 
ATOM     22 BR   UNL     1       5.103  -3.913  22.931  0.00  0.00    -0.059 Br
ENDBRANCH   8  20
TORSDOF 5
ENDMDL
