MODEL 1
REMARK VINA RESULT:      -6.0      0.000      0.000
REMARK  Name = 
REMARK  19 active torsions:
REMARK  status: ('A' for Active; 'I' for Inactive)
REMARK    1  A    between atoms: C_1  and  C_2
REMARK    2  A    between atoms: C_2  and  C_3
REMARK    3  A    between atoms: C_2  and  C_4
REMARK    4  A    between atoms: C_4  and  C_6
REMARK    5  A    between atoms: C_4  and  N_54
REMARK    6  A    between atoms: C_12  and  C_14
REMARK    7  A    between atoms: C_17  and  C_19
REMARK    8  A    between atoms: C_22  and  C_25
REMARK    9  A    between atoms: C_28  and  C_31
REMARK   10  A    between atoms: C_34  and  C_36
REMARK   11  A    between atoms: C_42  and  C_44
REMARK   12  A    between atoms: C_44  and  C_46
REMARK   13  A    between atoms: C_44  and  N_49
REMARK   14  A    between atoms: C_46  and  C_47
REMARK   15  A    between atoms: C_46  and  C_48
REMARK   16  A    between atoms: C_50  and  O_52
REMARK   17  A    between atoms: O_52  and  C_53
REMARK   18  A    between atoms: C_55  and  O_57
REMARK   19  A    between atoms: O_57  and  C_58
REMARK                            x       y       z     vdW  Elec       q    Type
REMARK                         _______ _______ _______ _____ _____    ______ ____
ROOT
ATOM      1  C   UNL     1       5.032   2.109  29.221  0.00  0.00    -0.000 A 
ATOM      2  C   UNL     1       3.833   1.878  28.538  0.00  0.00    +0.010 A 
ATOM      3  C   UNL     1       3.155   0.650  28.647  0.00  0.00    +0.009 A 
ATOM      4  C   UNL     1       3.656  -0.402  29.427  0.00  0.00    -0.018 A 
ATOM      5  C   UNL     1       4.841  -0.135  30.147  0.00  0.00    +0.009 A 
ATOM      6  C   UNL     1       5.517   1.093  30.047  0.00  0.00    +0.010 A 
ENDROOT
BRANCH   1  10
ATOM      7  C   UNL     1       6.776   5.047  27.962  0.00  0.00    +0.128 A 
ATOM      8  N   UNL     1       5.886   4.017  27.822  0.00  0.00    -0.340 N 
ATOM      9  H   UNL     1       5.388   3.801  26.970  0.00  0.00    +0.167 HD
ATOM     10  C   UNL     1       5.793   3.345  29.023  0.00  0.00    +0.066 A 
ATOM     11  C   UNL     1       6.570   4.103  29.878  0.00  0.00    +0.139 A 
ATOM     12  N   UNL     1       7.196   5.124  29.212  0.00  0.00    -0.238 NA
BRANCH   7  15
ATOM     13  C   UNL     1       7.893   4.102  25.169  0.00  0.00    +0.237 C 
ATOM     14  N   UNL     1       8.173   5.286  25.838  0.00  0.00    -0.290 N 
ATOM     15  C   UNL     1       7.278   5.887  26.837  0.00  0.00    +0.142 C 
ATOM     16  C   UNL     1       8.073   7.103  27.372  0.00  0.00    +0.032 C 
ATOM     17  C   UNL     1       9.381   7.107  26.582  0.00  0.00    +0.021 C 
ATOM     18  C   UNL     1       9.032   6.342  25.327  0.00  0.00    +0.108 C 
ATOM     19  O   UNL     1       7.210   3.222  25.689  0.00  0.00    -0.274 OA
BRANCH  13  20
ATOM     20  C   UNL     1       8.559   3.896  23.777  0.00  0.00    +0.165 C 
BRANCH  20  21
ATOM     21  N   UNL     1       9.240   2.604  23.723  0.00  0.00    -0.270 N 
ATOM     22  H   UNL     1       8.701   1.749  23.730  0.00  0.00    +0.153 HD
ATOM     23  C   UNL     1      10.570   2.489  23.465  0.00  0.00    +0.401 C 
ATOM     24  O   UNL     1      11.349   3.425  23.358  0.00  0.00    -0.226 OA
BRANCH  23  25
ATOM     25  O   UNL     1      10.904   1.178  23.384  0.00  0.00    -0.454 OA
ATOM     26  C   UNL     1      10.567   0.419  24.546  0.00  0.00    +0.282 C 
ENDBRANCH  23  25
ENDBRANCH  20  21
BRANCH  20  28
ATOM     27  C   UNL     1       6.865   2.796  22.142  0.00  0.00    +0.009 C 
ATOM     28  C   UNL     1       7.614   4.065  22.559  0.00  0.00    +0.012 C 
ATOM     29  C   UNL     1       6.619   5.212  22.763  0.00  0.00    +0.009 C 
ENDBRANCH  20  28
ENDBRANCH  13  20
ENDBRANCH   7  15
ENDBRANCH   1  10
BRANCH   4  30
ATOM     30  C   UNL     1       3.060  -1.769  29.407  0.00  0.00    -0.018 A 
ATOM     31  C   UNL     1       1.770  -2.012  28.893  0.00  0.00    +0.009 A 
ATOM     32  C   UNL     1       1.322  -3.314  28.586  0.00  0.00    +0.010 A 
ATOM     33  C   UNL     1       2.154  -4.414  28.786  0.00  0.00    -0.000 A 
ATOM     34  C   UNL     1       3.355  -4.197  29.475  0.00  0.00    +0.010 A 
ATOM     35  C   UNL     1       3.800  -2.901  29.780  0.00  0.00    +0.009 A 
BRANCH  33  36
ATOM     36  C   UNL     1       1.869  -5.732  28.206  0.00  0.00    +0.066 A 
ATOM     37  N   UNL     1       2.167  -6.023  26.892  0.00  0.00    -0.340 N 
ATOM     38  H   UNL     1       2.527  -5.344  26.240  0.00  0.00    +0.167 HD
ATOM     39  C   UNL     1       1.856  -7.334  26.606  0.00  0.00    +0.128 A 
ATOM     40  N   UNL     1       1.194  -7.837  27.629  0.00  0.00    -0.238 NA
ATOM     41  C   UNL     1       1.198  -6.867  28.615  0.00  0.00    +0.139 A 
BRANCH  39  42
ATOM     42  C   UNL     1       2.091  -7.957  25.251  0.00  0.00    +0.142 C 
ATOM     43  N   UNL     1       2.234  -7.046  24.089  0.00  0.00    -0.290 N 
ATOM     44  C   UNL     1       3.143  -6.037  23.807  0.00  0.00    +0.237 C 
ATOM     45  O   UNL     1       3.311  -5.692  22.622  0.00  0.00    -0.274 OA
ATOM     46  C   UNL     1       1.590  -7.637  22.912  0.00  0.00    +0.108 C 
ATOM     47  C   UNL     1       1.036  -8.984  23.332  0.00  0.00    +0.021 C 
ATOM     48  C   UNL     1       0.881  -8.828  24.826  0.00  0.00    +0.032 C 
BRANCH  44  49
ATOM     49  C   UNL     1       3.862  -5.199  24.895  0.00  0.00    +0.165 C 
BRANCH  49  50
ATOM     50  N   UNL     1       5.302  -5.269  24.556  0.00  0.00    -0.270 N 
ATOM     51  H   UNL     1       5.536  -5.046  23.590  0.00  0.00    +0.153 HD
ATOM     52  C   UNL     1       6.358  -5.644  25.317  0.00  0.00    +0.401 C 
ATOM     53  O   UNL     1       6.318  -5.996  26.484  0.00  0.00    -0.226 OA
BRANCH  52  54
ATOM     54  O   UNL     1       7.476  -5.592  24.549  0.00  0.00    -0.454 OA
ATOM     55  C   UNL     1       7.340  -5.259  23.158  0.00  0.00    +0.282 C 
ENDBRANCH  52  54
ENDBRANCH  49  50
BRANCH  49  56
ATOM     56  C   UNL     1       3.308  -3.748  24.843  0.00  0.00    +0.012 C 
ATOM     57  C   UNL     1       3.919  -2.792  25.884  0.00  0.00    +0.009 C 
ATOM     58  C   UNL     1       1.786  -3.715  24.953  0.00  0.00    +0.009 C 
ENDBRANCH  49  56
ENDBRANCH  44  49
ENDBRANCH  39  42
ENDBRANCH  33  36
ENDBRANCH   4  30
TORSDOF 13
ENDMDL
MODEL 2
REMARK VINA RESULT:      -5.8      2.276      5.846
REMARK  Name = 
REMARK  19 active torsions:
REMARK  status: ('A' for Active; 'I' for Inactive)
REMARK    1  A    between atoms: C_1  and  C_2
REMARK    2  A    between atoms: C_2  and  C_3
REMARK    3  A    between atoms: C_2  and  C_4
REMARK    4  A    between atoms: C_4  and  C_6
REMARK    5  A    between atoms: C_4  and  N_54
REMARK    6  A    between atoms: C_12  and  C_14
REMARK    7  A    between atoms: C_17  and  C_19
REMARK    8  A    between atoms: C_22  and  C_25
REMARK    9  A    between atoms: C_28  and  C_31
REMARK   10  A    between atoms: C_34  and  C_36
REMARK   11  A    between atoms: C_42  and  C_44
REMARK   12  A    between atoms: C_44  and  C_46
REMARK   13  A    between atoms: C_44  and  N_49
REMARK   14  A    between atoms: C_46  and  C_47
REMARK   15  A    between atoms: C_46  and  C_48
REMARK   16  A    between atoms: C_50  and  O_52
REMARK   17  A    between atoms: O_52  and  C_53
REMARK   18  A    between atoms: C_55  and  O_57
REMARK   19  A    between atoms: O_57  and  C_58
REMARK                            x       y       z     vdW  Elec       q    Type
REMARK                         _______ _______ _______ _____ _____    ______ ____
ROOT
ATOM      1  C   UNL     1       8.810   0.335  23.644  0.00  0.00    -0.000 A 
ATOM      2  C   UNL     1       9.214  -0.752  24.426  0.00  0.00    +0.010 A 
ATOM      3  C   UNL     1       8.540  -1.986  24.365  0.00  0.00    +0.009 A 
ATOM      4  C   UNL     1       7.426  -2.178  23.535  0.00  0.00    -0.018 A 
ATOM      5  C   UNL     1       7.063  -1.085  22.718  0.00  0.00    +0.009 A 
ATOM      6  C   UNL     1       7.738   0.146  22.770  0.00  0.00    +0.010 A 
ENDROOT
BRANCH   1  10
ATOM      7  C   UNL     1       9.638   3.851  24.108  0.00  0.00    +0.128 A 
ATOM      8  N   UNL     1       8.789   2.783  24.223  0.00  0.00    -0.340 N 
ATOM      9  H   UNL     1       7.843   2.837  24.572  0.00  0.00    +0.167 HD
ATOM     10  C   UNL     1       9.442   1.648  23.787  0.00  0.00    +0.066 A 
ATOM     11  C   UNL     1      10.727   2.093  23.535  0.00  0.00    +0.139 A 
ATOM     12  N   UNL     1      10.829   3.449  23.702  0.00  0.00    -0.238 NA
BRANCH   7  15
ATOM     13  C   UNL     1       7.537   5.016  26.151  0.00  0.00    +0.237 C 
ATOM     14  N   UNL     1       7.945   5.570  24.945  0.00  0.00    -0.290 N 
ATOM     15  C   UNL     1       9.237   5.272  24.309  0.00  0.00    +0.142 C 
ATOM     16  C   UNL     1       9.171   6.020  22.956  0.00  0.00    +0.032 C 
ATOM     17  C   UNL     1       7.816   6.728  22.952  0.00  0.00    +0.021 C 
ATOM     18  C   UNL     1       7.482   6.844  24.421  0.00  0.00    +0.108 C 
ATOM     19  O   UNL     1       7.921   3.901  26.503  0.00  0.00    -0.274 OA
BRANCH  13  20
ATOM     20  C   UNL     1       6.501   5.819  26.991  0.00  0.00    +0.165 C 
BRANCH  20  21
ATOM     21  N   UNL     1       5.346   4.984  27.311  0.00  0.00    -0.270 N 
ATOM     22  H   UNL     1       5.328   4.456  28.172  0.00  0.00    +0.153 HD
ATOM     23  C   UNL     1       4.190   5.029  26.594  0.00  0.00    +0.401 C 
ATOM     24  O   UNL     1       4.024   5.672  25.568  0.00  0.00    -0.226 OA
BRANCH  23  25
ATOM     25  O   UNL     1       3.268   4.221  27.173  0.00  0.00    -0.454 OA
ATOM     26  C   UNL     1       3.811   3.301  28.120  0.00  0.00    +0.282 C 
ENDBRANCH  23  25
ENDBRANCH  20  21
BRANCH  20  28
ATOM     27  C   UNL     1       7.092   5.587  29.510  0.00  0.00    +0.009 C 
ATOM     28  C   UNL     1       7.063   6.488  28.272  0.00  0.00    +0.012 C 
ATOM     29  C   UNL     1       8.449   7.096  28.039  0.00  0.00    +0.009 C 
ENDBRANCH  20  28
ENDBRANCH  13  20
ENDBRANCH   7  15
ENDBRANCH   1  10
BRANCH   4  30
ATOM     30  C   UNL     1       6.584  -3.407  23.593  0.00  0.00    -0.018 A 
ATOM     31  C   UNL     1       6.882  -4.474  24.466  0.00  0.00    +0.009 A 
ATOM     32  C   UNL     1       5.945  -5.487  24.754  0.00  0.00    +0.010 A 
ATOM     33  C   UNL     1       4.677  -5.463  24.175  0.00  0.00    -0.000 A 
ATOM     34  C   UNL     1       4.448  -4.520  23.164  0.00  0.00    +0.010 A 
ATOM     35  C   UNL     1       5.382  -3.512  22.879  0.00  0.00    +0.009 A 
BRANCH  33  36
ATOM     36  C   UNL     1       3.572  -6.296  24.665  0.00  0.00    +0.066 A 
ATOM     37  N   UNL     1       3.045  -6.127  25.927  0.00  0.00    -0.340 N 
ATOM     38  H   UNL     1       3.421  -5.483  26.606  0.00  0.00    +0.167 HD
ATOM     39  C   UNL     1       1.989  -6.988  26.128  0.00  0.00    +0.128 A 
ATOM     40  N   UNL     1       1.942  -7.832  25.117  0.00  0.00    -0.238 NA
ATOM     41  C   UNL     1       2.905  -7.417  24.214  0.00  0.00    +0.139 A 
BRANCH  39  42
ATOM     42  C   UNL     1       1.189  -7.024  27.409  0.00  0.00    +0.142 C 
ATOM     43  N   UNL     1       1.857  -6.562  28.651  0.00  0.00    -0.290 N 
ATOM     44  C   UNL     1       2.415  -5.344  29.006  0.00  0.00    +0.237 C 
ATOM     45  O   UNL     1       2.550  -5.073  30.216  0.00  0.00    -0.274 OA
ATOM     46  C   UNL     1       1.436  -7.397  29.780  0.00  0.00    +0.108 C 
ATOM     47  C   UNL     1       0.448  -8.414  29.244  0.00  0.00    +0.021 C 
ATOM     48  C   UNL     1       0.800  -8.478  27.777  0.00  0.00    +0.032 C 
BRANCH  44  49
ATOM     49  C   UNL     1       3.025  -4.347  27.988  0.00  0.00    +0.165 C 
BRANCH  49  50
ATOM     50  N   UNL     1       1.919  -3.432  27.623  0.00  0.00    -0.270 N 
ATOM     51  H   UNL     1       1.244  -3.244  28.362  0.00  0.00    +0.153 HD
ATOM     52  C   UNL     1       1.628  -2.851  26.435  0.00  0.00    +0.401 C 
ATOM     53  O   UNL     1       2.261  -2.966  25.400  0.00  0.00    -0.226 OA
BRANCH  52  54
ATOM     54  O   UNL     1       0.483  -2.135  26.581  0.00  0.00    -0.454 OA
ATOM     55  C   UNL     1       0.449  -1.086  27.562  0.00  0.00    +0.282 C 
ENDBRANCH  52  54
ENDBRANCH  49  50
BRANCH  49  56
ATOM     56  C   UNL     1       4.208  -3.606  28.674  0.00  0.00    +0.012 C 
ATOM     57  C   UNL     1       3.857  -2.211  29.221  0.00  0.00    +0.009 C 
ATOM     58  C   UNL     1       5.424  -3.503  27.758  0.00  0.00    +0.009 C 
ENDBRANCH  49  56
ENDBRANCH  44  49
ENDBRANCH  39  42
ENDBRANCH  33  36
ENDBRANCH   4  30
TORSDOF 13
ENDMDL
MODEL 3
REMARK VINA RESULT:      -4.8      2.133     11.640
REMARK  Name = 
REMARK  19 active torsions:
REMARK  status: ('A' for Active; 'I' for Inactive)
REMARK    1  A    between atoms: C_1  and  C_2
REMARK    2  A    between atoms: C_2  and  C_3
REMARK    3  A    between atoms: C_2  and  C_4
REMARK    4  A    between atoms: C_4  and  C_6
REMARK    5  A    between atoms: C_4  and  N_54
REMARK    6  A    between atoms: C_12  and  C_14
REMARK    7  A    between atoms: C_17  and  C_19
REMARK    8  A    between atoms: C_22  and  C_25
REMARK    9  A    between atoms: C_28  and  C_31
REMARK   10  A    between atoms: C_34  and  C_36
REMARK   11  A    between atoms: C_42  and  C_44
REMARK   12  A    between atoms: C_44  and  C_46
REMARK   13  A    between atoms: C_44  and  N_49
REMARK   14  A    between atoms: C_46  and  C_47
REMARK   15  A    between atoms: C_46  and  C_48
REMARK   16  A    between atoms: C_50  and  O_52
REMARK   17  A    between atoms: O_52  and  C_53
REMARK   18  A    between atoms: C_55  and  O_57
REMARK   19  A    between atoms: O_57  and  C_58
REMARK                            x       y       z     vdW  Elec       q    Type
REMARK                         _______ _______ _______ _____ _____    ______ ____
ROOT
ATOM      1  C   UNL     1       2.571  -1.282  30.079  0.00  0.00    -0.000 A 
ATOM      2  C   UNL     1       3.964  -1.163  30.123  0.00  0.00    +0.010 A 
ATOM      3  C   UNL     1       4.596   0.085  29.972  0.00  0.00    +0.009 A 
ATOM      4  C   UNL     1       3.863   1.261  29.754  0.00  0.00    -0.018 A 
ATOM      5  C   UNL     1       2.457   1.129  29.762  0.00  0.00    +0.009 A 
ATOM      6  C   UNL     1       1.823  -0.115  29.919  0.00  0.00    +0.010 A 
ENDROOT
BRANCH   1  10
ATOM      7  C   UNL     1       1.659  -4.805  29.956  0.00  0.00    +0.128 A 
ATOM      8  N   UNL     1       2.583  -3.796  29.997  0.00  0.00    -0.340 N 
ATOM      9  H   UNL     1       3.582  -3.931  29.941  0.00  0.00    +0.167 HD
ATOM     10  C   UNL     1       1.920  -2.593  30.127  0.00  0.00    +0.066 A 
ATOM     11  C   UNL     1       0.598  -2.968  30.278  0.00  0.00    +0.139 A 
ATOM     12  N   UNL     1       0.443  -4.322  30.138  0.00  0.00    -0.238 NA
BRANCH   7  15
ATOM     13  C   UNL     1       2.494  -6.050  27.182  0.00  0.00    +0.237 C 
ATOM     14  N   UNL     1       1.881  -6.692  28.250  0.00  0.00    -0.290 N 
ATOM     15  C   UNL     1       1.977  -6.227  29.641  0.00  0.00    +0.142 C 
ATOM     16  C   UNL     1       1.044  -7.184  30.422  0.00  0.00    +0.032 C 
ATOM     17  C   UNL     1       0.506  -8.162  29.379  0.00  0.00    +0.021 C 
ATOM     18  C   UNL     1       1.543  -8.105  28.282  0.00  0.00    +0.108 C 
ATOM     19  O   UNL     1       2.692  -4.836  27.196  0.00  0.00    -0.274 OA
BRANCH  13  20
ATOM     20  C   UNL     1       2.830  -6.912  25.929  0.00  0.00    +0.165 C 
BRANCH  20  21
ATOM     21  N   UNL     1       1.922  -6.591  24.830  0.00  0.00    -0.270 N 
ATOM     22  H   UNL     1       1.888  -5.651  24.463  0.00  0.00    +0.153 HD
ATOM     23  C   UNL     1       1.249  -7.547  24.135  0.00  0.00    +0.401 C 
ATOM     24  O   UNL     1       1.241  -8.739  24.406  0.00  0.00    -0.226 OA
BRANCH  23  25
ATOM     25  O   UNL     1       0.561  -6.968  23.121  0.00  0.00    -0.454 OA
ATOM     26  C   UNL     1       0.888  -5.595  22.903  0.00  0.00    +0.282 C 
ENDBRANCH  23  25
ENDBRANCH  20  21
BRANCH  20  28
ATOM     27  C   UNL     1       4.584  -5.814  24.359  0.00  0.00    +0.009 C 
ATOM     28  C   UNL     1       4.305  -6.846  25.456  0.00  0.00    +0.012 C 
ATOM     29  C   UNL     1       5.272  -6.636  26.625  0.00  0.00    +0.009 C 
ENDBRANCH  20  28
ENDBRANCH  13  20
ENDBRANCH   7  15
ENDBRANCH   1  10
BRANCH   4  30
ATOM     30  C   UNL     1       4.512   2.558  29.404  0.00  0.00    -0.018 A 
ATOM     31  C   UNL     1       5.491   3.148  30.229  0.00  0.00    +0.009 A 
ATOM     32  C   UNL     1       6.322   4.192  29.771  0.00  0.00    +0.010 A 
ATOM     33  C   UNL     1       6.197   4.677  28.470  0.00  0.00    -0.000 A 
ATOM     34  C   UNL     1       5.102   4.230  27.718  0.00  0.00    +0.010 A 
ATOM     35  C   UNL     1       4.276   3.191  28.175  0.00  0.00    +0.009 A 
BRANCH  33  36
ATOM     36  C   UNL     1       7.217   5.527  27.846  0.00  0.00    +0.066 A 
ATOM     37  N   UNL     1       7.775   5.208  26.626  0.00  0.00    -0.340 N 
ATOM     38  H   UNL     1       7.574   4.355  26.128  0.00  0.00    +0.167 HD
ATOM     39  C   UNL     1       8.663   6.185  26.232  0.00  0.00    +0.128 A 
ATOM     40  N   UNL     1       8.838   7.018  27.238  0.00  0.00    -0.238 NA
ATOM     41  C   UNL     1       7.957   6.627  28.231  0.00  0.00    +0.139 A 
BRANCH  39  42
ATOM     42  C   UNL     1       9.417   6.132  24.925  0.00  0.00    +0.142 C 
ATOM     43  N   UNL     1       9.520   4.817  24.243  0.00  0.00    -0.290 N 
ATOM     44  C   UNL     1       8.557   3.950  23.749  0.00  0.00    +0.237 C 
ATOM     45  O   UNL     1       8.884   3.122  22.877  0.00  0.00    -0.274 OA
ATOM     46  C   UNL     1      10.843   4.682  23.625  0.00  0.00    +0.108 C 
ATOM     47  C   UNL     1      11.603   5.964  23.903  0.00  0.00    +0.021 C 
ATOM     48  C   UNL     1      10.908   6.502  25.131  0.00  0.00    +0.032 C 
BRANCH  44  49
ATOM     49  C   UNL     1       7.122   3.842  24.324  0.00  0.00    +0.165 C 
BRANCH  49  50
ATOM     50  N   UNL     1       6.271   4.634  23.406  0.00  0.00    -0.270 N 
ATOM     51  H   UNL     1       6.230   4.298  22.446  0.00  0.00    +0.153 HD
ATOM     52  C   UNL     1       5.583   5.779  23.630  0.00  0.00    +0.401 C 
ATOM     53  O   UNL     1       5.521   6.391  24.682  0.00  0.00    -0.226 OA
BRANCH  52  54
ATOM     54  O   UNL     1       4.992   6.154  22.466  0.00  0.00    -0.454 OA
ATOM     55  C   UNL     1       3.631   5.762  22.228  0.00  0.00    +0.282 C 
ENDBRANCH  52  54
ENDBRANCH  49  50
BRANCH  49  56
ATOM     56  C   UNL     1       6.720   2.340  24.360  0.00  0.00    +0.012 C 
ATOM     57  C   UNL     1       5.203   2.083  24.314  0.00  0.00    +0.009 C 
ATOM     58  C   UNL     1       7.322   1.618  25.562  0.00  0.00    +0.009 C 
ENDBRANCH  49  56
ENDBRANCH  44  49
ENDBRANCH  39  42
ENDBRANCH  33  36
ENDBRANCH   4  30
TORSDOF 13
ENDMDL
MODEL 4
REMARK VINA RESULT:      -4.4      3.571     11.748
REMARK  Name = 
REMARK  19 active torsions:
REMARK  status: ('A' for Active; 'I' for Inactive)
REMARK    1  A    between atoms: C_1  and  C_2
REMARK    2  A    between atoms: C_2  and  C_3
REMARK    3  A    between atoms: C_2  and  C_4
REMARK    4  A    between atoms: C_4  and  C_6
REMARK    5  A    between atoms: C_4  and  N_54
REMARK    6  A    between atoms: C_12  and  C_14
REMARK    7  A    between atoms: C_17  and  C_19
REMARK    8  A    between atoms: C_22  and  C_25
REMARK    9  A    between atoms: C_28  and  C_31
REMARK   10  A    between atoms: C_34  and  C_36
REMARK   11  A    between atoms: C_42  and  C_44
REMARK   12  A    between atoms: C_44  and  C_46
REMARK   13  A    between atoms: C_44  and  N_49
REMARK   14  A    between atoms: C_46  and  C_47
REMARK   15  A    between atoms: C_46  and  C_48
REMARK   16  A    between atoms: C_50  and  O_52
REMARK   17  A    between atoms: O_52  and  C_53
REMARK   18  A    between atoms: C_55  and  O_57
REMARK   19  A    between atoms: O_57  and  C_58
REMARK                            x       y       z     vdW  Elec       q    Type
REMARK                         _______ _______ _______ _____ _____    ______ ____
ROOT
ATOM      1  C   UNL     1       7.690  -3.045  25.386  0.00  0.00    -0.000 A 
ATOM      2  C   UNL     1       6.855  -2.678  24.326  0.00  0.00    +0.010 A 
ATOM      3  C   UNL     1       6.981  -1.427  23.695  0.00  0.00    +0.009 A 
ATOM      4  C   UNL     1       7.935  -0.485  24.109  0.00  0.00    -0.018 A 
ATOM      5  C   UNL     1       8.800  -0.891  25.148  0.00  0.00    +0.009 A 
ATOM      6  C   UNL     1       8.682  -2.143  25.776  0.00  0.00    +0.010 A 
ENDROOT
BRANCH   1  10
ATOM      7  C   UNL     1       6.468  -5.870  27.332  0.00  0.00    +0.128 A 
ATOM      8  N   UNL     1       6.270  -4.732  26.596  0.00  0.00    -0.340 N 
ATOM      9  H   UNL     1       5.372  -4.297  26.443  0.00  0.00    +0.167 HD
ATOM     10  C   UNL     1       7.488  -4.301  26.112  0.00  0.00    +0.066 A 
ATOM     11  C   UNL     1       8.362  -5.299  26.501  0.00  0.00    +0.139 A 
ATOM     12  N   UNL     1       7.735  -6.238  27.277  0.00  0.00    -0.238 NA
BRANCH   7  15
ATOM     13  C   UNL     1       3.335  -5.605  27.093  0.00  0.00    +0.237 C 
ATOM     14  N   UNL     1       4.074  -5.940  28.219  0.00  0.00    -0.290 N 
ATOM     15  C   UNL     1       5.420  -6.528  28.163  0.00  0.00    +0.142 C 
ATOM     16  C   UNL     1       5.861  -6.601  29.645  0.00  0.00    +0.032 C 
ATOM     17  C   UNL     1       4.677  -6.060  30.445  0.00  0.00    +0.021 C 
ATOM     18  C   UNL     1       3.505  -6.271  29.515  0.00  0.00    +0.108 C 
ATOM     19  O   UNL     1       3.885  -5.271  26.044  0.00  0.00    -0.274 OA
BRANCH  13  20
ATOM     20  C   UNL     1       1.785  -5.576  27.240  0.00  0.00    +0.165 C 
BRANCH  20  21
ATOM     21  N   UNL     1       1.286  -4.207  27.120  0.00  0.00    -0.270 N 
ATOM     22  H   UNL     1       0.709  -3.948  26.333  0.00  0.00    +0.153 HD
ATOM     23  C   UNL     1       1.398  -3.298  28.126  0.00  0.00    +0.401 C 
ATOM     24  O   UNL     1       2.002  -3.478  29.172  0.00  0.00    -0.226 OA
BRANCH  23  25
ATOM     25  O   UNL     1       0.769  -2.151  27.770  0.00  0.00    -0.454 OA
ATOM     26  C   UNL     1       1.262  -0.986  28.432  0.00  0.00    +0.282 C 
ENDBRANCH  23  25
ENDBRANCH  20  21
BRANCH  20  28
ATOM     27  C   UNL     1       0.882  -6.024  24.846  0.00  0.00    +0.009 C 
ATOM     28  C   UNL     1       1.011  -6.524  26.288  0.00  0.00    +0.012 C 
ATOM     29  C   UNL     1       1.591  -7.942  26.297  0.00  0.00    +0.009 C 
ENDBRANCH  20  28
ENDBRANCH  13  20
ENDBRANCH   7  15
ENDBRANCH   1  10
BRANCH   4  30
ATOM     30  C   UNL     1       7.962   0.912  23.587  0.00  0.00    -0.018 A 
ATOM     31  C   UNL     1       7.563   1.223  22.271  0.00  0.00    +0.009 A 
ATOM     32  C   UNL     1       7.291   2.546  21.867  0.00  0.00    +0.010 A 
ATOM     33  C   UNL     1       7.412   3.601  22.770  0.00  0.00    -0.000 A 
ATOM     34  C   UNL     1       7.994   3.320  24.015  0.00  0.00    +0.010 A 
ATOM     35  C   UNL     1       8.263   2.002  24.416  0.00  0.00    +0.009 A 
BRANCH  33  36
ATOM     36  C   UNL     1       6.855   4.933  22.506  0.00  0.00    +0.066 A 
ATOM     37  N   UNL     1       5.498   5.134  22.372  0.00  0.00    -0.340 N 
ATOM     38  H   UNL     1       4.821   4.387  22.379  0.00  0.00    +0.167 HD
ATOM     39  C   UNL     1       5.225   6.471  22.182  0.00  0.00    +0.128 A 
ATOM     40  N   UNL     1       6.366   7.106  21.998  0.00  0.00    -0.238 NA
ATOM     41  C   UNL     1       7.370   6.175  22.195  0.00  0.00    +0.139 A 
BRANCH  39  42
ATOM     42  C   UNL     1       3.823   7.010  22.028  0.00  0.00    +0.142 C 
ATOM     43  N   UNL     1       2.720   6.255  22.673  0.00  0.00    -0.290 N 
ATOM     44  C   UNL     1       2.472   5.927  23.997  0.00  0.00    +0.237 C 
ATOM     45  O   UNL     1       1.306   5.648  24.340  0.00  0.00    -0.274 OA
ATOM     46  C   UNL     1       1.532   6.281  21.814  0.00  0.00    +0.108 C 
ATOM     47  C   UNL     1       1.882   7.100  20.587  0.00  0.00    +0.021 C 
ATOM     48  C   UNL     1       3.388   6.999  20.540  0.00  0.00    +0.032 C 
BRANCH  44  49
ATOM     49  C   UNL     1       3.585   5.736  25.060  0.00  0.00    +0.165 C 
BRANCH  49  50
ATOM     50  N   UNL     1       3.122   6.485  26.251  0.00  0.00    -0.270 N 
ATOM     51  H   UNL     1       3.468   7.439  26.330  0.00  0.00    +0.153 HD
ATOM     52  C   UNL     1       2.356   6.076  27.291  0.00  0.00    +0.401 C 
ATOM     53  O   UNL     1       1.869   4.968  27.438  0.00  0.00    -0.226 OA
BRANCH  52  54
ATOM     54  O   UNL     1       2.245   7.108  28.167  0.00  0.00    -0.454 OA
ATOM     55  C   UNL     1       1.236   7.038  29.187  0.00  0.00    +0.282 C 
ENDBRANCH  52  54
ENDBRANCH  49  50
BRANCH  49  56
ATOM     56  C   UNL     1       3.742   4.215  25.338  0.00  0.00    +0.012 C 
ATOM     57  C   UNL     1       5.044   3.828  26.062  0.00  0.00    +0.009 C 
ATOM     58  C   UNL     1       3.603   3.386  24.063  0.00  0.00    +0.009 C 
ENDBRANCH  49  56
ENDBRANCH  44  49
ENDBRANCH  39  42
ENDBRANCH  33  36
ENDBRANCH   4  30
TORSDOF 13
ENDMDL
MODEL 5
REMARK VINA RESULT:      -3.8      2.175     11.340
REMARK  Name = 
REMARK  19 active torsions:
REMARK  status: ('A' for Active; 'I' for Inactive)
REMARK    1  A    between atoms: C_1  and  C_2
REMARK    2  A    between atoms: C_2  and  C_3
REMARK    3  A    between atoms: C_2  and  C_4
REMARK    4  A    between atoms: C_4  and  C_6
REMARK    5  A    between atoms: C_4  and  N_54
REMARK    6  A    between atoms: C_12  and  C_14
REMARK    7  A    between atoms: C_17  and  C_19
REMARK    8  A    between atoms: C_22  and  C_25
REMARK    9  A    between atoms: C_28  and  C_31
REMARK   10  A    between atoms: C_34  and  C_36
REMARK   11  A    between atoms: C_42  and  C_44
REMARK   12  A    between atoms: C_44  and  C_46
REMARK   13  A    between atoms: C_44  and  N_49
REMARK   14  A    between atoms: C_46  and  C_47
REMARK   15  A    between atoms: C_46  and  C_48
REMARK   16  A    between atoms: C_50  and  O_52
REMARK   17  A    between atoms: O_52  and  C_53
REMARK   18  A    between atoms: C_55  and  O_57
REMARK   19  A    between atoms: O_57  and  C_58
REMARK                            x       y       z     vdW  Elec       q    Type
REMARK                         _______ _______ _______ _____ _____    ______ ____
ROOT
ATOM      1  C   UNL     1       3.193  -0.638  29.379  0.00  0.00    -0.000 A 
ATOM      2  C   UNL     1       4.540  -0.664  29.001  0.00  0.00    +0.010 A 
ATOM      3  C   UNL     1       5.188   0.490  28.525  0.00  0.00    +0.009 A 
ATOM      4  C   UNL     1       4.513   1.713  28.392  0.00  0.00    -0.018 A 
ATOM      5  C   UNL     1       3.169   1.733  28.823  0.00  0.00    +0.009 A 
ATOM      6  C   UNL     1       2.520   0.583  29.305  0.00  0.00    +0.010 A 
ENDROOT
BRANCH   1  10
ATOM      7  C   UNL     1       2.040  -4.041  29.970  0.00  0.00    +0.128 A 
ATOM      8  N   UNL     1       3.008  -3.133  29.633  0.00  0.00    -0.340 N 
ATOM      9  H   UNL     1       3.943  -3.375  29.336  0.00  0.00    +0.167 HD
ATOM     10  C   UNL     1       2.490  -1.862  29.770  0.00  0.00    +0.066 A 
ATOM     11  C   UNL     1       1.236  -2.080  30.309  0.00  0.00    +0.139 A 
ATOM     12  N   UNL     1       0.956  -3.419  30.396  0.00  0.00    -0.238 NA
BRANCH   7  15
ATOM     13  C   UNL     1       3.033  -5.597  27.414  0.00  0.00    +0.237 C 
ATOM     14  N   UNL     1       2.183  -6.058  28.410  0.00  0.00    -0.290 N 
ATOM     15  C   UNL     1       2.161  -5.514  29.775  0.00  0.00    +0.142 C 
ATOM     16  C   UNL     1       0.985  -6.255  30.457  0.00  0.00    +0.032 C 
ATOM     17  C   UNL     1       0.443  -7.212  29.395  0.00  0.00    +0.021 C 
ATOM     18  C   UNL     1       1.617  -7.395  28.462  0.00  0.00    +0.108 C 
ATOM     19  O   UNL     1       3.424  -4.431  27.397  0.00  0.00    -0.274 OA
BRANCH  13  20
ATOM     20  C   UNL     1       3.393  -6.589  26.268  0.00  0.00    +0.165 C 
BRANCH  20  21
ATOM     21  N   UNL     1       2.515  -6.381  25.119  0.00  0.00    -0.270 N 
ATOM     22  H   UNL     1       2.557  -5.513  24.603  0.00  0.00    +0.153 HD
ATOM     23  C   UNL     1       1.770  -7.382  24.577  0.00  0.00    +0.401 C 
ATOM     24  O   UNL     1       1.666  -8.509  25.038  0.00  0.00    -0.226 OA
BRANCH  23  25
ATOM     25  O   UNL     1       1.131  -6.923  23.473  0.00  0.00    -0.454 OA
ATOM     26  C   UNL     1       0.476  -7.940  22.715  0.00  0.00    +0.282 C 
ENDBRANCH  23  25
ENDBRANCH  20  21
BRANCH  20  28
ATOM     27  C   UNL     1       5.160  -5.845  24.515  0.00  0.00    +0.009 C 
ATOM     28  C   UNL     1       4.880  -6.582  25.828  0.00  0.00    +0.012 C 
ATOM     29  C   UNL     1       5.799  -6.048  26.931  0.00  0.00    +0.009 C 
ENDBRANCH  20  28
ENDBRANCH  13  20
ENDBRANCH   7  15
ENDBRANCH   1  10
BRANCH   4  30
ATOM     30  C   UNL     1       5.122   2.895  27.716  0.00  0.00    -0.018 A 
ATOM     31  C   UNL     1       6.309   3.493  28.186  0.00  0.00    +0.009 A 
ATOM     32  C   UNL     1       7.052   4.396  27.399  0.00  0.00    +0.010 A 
ATOM     33  C   UNL     1       6.628   4.729  26.113  0.00  0.00    -0.000 A 
ATOM     34  C   UNL     1       5.355   4.292  25.721  0.00  0.00    +0.010 A 
ATOM     35  C   UNL     1       4.616   3.393  26.506  0.00  0.00    +0.009 A 
BRANCH  33  36
ATOM     36  C   UNL     1       7.501   5.404  25.146  0.00  0.00    +0.066 A 
ATOM     37  N   UNL     1       8.687   4.840  24.728  0.00  0.00    -0.340 N 
ATOM     38  H   UNL     1       9.057   3.980  25.102  0.00  0.00    +0.167 HD
ATOM     39  C   UNL     1       9.295   5.639  23.784  0.00  0.00    +0.128 A 
ATOM     40  N   UNL     1       8.640   6.782  23.723  0.00  0.00    -0.238 NA
ATOM     41  C   UNL     1       7.540   6.649  24.551  0.00  0.00    +0.139 A 
BRANCH  39  42
ATOM     42  C   UNL     1      10.600   5.276  23.117  0.00  0.00    +0.142 C 
ATOM     43  N   UNL     1      11.338   4.101  23.643  0.00  0.00    -0.290 N 
ATOM     44  C   UNL     1      10.995   2.762  23.750  0.00  0.00    +0.237 C 
ATOM     45  O   UNL     1      11.903   1.913  23.844  0.00  0.00    -0.274 OA
ATOM     46  C   UNL     1      12.780   4.364  23.604  0.00  0.00    +0.108 C 
ATOM     47  C   UNL     1      12.970   5.747  23.013  0.00  0.00    +0.021 C 
ATOM     48  C   UNL     1      11.642   6.410  23.289  0.00  0.00    +0.032 C 
BRANCH  44  49
ATOM     49  C   UNL     1       9.538   2.258  23.913  0.00  0.00    +0.165 C 
BRANCH  49  50
ATOM     50  N   UNL     1       9.169   1.693  22.595  0.00  0.00    -0.270 N 
ATOM     51  H   UNL     1       9.893   1.149  22.132  0.00  0.00    +0.153 HD
ATOM     52  C   UNL     1       8.030   1.840  21.875  0.00  0.00    +0.401 C 
ATOM     53  O   UNL     1       7.047   2.482  22.201  0.00  0.00    -0.226 OA
BRANCH  52  54
ATOM     54  O   UNL     1       8.180   1.172  20.702  0.00  0.00    -0.454 OA
ATOM     55  C   UNL     1       8.692  -0.170  20.736  0.00  0.00    +0.282 C 
ENDBRANCH  52  54
ENDBRANCH  49  50
BRANCH  49  56
ATOM     56  C   UNL     1       9.512   1.192  25.045  0.00  0.00    +0.012 C 
ATOM     57  C   UNL     1       9.952  -0.216  24.607  0.00  0.00    +0.009 C 
ATOM     58  C   UNL     1       8.145   1.111  25.718  0.00  0.00    +0.009 C 
ENDBRANCH  49  56
ENDBRANCH  44  49
ENDBRANCH  39  42
ENDBRANCH  33  36
ENDBRANCH   4  30
TORSDOF 13
ENDMDL
MODEL 6
REMARK VINA RESULT:      -3.4      1.745      2.391
REMARK  Name = 
REMARK  19 active torsions:
REMARK  status: ('A' for Active; 'I' for Inactive)
REMARK    1  A    between atoms: C_1  and  C_2
REMARK    2  A    between atoms: C_2  and  C_3
REMARK    3  A    between atoms: C_2  and  C_4
REMARK    4  A    between atoms: C_4  and  C_6
REMARK    5  A    between atoms: C_4  and  N_54
REMARK    6  A    between atoms: C_12  and  C_14
REMARK    7  A    between atoms: C_17  and  C_19
REMARK    8  A    between atoms: C_22  and  C_25
REMARK    9  A    between atoms: C_28  and  C_31
REMARK   10  A    between atoms: C_34  and  C_36
REMARK   11  A    between atoms: C_42  and  C_44
REMARK   12  A    between atoms: C_44  and  C_46
REMARK   13  A    between atoms: C_44  and  N_49
REMARK   14  A    between atoms: C_46  and  C_47
REMARK   15  A    between atoms: C_46  and  C_48
REMARK   16  A    between atoms: C_50  and  O_52
REMARK   17  A    between atoms: O_52  and  C_53
REMARK   18  A    between atoms: C_55  and  O_57
REMARK   19  A    between atoms: O_57  and  C_58
REMARK                            x       y       z     vdW  Elec       q    Type
REMARK                         _______ _______ _______ _____ _____    ______ ____
ROOT
ATOM      1  C   UNL     1       4.286   3.023  26.534  0.00  0.00    -0.000 A 
ATOM      2  C   UNL     1       2.912   2.788  26.425  0.00  0.00    +0.010 A 
ATOM      3  C   UNL     1       2.313   1.664  27.022  0.00  0.00    +0.009 A 
ATOM      4  C   UNL     1       3.064   0.721  27.738  0.00  0.00    -0.018 A 
ATOM      5  C   UNL     1       4.441   0.999  27.878  0.00  0.00    +0.009 A 
ATOM      6  C   UNL     1       5.042   2.124  27.289  0.00  0.00    +0.010 A 
ENDROOT
BRANCH   1  10
ATOM      7  C   UNL     1       6.542   5.479  25.070  0.00  0.00    +0.128 A 
ATOM      8  N   UNL     1       6.289   4.270  25.663  0.00  0.00    -0.340 N 
ATOM      9  H   UNL     1       6.998   3.603  25.930  0.00  0.00    +0.167 HD
ATOM     10  C   UNL     1       4.926   4.132  25.822  0.00  0.00    +0.066 A 
ATOM     11  C   UNL     1       4.412   5.250  25.192  0.00  0.00    +0.139 A 
ATOM     12  N   UNL     1       5.409   6.086  24.764  0.00  0.00    -0.238 NA
BRANCH   7  15
ATOM     13  C   UNL     1       9.189   4.036  24.146  0.00  0.00    +0.237 C 
ATOM     14  N   UNL     1       9.073   5.180  24.925  0.00  0.00    -0.290 N 
ATOM     15  C   UNL     1       7.901   6.066  24.899  0.00  0.00    +0.142 C 
ATOM     16  C   UNL     1       8.193   7.107  26.007  0.00  0.00    +0.032 C 
ATOM     17  C   UNL     1       9.565   6.729  26.564  0.00  0.00    +0.021 C 
ATOM     18  C   UNL     1      10.196   5.951  25.432  0.00  0.00    +0.108 C 
ATOM     19  O   UNL     1       8.197   3.394  23.804  0.00  0.00    -0.274 OA
BRANCH  13  20
ATOM     20  C   UNL     1      10.627   3.547  23.805  0.00  0.00    +0.165 C 
BRANCH  20  21
ATOM     21  N   UNL     1      10.584   2.228  23.178  0.00  0.00    -0.270 N 
ATOM     22  H   UNL     1      10.658   2.144  22.174  0.00  0.00    +0.153 HD
ATOM     23  C   UNL     1      10.643   1.074  23.897  0.00  0.00    +0.401 C 
ATOM     24  O   UNL     1      10.633   1.005  25.117  0.00  0.00    -0.226 OA
BRANCH  23  25
ATOM     25  O   UNL     1      10.677   0.016  23.051  0.00  0.00    -0.454 OA
ATOM     26  C   UNL     1      10.150  -1.190  23.605  0.00  0.00    +0.282 C 
ENDBRANCH  23  25
ENDBRANCH  20  21
BRANCH  20  28
ATOM     27  C   UNL     1      12.732   5.062  23.649  0.00  0.00    +0.009 C 
ATOM     28  C   UNL     1      11.476   4.527  22.955  0.00  0.00    +0.012 C 
ATOM     29  C   UNL     1      11.848   3.929  21.594  0.00  0.00    +0.009 C 
ENDBRANCH  20  28
ENDBRANCH  13  20
ENDBRANCH   7  15
ENDBRANCH   1  10
BRANCH   4  30
ATOM     30  C   UNL     1       2.488  -0.569  28.215  0.00  0.00    -0.018 A 
ATOM     31  C   UNL     1       1.185  -0.979  27.863  0.00  0.00    +0.009 A 
ATOM     32  C   UNL     1       0.746  -2.306  28.043  0.00  0.00    +0.010 A 
ATOM     33  C   UNL     1       1.600  -3.267  28.583  0.00  0.00    -0.000 A 
ATOM     34  C   UNL     1       2.819  -2.821  29.111  0.00  0.00    +0.010 A 
ATOM     35  C   UNL     1       3.255  -1.499  28.931  0.00  0.00    +0.009 A 
BRANCH  33  36
ATOM     36  C   UNL     1       1.315  -4.705  28.507  0.00  0.00    +0.066 A 
ATOM     37  N   UNL     1       1.882  -5.503  27.537  0.00  0.00    -0.340 N 
ATOM     38  H   UNL     1       2.461  -5.148  26.792  0.00  0.00    +0.167 HD
ATOM     39  C   UNL     1       1.503  -6.816  27.711  0.00  0.00    +0.128 A 
ATOM     40  N   UNL     1       0.565  -6.859  28.637  0.00  0.00    -0.238 NA
ATOM     41  C   UNL     1       0.443  -5.573  29.133  0.00  0.00    +0.139 A 
BRANCH  39  42
ATOM     42  C   UNL     1       1.982  -7.936  26.818  0.00  0.00    +0.142 C 
ATOM     43  N   UNL     1       2.381  -7.587  25.432  0.00  0.00    -0.290 N 
ATOM     44  C   UNL     1       3.360  -6.740  24.933  0.00  0.00    +0.237 C 
ATOM     45  O   UNL     1       3.770  -6.914  23.769  0.00  0.00    -0.274 OA
ATOM     46  C   UNL     1       1.965  -8.651  24.513  0.00  0.00    +0.108 C 
ATOM     47  C   UNL     1       1.296  -9.728  25.345  0.00  0.00    +0.021 C 
ATOM     48  C   UNL     1       0.854  -8.970  26.574  0.00  0.00    +0.032 C 
BRANCH  44  49
ATOM     49  C   UNL     1       3.875  -5.486  25.684  0.00  0.00    +0.165 C 
BRANCH  49  50
ATOM     50  N   UNL     1       5.334  -5.693  25.838  0.00  0.00    -0.270 N 
ATOM     51  H   UNL     1       5.824  -5.997  25.000  0.00  0.00    +0.153 HD
ATOM     52  C   UNL     1       6.113  -5.599  26.943  0.00  0.00    +0.401 C 
ATOM     53  O   UNL     1       5.743  -5.298  28.064  0.00  0.00    -0.226 OA
BRANCH  52  54
ATOM     54  O   UNL     1       7.383  -5.930  26.595  0.00  0.00    -0.454 OA
ATOM     55  C   UNL     1       8.065  -5.120  25.625  0.00  0.00    +0.282 C 
ENDBRANCH  52  54
ENDBRANCH  49  50
BRANCH  49  56
ATOM     56  C   UNL     1       3.540  -4.231  24.830  0.00  0.00    +0.012 C 
ATOM     57  C   UNL     1       4.518  -3.056  25.009  0.00  0.00    +0.009 C 
ATOM     58  C   UNL     1       2.112  -3.746  25.066  0.00  0.00    +0.009 C 
ENDBRANCH  49  56
ENDBRANCH  44  49
ENDBRANCH  39  42
ENDBRANCH  33  36
ENDBRANCH   4  30
TORSDOF 13
ENDMDL
MODEL 7
REMARK VINA RESULT:      -3.0      3.291     12.074
REMARK  Name = 
REMARK  19 active torsions:
REMARK  status: ('A' for Active; 'I' for Inactive)
REMARK    1  A    between atoms: C_1  and  C_2
REMARK    2  A    between atoms: C_2  and  C_3
REMARK    3  A    between atoms: C_2  and  C_4
REMARK    4  A    between atoms: C_4  and  C_6
REMARK    5  A    between atoms: C_4  and  N_54
REMARK    6  A    between atoms: C_12  and  C_14
REMARK    7  A    between atoms: C_17  and  C_19
REMARK    8  A    between atoms: C_22  and  C_25
REMARK    9  A    between atoms: C_28  and  C_31
REMARK   10  A    between atoms: C_34  and  C_36
REMARK   11  A    between atoms: C_42  and  C_44
REMARK   12  A    between atoms: C_44  and  C_46
REMARK   13  A    between atoms: C_44  and  N_49
REMARK   14  A    between atoms: C_46  and  C_47
REMARK   15  A    between atoms: C_46  and  C_48
REMARK   16  A    between atoms: C_50  and  O_52
REMARK   17  A    between atoms: O_52  and  C_53
REMARK   18  A    between atoms: C_55  and  O_57
REMARK   19  A    between atoms: O_57  and  C_58
REMARK                            x       y       z     vdW  Elec       q    Type
REMARK                         _______ _______ _______ _____ _____    ______ ____
ROOT
ATOM      1  C   UNL     1       7.944  -3.095  25.005  0.00  0.00    -0.000 A 
ATOM      2  C   UNL     1       7.290  -2.836  23.796  0.00  0.00    +0.010 A 
ATOM      3  C   UNL     1       7.400  -1.586  23.159  0.00  0.00    +0.009 A 
ATOM      4  C   UNL     1       8.152  -0.539  23.713  0.00  0.00    -0.018 A 
ATOM      5  C   UNL     1       8.844  -0.834  24.908  0.00  0.00    +0.009 A 
ATOM      6  C   UNL     1       8.742  -2.083  25.543  0.00  0.00    +0.010 A 
ENDROOT
BRANCH   1  10
ATOM      7  C   UNL     1       6.725  -5.932  26.935  0.00  0.00    +0.128 A 
ATOM      8  N   UNL     1       6.527  -4.788  26.209  0.00  0.00    -0.340 N 
ATOM      9  H   UNL     1       5.629  -4.348  26.066  0.00  0.00    +0.167 HD
ATOM     10  C   UNL     1       7.743  -4.356  25.722  0.00  0.00    +0.066 A 
ATOM     11  C   UNL     1       8.616  -5.360  26.097  0.00  0.00    +0.139 A 
ATOM     12  N   UNL     1       7.991  -6.304  26.869  0.00  0.00    -0.238 NA
BRANCH   7  15
ATOM     13  C   UNL     1       3.596  -5.580  26.783  0.00  0.00    +0.237 C 
ATOM     14  N   UNL     1       4.353  -5.975  27.878  0.00  0.00    -0.290 N 
ATOM     15  C   UNL     1       5.681  -6.595  27.767  0.00  0.00    +0.142 C 
ATOM     16  C   UNL     1       6.155  -6.734  29.234  0.00  0.00    +0.032 C 
ATOM     17  C   UNL     1       5.004  -6.193  30.082  0.00  0.00    +0.021 C 
ATOM     18  C   UNL     1       3.806  -6.340  29.174  0.00  0.00    +0.108 C 
ATOM     19  O   UNL     1       4.129  -5.221  25.734  0.00  0.00    -0.274 OA
BRANCH  13  20
ATOM     20  C   UNL     1       2.051  -5.517  26.970  0.00  0.00    +0.165 C 
BRANCH  20  21
ATOM     21  N   UNL     1       1.547  -6.785  27.491  0.00  0.00    -0.270 N 
ATOM     22  H   UNL     1       1.087  -6.814  28.390  0.00  0.00    +0.153 HD
ATOM     23  C   UNL     1       1.491  -7.915  26.736  0.00  0.00    +0.401 C 
ATOM     24  O   UNL     1       1.938  -8.027  25.604  0.00  0.00    -0.226 OA
BRANCH  23  25
ATOM     25  O   UNL     1       0.898  -8.905  27.447  0.00  0.00    -0.454 OA
ATOM     26  C   UNL     1       0.512  -8.524  28.768  0.00  0.00    +0.282 C 
ENDBRANCH  23  25
ENDBRANCH  20  21
BRANCH  20  28
ATOM     27  C   UNL     1       1.005  -3.139  27.027  0.00  0.00    +0.009 C 
ATOM     28  C   UNL     1       1.535  -4.332  27.828  0.00  0.00    +0.012 C 
ATOM     29  C   UNL     1       0.486  -4.780  28.850  0.00  0.00    +0.009 C 
ENDBRANCH  20  28
ENDBRANCH  13  20
ENDBRANCH   7  15
ENDBRANCH   1  10
BRANCH   4  30
ATOM     30  C   UNL     1       8.130   0.845  23.159  0.00  0.00    -0.018 A 
ATOM     31  C   UNL     1       7.450   1.159  21.964  0.00  0.00    +0.009 A 
ATOM     32  C   UNL     1       7.161   2.489  21.597  0.00  0.00    +0.010 A 
ATOM     33  C   UNL     1       7.545   3.549  22.417  0.00  0.00    -0.000 A 
ATOM     34  C   UNL     1       8.387   3.254  23.499  0.00  0.00    +0.010 A 
ATOM     35  C   UNL     1       8.673   1.929  23.863  0.00  0.00    +0.009 A 
BRANCH  33  36
ATOM     36  C   UNL     1       7.012   4.906  22.251  0.00  0.00    +0.066 A 
ATOM     37  N   UNL     1       5.659   5.162  22.309  0.00  0.00    -0.340 N 
ATOM     38  H   UNL     1       4.959   4.442  22.398  0.00  0.00    +0.167 HD
ATOM     39  C   UNL     1       5.417   6.512  22.179  0.00  0.00    +0.128 A 
ATOM     40  N   UNL     1       6.547   7.106  21.848  0.00  0.00    -0.238 NA
ATOM     41  C   UNL     1       7.530   6.134  21.891  0.00  0.00    +0.139 A 
BRANCH  39  42
ATOM     42  C   UNL     1       4.031   7.108  22.227  0.00  0.00    +0.142 C 
ATOM     43  N   UNL     1       3.096   6.593  23.259  0.00  0.00    -0.290 N 
ATOM     44  C   UNL     1       3.161   6.576  24.644  0.00  0.00    +0.237 C 
ATOM     45  O   UNL     1       2.104   6.464  25.295  0.00  0.00    -0.274 OA
ATOM     46  C   UNL     1       1.739   6.522  22.707  0.00  0.00    +0.108 C 
ATOM     47  C   UNL     1       1.806   7.030  21.280  0.00  0.00    +0.021 C 
ATOM     48  C   UNL     1       3.256   6.811  20.918  0.00  0.00    +0.032 C 
BRANCH  44  49
ATOM     49  C   UNL     1       4.489   6.535  25.442  0.00  0.00    +0.165 C 
BRANCH  49  50
ATOM     50  N   UNL     1       4.121   6.881  26.834  0.00  0.00    -0.270 N 
ATOM     51  H   UNL     1       3.366   7.557  26.933  0.00  0.00    +0.153 HD
ATOM     52  C   UNL     1       4.676   6.482  28.004  0.00  0.00    +0.401 C 
ATOM     53  O   UNL     1       5.615   5.717  28.135  0.00  0.00    -0.226 OA
BRANCH  52  54
ATOM     54  O   UNL     1       4.023   7.107  29.018  0.00  0.00    -0.454 OA
ATOM     55  C   UNL     1       4.087   6.535  30.334  0.00  0.00    +0.282 C 
ENDBRANCH  52  54
ENDBRANCH  49  50
BRANCH  49  56
ATOM     56  C   UNL     1       5.090   5.106  25.323  0.00  0.00    +0.012 C 
ATOM     57  C   UNL     1       4.271   4.009  26.025  0.00  0.00    +0.009 C 
ATOM     58  C   UNL     1       6.535   5.054  25.810  0.00  0.00    +0.009 C 
ENDBRANCH  49  56
ENDBRANCH  44  49
ENDBRANCH  39  42
ENDBRANCH  33  36
ENDBRANCH   4  30
TORSDOF 13
ENDMDL
