MODEL 1
REMARK VINA RESULT:      -6.7      0.000      0.000
REMARK  Name = 
REMARK  13 active torsions:
REMARK  status: ('A' for Active; 'I' for Inactive)
REMARK    1  A    between atoms: C_1  and  C_2
REMARK    2  A    between atoms: C_2  and  C_3
REMARK    3  A    between atoms: C_2  and  C_4
REMARK    4  A    between atoms: C_4  and  C_6
REMARK    5  A    between atoms: C_4  and  N_27
REMARK    6  A    between atoms: C_6  and  O_8
REMARK    7  A    between atoms: O_8  and  C_9
REMARK    8  A    between atoms: C_9  and  C_10
REMARK    9  A    between atoms: C_10  and  C_12
REMARK   10  A    between atoms: C_10  and  O_14
REMARK   11  A    between atoms: C_12  and  O_13
REMARK   12  A    between atoms: O_14  and  C_15
REMARK   13  A    between atoms: C_15  and  N_16
REMARK                            x       y       z     vdW  Elec       q    Type
REMARK                         _______ _______ _______ _____ _____    ______ ____
ROOT
ATOM      1  O   UNL     1       9.709  -3.340  24.035  0.00  0.00    -0.350 OA
ENDROOT
BRANCH   1   2
ATOM      2  C   UNL     1       9.927  -2.056  23.411  0.00  0.00    +0.183 C 
BRANCH   2   3
ATOM      3  C   UNL     1       9.562  -0.964  24.434  0.00  0.00    +0.266 C 
BRANCH   3   4
ATOM      4  O   UNL     1       9.434   0.330  23.817  0.00  0.00    -0.461 OA
BRANCH   4   5
ATOM      5  C   UNL     1      10.521   1.152  23.927  0.00  0.00    +0.324 C 
ATOM      6  O   UNL     1      11.489   0.923  24.641  0.00  0.00    -0.249 OA
BRANCH   5   7
ATOM      7  C   UNL     1      10.377   2.409  23.042  0.00  0.00    +0.163 C 
BRANCH   7   9
ATOM      8  C   UNL     1      10.370   4.894  23.738  0.00  0.00    +0.009 C 
ATOM      9  C   UNL     1       9.615   3.562  23.738  0.00  0.00    +0.010 C 
ATOM     10  C   UNL     1       8.213   3.758  23.152  0.00  0.00    +0.009 C 
ENDBRANCH   7   9
BRANCH   7  11
ATOM     11  N   UNL     1       9.770   2.049  21.736  0.00  0.00    -0.318 NA
ATOM     12  H   UNL     1       9.422   1.091  21.794  0.00  0.00    +0.119 HD
ATOM     13  H   UNL     1       8.953   2.638  21.573  0.00  0.00    +0.119 HD
ENDBRANCH   7  11
ENDBRANCH   5   7
ENDBRANCH   4   5
ENDBRANCH   3   4
ENDBRANCH   2   3
BRANCH   2  14
ATOM     14  C   UNL     1       9.071  -1.887  22.139  0.00  0.00    +0.190 C 
BRANCH  14  15
ATOM     15  O   UNL     1       9.716  -1.042  21.185  0.00  0.00    -0.392 OA
ATOM     16  H   UNL     1       9.469  -0.123  21.387  0.00  0.00    +0.210 HD
ENDBRANCH  14  15
ENDBRANCH   2  14
ENDBRANCH   1   2
BRANCH   1  17
ATOM     17  C   UNL     1       8.372  -3.818  23.847  0.00  0.00    +0.288 C 
BRANCH  17  18
ATOM     18  N   UNL     1       7.902  -4.496  25.041  0.00  0.00    -0.291 N 
ATOM     19  C   UNL     1       6.777  -5.269  25.110  0.00  0.00    +0.171 A 
ATOM     20  N   UNL     1       5.973  -5.625  24.076  0.00  0.00    -0.196 NA
ATOM     21  C   UNL     1       4.943  -6.339  24.445  0.00  0.00    +0.195 A 
ATOM     22  N   UNL     1       4.050  -6.768  23.519  0.00  0.00    -0.329 N 
ATOM     23  H   UNL     1       3.624  -7.670  23.678  0.00  0.00    +0.145 HD
ATOM     24  H   UNL     1       4.397  -6.658  22.571  0.00  0.00    +0.145 HD
ATOM     25  N   UNL     1       4.694  -6.708  25.751  0.00  0.00    -0.293 N 
ATOM     26  H   UNL     1       3.860  -7.218  25.983  0.00  0.00    +0.172 HD
ATOM     27  C   UNL     1       5.481  -6.348  26.838  0.00  0.00    +0.280 A 
ATOM     28  O   UNL     1       5.189  -6.678  27.982  0.00  0.00    -0.265 OA
ATOM     29  C   UNL     1       6.628  -5.559  26.447  0.00  0.00    +0.172 A 
ATOM     30  N   UNL     1       7.624  -4.989  27.200  0.00  0.00    -0.229 NA
ATOM     31  C   UNL     1       8.370  -4.347  26.320  0.00  0.00    +0.203 A 
ENDBRANCH  17  18
ENDBRANCH   1  17
TORSDOF 11
ENDMDL
MODEL 2
REMARK VINA RESULT:      -6.6      2.224      3.501
REMARK  Name = 
REMARK  13 active torsions:
REMARK  status: ('A' for Active; 'I' for Inactive)
REMARK    1  A    between atoms: C_1  and  C_2
REMARK    2  A    between atoms: C_2  and  C_3
REMARK    3  A    between atoms: C_2  and  C_4
REMARK    4  A    between atoms: C_4  and  C_6
REMARK    5  A    between atoms: C_4  and  N_27
REMARK    6  A    between atoms: C_6  and  O_8
REMARK    7  A    between atoms: O_8  and  C_9
REMARK    8  A    between atoms: C_9  and  C_10
REMARK    9  A    between atoms: C_10  and  C_12
REMARK   10  A    between atoms: C_10  and  O_14
REMARK   11  A    between atoms: C_12  and  O_13
REMARK   12  A    between atoms: O_14  and  C_15
REMARK   13  A    between atoms: C_15  and  N_16
REMARK                            x       y       z     vdW  Elec       q    Type
REMARK                         _______ _______ _______ _____ _____    ______ ____
ROOT
ATOM      1  O   UNL     1      10.398  -0.882  23.422  0.00  0.00    -0.350 OA
ENDROOT
BRANCH   1   2
ATOM      2  C   UNL     1      10.395   0.551  23.251  0.00  0.00    +0.183 C 
BRANCH   2   3
ATOM      3  C   UNL     1       9.520   1.160  24.362  0.00  0.00    +0.266 C 
BRANCH   3   4
ATOM      4  O   UNL     1       9.685   2.587  24.457  0.00  0.00    -0.461 OA
BRANCH   4   5
ATOM      5  C   UNL     1       8.548   3.301  24.713  0.00  0.00    +0.324 C 
ATOM      6  O   UNL     1       7.660   2.937  25.475  0.00  0.00    -0.249 OA
BRANCH   5   7
ATOM      7  C   UNL     1       8.516   4.626  23.920  0.00  0.00    +0.163 C 
BRANCH   7   9
ATOM      8  C   UNL     1       7.337   5.961  22.052  0.00  0.00    +0.009 C 
ATOM      9  C   UNL     1       7.286   4.751  22.989  0.00  0.00    +0.010 C 
ATOM     10  C   UNL     1       7.049   3.474  22.178  0.00  0.00    +0.009 C 
ENDBRANCH   7   9
BRANCH   7  11
ATOM     11  N   UNL     1       9.792   4.813  23.184  0.00  0.00    -0.318 NA
ATOM     12  H   UNL     1       9.578   4.936  22.194  0.00  0.00    +0.119 HD
ATOM     13  H   UNL     1      10.230   5.682  23.490  0.00  0.00    +0.119 HD
ENDBRANCH   7  11
ENDBRANCH   5   7
ENDBRANCH   4   5
ENDBRANCH   3   4
ENDBRANCH   2   3
BRANCH   2  14
ATOM     14  C   UNL     1       9.843   0.960  21.870  0.00  0.00    +0.190 C 
BRANCH  14  15
ATOM     15  O   UNL     1      10.212   2.299  21.537  0.00  0.00    -0.392 OA
ATOM     16  H   UNL     1      11.000   2.530  22.059  0.00  0.00    +0.210 HD
ENDBRANCH  14  15
ENDBRANCH   2  14
ENDBRANCH   1   2
BRANCH   1  17
ATOM     17  C   UNL     1       9.604  -1.551  22.435  0.00  0.00    +0.288 C 
BRANCH  17  18
ATOM     18  N   UNL     1       8.427  -2.141  23.044  0.00  0.00    -0.291 N 
ATOM     19  C   UNL     1       8.437  -3.223  23.880  0.00  0.00    +0.171 A 
ATOM     20  N   UNL     1       9.532  -3.860  24.367  0.00  0.00    -0.196 NA
ATOM     21  C   UNL     1       9.239  -4.891  25.113  0.00  0.00    +0.195 A 
ATOM     22  N   UNL     1      10.232  -5.628  25.671  0.00  0.00    -0.329 N 
ATOM     23  H   UNL     1      10.051  -6.024  26.583  0.00  0.00    +0.145 HD
ATOM     24  H   UNL     1      11.133  -5.162  25.615  0.00  0.00    +0.145 HD
ATOM     25  N   UNL     1       7.948  -5.295  25.392  0.00  0.00    -0.293 N 
ATOM     26  H   UNL     1       7.783  -6.124  25.934  0.00  0.00    +0.172 HD
ATOM     27  C   UNL     1       6.805  -4.682  24.897  0.00  0.00    +0.280 A 
ATOM     28  O   UNL     1       5.683  -5.108  25.153  0.00  0.00    -0.265 OA
ATOM     29  C   UNL     1       7.111  -3.535  24.071  0.00  0.00    +0.172 A 
ATOM     30  N   UNL     1       6.288  -2.681  23.380  0.00  0.00    -0.229 NA
ATOM     31  C   UNL     1       7.115  -1.858  22.764  0.00  0.00    +0.203 A 
ENDBRANCH  17  18
ENDBRANCH   1  17
TORSDOF 11
ENDMDL
MODEL 3
REMARK VINA RESULT:      -6.6      2.299      3.499
REMARK  Name = 
REMARK  13 active torsions:
REMARK  status: ('A' for Active; 'I' for Inactive)
REMARK    1  A    between atoms: C_1  and  C_2
REMARK    2  A    between atoms: C_2  and  C_3
REMARK    3  A    between atoms: C_2  and  C_4
REMARK    4  A    between atoms: C_4  and  C_6
REMARK    5  A    between atoms: C_4  and  N_27
REMARK    6  A    between atoms: C_6  and  O_8
REMARK    7  A    between atoms: O_8  and  C_9
REMARK    8  A    between atoms: C_9  and  C_10
REMARK    9  A    between atoms: C_10  and  C_12
REMARK   10  A    between atoms: C_10  and  O_14
REMARK   11  A    between atoms: C_12  and  O_13
REMARK   12  A    between atoms: O_14  and  C_15
REMARK   13  A    between atoms: C_15  and  N_16
REMARK                            x       y       z     vdW  Elec       q    Type
REMARK                         _______ _______ _______ _____ _____    ______ ____
ROOT
ATOM      1  O   UNL     1       8.229  -4.619  27.204  0.00  0.00    -0.350 OA
ENDROOT
BRANCH   1   2
ATOM      2  C   UNL     1       9.222  -4.352  26.191  0.00  0.00    +0.183 C 
BRANCH   2   3
ATOM      3  C   UNL     1       8.729  -3.163  25.346  0.00  0.00    +0.266 C 
BRANCH   3   4
ATOM      4  O   UNL     1       9.702  -2.759  24.364  0.00  0.00    -0.461 OA
BRANCH   4   5
ATOM      5  C   UNL     1       9.196  -2.269  23.192  0.00  0.00    +0.324 C 
ATOM      6  O   UNL     1       8.226  -2.737  22.609  0.00  0.00    -0.249 OA
BRANCH   5   7
ATOM      7  C   UNL     1      10.002  -1.051  22.690  0.00  0.00    +0.163 C 
BRANCH   7   9
ATOM      8  C   UNL     1       8.274   0.353  23.994  0.00  0.00    +0.009 C 
ATOM      9  C   UNL     1       9.715   0.243  23.488  0.00  0.00    +0.010 C 
ATOM     10  C   UNL     1      10.692   0.426  24.653  0.00  0.00    +0.009 C 
ENDBRANCH   7   9
BRANCH   7  11
ATOM     11  N   UNL     1       9.792  -0.864  21.232  0.00  0.00    -0.318 NA
ATOM     12  H   UNL     1       9.394  -1.723  20.850  0.00  0.00    +0.119 HD
ATOM     13  H   UNL     1       9.091  -0.137  21.085  0.00  0.00    +0.119 HD
ENDBRANCH   7  11
ENDBRANCH   5   7
ENDBRANCH   4   5
ENDBRANCH   3   4
ENDBRANCH   2   3
BRANCH   2  14
ATOM     14  C   UNL     1       9.456  -5.576  25.283  0.00  0.00    +0.190 C 
BRANCH  14  15
ATOM     15  O   UNL     1       8.795  -5.427  24.025  0.00  0.00    -0.392 OA
ATOM     16  H   UNL     1       7.843  -5.329  24.199  0.00  0.00    +0.210 HD
ENDBRANCH  14  15
ENDBRANCH   2  14
ENDBRANCH   1   2
BRANCH   1  17
ATOM     17  C   UNL     1       6.923  -4.173  26.818  0.00  0.00    +0.288 C 
BRANCH  17  18
ATOM     18  N   UNL     1       6.035  -5.305  26.626  0.00  0.00    -0.291 N 
ATOM     19  C   UNL     1       5.587  -5.751  25.414  0.00  0.00    +0.171 A 
ATOM     20  N   UNL     1       5.967  -5.298  24.192  0.00  0.00    -0.196 NA
ATOM     21  C   UNL     1       5.342  -5.884  23.207  0.00  0.00    +0.195 A 
ATOM     22  N   UNL     1       5.618  -5.534  21.926  0.00  0.00    -0.329 N 
ATOM     23  H   UNL     1       5.573  -6.267  21.232  0.00  0.00    +0.145 HD
ATOM     24  H   UNL     1       6.462  -4.974  21.854  0.00  0.00    +0.145 HD
ATOM     25  N   UNL     1       4.395  -6.874  23.380  0.00  0.00    -0.293 N 
ATOM     26  H   UNL     1       3.913  -7.257  22.587  0.00  0.00    +0.172 HD
ATOM     27  C   UNL     1       3.967  -7.351  24.612  0.00  0.00    +0.280 A 
ATOM     28  O   UNL     1       3.096  -8.209  24.703  0.00  0.00    -0.265 OA
ATOM     29  C   UNL     1       4.652  -6.714  25.715  0.00  0.00    +0.172 A 
ATOM     30  N   UNL     1       4.510  -6.872  27.071  0.00  0.00    -0.229 NA
ATOM     31  C   UNL     1       5.353  -5.999  27.591  0.00  0.00    +0.203 A 
ENDBRANCH  17  18
ENDBRANCH   1  17
TORSDOF 11
ENDMDL
MODEL 4
REMARK VINA RESULT:      -6.5      1.128      1.881
REMARK  Name = 
REMARK  13 active torsions:
REMARK  status: ('A' for Active; 'I' for Inactive)
REMARK    1  A    between atoms: C_1  and  C_2
REMARK    2  A    between atoms: C_2  and  C_3
REMARK    3  A    between atoms: C_2  and  C_4
REMARK    4  A    between atoms: C_4  and  C_6
REMARK    5  A    between atoms: C_4  and  N_27
REMARK    6  A    between atoms: C_6  and  O_8
REMARK    7  A    between atoms: O_8  and  C_9
REMARK    8  A    between atoms: C_9  and  C_10
REMARK    9  A    between atoms: C_10  and  C_12
REMARK   10  A    between atoms: C_10  and  O_14
REMARK   11  A    between atoms: C_12  and  O_13
REMARK   12  A    between atoms: O_14  and  C_15
REMARK   13  A    between atoms: C_15  and  N_16
REMARK                            x       y       z     vdW  Elec       q    Type
REMARK                         _______ _______ _______ _____ _____    ______ ____
ROOT
ATOM      1  O   UNL     1       7.522  -2.036  24.343  0.00  0.00    -0.350 OA
ENDROOT
BRANCH   1   2
ATOM      2  C   UNL     1       8.380  -0.879  24.438  0.00  0.00    +0.183 C 
BRANCH   2   3
ATOM      3  C   UNL     1       9.781  -1.286  23.945  0.00  0.00    +0.266 C 
BRANCH   3   4
ATOM      4  O   UNL     1      10.497  -0.173  23.379  0.00  0.00    -0.461 OA
BRANCH   4   5
ATOM      5  C   UNL     1      10.028   0.288  22.181  0.00  0.00    +0.324 C 
ATOM      6  O   UNL     1       9.641  -0.430  21.267  0.00  0.00    -0.249 OA
BRANCH   5   7
ATOM      7  C   UNL     1      10.048   1.832  22.116  0.00  0.00    +0.163 C 
BRANCH   7   9
ATOM      8  C   UNL     1      11.377   3.654  23.370  0.00  0.00    +0.009 C 
ATOM      9  C   UNL     1      10.381   2.495  23.474  0.00  0.00    +0.010 C 
ATOM     10  C   UNL     1       9.119   2.957  24.210  0.00  0.00    +0.009 C 
ENDBRANCH   7   9
BRANCH   7  11
ATOM     11  N   UNL     1       8.773   2.337  21.547  0.00  0.00    -0.318 NA
ATOM     12  H   UNL     1       8.475   1.700  20.808  0.00  0.00    +0.119 HD
ATOM     13  H   UNL     1       8.048   2.300  22.264  0.00  0.00    +0.119 HD
ENDBRANCH   7  11
ENDBRANCH   5   7
ENDBRANCH   4   5
ENDBRANCH   3   4
ENDBRANCH   2   3
BRANCH   2  14
ATOM     14  C   UNL     1       8.468  -0.351  25.884  0.00  0.00    +0.190 C 
BRANCH  14  15
ATOM     15  O   UNL     1       9.791   0.085  26.200  0.00  0.00    -0.392 OA
ATOM     16  H   UNL     1      10.091  -0.416  26.979  0.00  0.00    +0.210 HD
ENDBRANCH  14  15
ENDBRANCH   2  14
ENDBRANCH   1   2
BRANCH   1  17
ATOM     17  C   UNL     1       8.264  -3.260  24.267  0.00  0.00    +0.288 C 
BRANCH  17  18
ATOM     18  N   UNL     1       7.823  -4.186  25.294  0.00  0.00    -0.291 N 
ATOM     19  C   UNL     1       6.769  -5.048  25.169  0.00  0.00    +0.171 A 
ATOM     20  N   UNL     1       6.029  -5.268  24.053  0.00  0.00    -0.196 NA
ATOM     21  C   UNL     1       5.057  -6.120  24.239  0.00  0.00    +0.195 A 
ATOM     22  N   UNL     1       4.231  -6.440  23.211  0.00  0.00    -0.329 N 
ATOM     23  H   UNL     1       3.882  -7.388  23.182  0.00  0.00    +0.145 HD
ATOM     24  H   UNL     1       4.593  -6.126  22.316  0.00  0.00    +0.145 HD
ATOM     25  N   UNL     1       4.804  -6.747  25.443  0.00  0.00    -0.293 N 
ATOM     26  H   UNL     1       4.013  -7.358  25.539  0.00  0.00    +0.172 HD
ATOM     27  C   UNL     1       5.526  -6.534  26.610  0.00  0.00    +0.280 A 
ATOM     28  O   UNL     1       5.232  -7.095  27.660  0.00  0.00    -0.265 OA
ATOM     29  C   UNL     1       6.609  -5.595  26.422  0.00  0.00    +0.172 A 
ATOM     30  N   UNL     1       7.529  -5.096  27.310  0.00  0.00    -0.229 NA
ATOM     31  C   UNL     1       8.240  -4.241  26.598  0.00  0.00    +0.203 A 
ENDBRANCH  17  18
ENDBRANCH   1  17
TORSDOF 11
ENDMDL
MODEL 5
REMARK VINA RESULT:      -6.4      1.507      1.840
REMARK  Name = 
REMARK  13 active torsions:
REMARK  status: ('A' for Active; 'I' for Inactive)
REMARK    1  A    between atoms: C_1  and  C_2
REMARK    2  A    between atoms: C_2  and  C_3
REMARK    3  A    between atoms: C_2  and  C_4
REMARK    4  A    between atoms: C_4  and  C_6
REMARK    5  A    between atoms: C_4  and  N_27
REMARK    6  A    between atoms: C_6  and  O_8
REMARK    7  A    between atoms: O_8  and  C_9
REMARK    8  A    between atoms: C_9  and  C_10
REMARK    9  A    between atoms: C_10  and  C_12
REMARK   10  A    between atoms: C_10  and  O_14
REMARK   11  A    between atoms: C_12  and  O_13
REMARK   12  A    between atoms: O_14  and  C_15
REMARK   13  A    between atoms: C_15  and  N_16
REMARK                            x       y       z     vdW  Elec       q    Type
REMARK                         _______ _______ _______ _____ _____    ______ ____
ROOT
ATOM      1  O   UNL     1       8.793  -2.831  24.709  0.00  0.00    -0.350 OA
ENDROOT
BRANCH   1   2
ATOM      2  C   UNL     1       9.694  -2.163  23.801  0.00  0.00    +0.183 C 
BRANCH   2   3
ATOM      3  C   UNL     1      10.014  -0.775  24.387  0.00  0.00    +0.266 C 
BRANCH   3   4
ATOM      4  O   UNL     1       9.283   0.272  23.724  0.00  0.00    -0.461 OA
BRANCH   4   5
ATOM      5  C   UNL     1       9.977   1.427  23.491  0.00  0.00    +0.324 C 
ATOM      6  O   UNL     1      11.011   1.739  24.069  0.00  0.00    -0.249 OA
BRANCH   5   7
ATOM      7  C   UNL     1       9.294   2.295  22.412  0.00  0.00    +0.163 C 
BRANCH   7   9
ATOM      8  C   UNL     1       8.404   4.499  23.415  0.00  0.00    +0.009 C 
ATOM      9  C   UNL     1       8.072   3.081  22.943  0.00  0.00    +0.010 C 
ATOM     10  C   UNL     1       6.931   3.126  21.920  0.00  0.00    +0.009 C 
ENDBRANCH   7   9
BRANCH   7  11
ATOM     11  N   UNL     1       8.951   1.465  21.229  0.00  0.00    -0.318 NA
ATOM     12  H   UNL     1       8.517   2.067  20.527  0.00  0.00    +0.119 HD
ATOM     13  H   UNL     1       9.810   1.111  20.808  0.00  0.00    +0.119 HD
ENDBRANCH   7  11
ENDBRANCH   5   7
ENDBRANCH   4   5
ENDBRANCH   3   4
ENDBRANCH   2   3
BRANCH   2  14
ATOM     14  C   UNL     1       9.077  -2.006  22.397  0.00  0.00    +0.190 C 
BRANCH  14  15
ATOM     15  O   UNL     1      10.035  -1.517  21.457  0.00  0.00    -0.392 OA
ATOM     16  H   UNL     1      10.728  -2.193  21.360  0.00  0.00    +0.210 HD
ENDBRANCH  14  15
ENDBRANCH   2  14
ENDBRANCH   1   2
BRANCH   1  17
ATOM     17  C   UNL     1       9.134  -4.210  24.898  0.00  0.00    +0.288 C 
BRANCH  17  18
ATOM     18  N   UNL     1       7.940  -5.000  25.140  0.00  0.00    -0.291 N 
ATOM     19  C   UNL     1       7.062  -5.407  24.174  0.00  0.00    +0.171 A 
ATOM     20  N   UNL     1       7.200  -5.245  22.833  0.00  0.00    -0.196 NA
ATOM     21  C   UNL     1       6.183  -5.700  22.152  0.00  0.00    +0.195 A 
ATOM     22  N   UNL     1       6.179  -5.607  20.798  0.00  0.00    -0.329 N 
ATOM     23  H   UNL     1       5.733  -6.358  20.290  0.00  0.00    +0.145 HD
ATOM     24  H   UNL     1       7.094  -5.369  20.427  0.00  0.00    +0.145 HD
ATOM     25  N   UNL     1       5.078  -6.295  22.727  0.00  0.00    -0.293 N 
ATOM     26  H   UNL     1       4.304  -6.584  22.156  0.00  0.00    +0.172 HD
ATOM     27  C   UNL     1       4.892  -6.461  24.093  0.00  0.00    +0.280 A 
ATOM     28  O   UNL     1       3.872  -6.968  24.547  0.00  0.00    -0.265 OA
ATOM     29  C   UNL     1       6.011  -5.966  24.863  0.00  0.00    +0.172 A 
ATOM     30  N   UNL     1       6.214  -5.914  26.220  0.00  0.00    -0.229 NA
ATOM     31  C   UNL     1       7.384  -5.316  26.351  0.00  0.00    +0.203 A 
ENDBRANCH  17  18
ENDBRANCH   1  17
TORSDOF 11
ENDMDL
MODEL 6
REMARK VINA RESULT:      -6.3      1.790      3.261
REMARK  Name = 
REMARK  13 active torsions:
REMARK  status: ('A' for Active; 'I' for Inactive)
REMARK    1  A    between atoms: C_1  and  C_2
REMARK    2  A    between atoms: C_2  and  C_3
REMARK    3  A    between atoms: C_2  and  C_4
REMARK    4  A    between atoms: C_4  and  C_6
REMARK    5  A    between atoms: C_4  and  N_27
REMARK    6  A    between atoms: C_6  and  O_8
REMARK    7  A    between atoms: O_8  and  C_9
REMARK    8  A    between atoms: C_9  and  C_10
REMARK    9  A    between atoms: C_10  and  C_12
REMARK   10  A    between atoms: C_10  and  O_14
REMARK   11  A    between atoms: C_12  and  O_13
REMARK   12  A    between atoms: O_14  and  C_15
REMARK   13  A    between atoms: C_15  and  N_16
REMARK                            x       y       z     vdW  Elec       q    Type
REMARK                         _______ _______ _______ _____ _____    ______ ____
ROOT
ATOM      1  O   UNL     1       5.523  -3.268  22.426  0.00  0.00    -0.350 OA
ENDROOT
BRANCH   1   2
ATOM      2  C   UNL     1       6.324  -2.090  22.653  0.00  0.00    +0.183 C 
BRANCH   2   3
ATOM      3  C   UNL     1       7.799  -2.467  22.419  0.00  0.00    +0.266 C 
BRANCH   3   4
ATOM      4  O   UNL     1       8.505  -1.450  21.685  0.00  0.00    -0.461 OA
BRANCH   4   5
ATOM      5  C   UNL     1       9.750  -1.135  22.153  0.00  0.00    +0.324 C 
ATOM      6  O   UNL     1      10.542  -1.949  22.612  0.00  0.00    -0.249 OA
BRANCH   5   7
ATOM      7  C   UNL     1      10.036   0.379  22.038  0.00  0.00    +0.163 C 
BRANCH   7   9
ATOM      8  C   UNL     1      10.561   2.563  23.307  0.00  0.00    +0.009 C 
ATOM      9  C   UNL     1      10.287   1.060  23.404  0.00  0.00    +0.010 C 
ATOM     10  C   UNL     1       9.144   0.801  24.391  0.00  0.00    +0.009 C 
ENDBRANCH   7   9
BRANCH   7  11
ATOM     11  N   UNL     1       8.953   1.048  21.272  0.00  0.00    -0.318 NA
ATOM     12  H   UNL     1       9.377   1.737  20.650  0.00  0.00    +0.119 HD
ATOM     13  H   UNL     1       8.498   0.363  20.669  0.00  0.00    +0.119 HD
ENDBRANCH   7  11
ENDBRANCH   5   7
ENDBRANCH   4   5
ENDBRANCH   3   4
ENDBRANCH   2   3
BRANCH   2  14
ATOM     14  C   UNL     1       6.146  -1.544  24.084  0.00  0.00    +0.190 C 
BRANCH  14  15
ATOM     15  O   UNL     1       7.230  -1.932  24.929  0.00  0.00    -0.392 OA
ATOM     16  H   UNL     1       6.890  -1.997  25.839  0.00  0.00    +0.210 HD
ENDBRANCH  14  15
ENDBRANCH   2  14
ENDBRANCH   1   2
BRANCH   1  17
ATOM     17  C   UNL     1       6.226  -4.476  22.743  0.00  0.00    +0.288 C 
BRANCH  17  18
ATOM     18  N   UNL     1       5.728  -5.043  23.982  0.00  0.00    -0.291 N 
ATOM     19  C   UNL     1       6.478  -5.242  25.108  0.00  0.00    +0.171 A 
ATOM     20  N   UNL     1       7.763  -4.854  25.305  0.00  0.00    -0.196 NA
ATOM     21  C   UNL     1       8.238  -5.215  26.467  0.00  0.00    +0.195 A 
ATOM     22  N   UNL     1       9.513  -4.897  26.805  0.00  0.00    -0.329 N 
ATOM     23  H   UNL     1       9.690  -4.692  27.779  0.00  0.00    +0.145 HD
ATOM     24  H   UNL     1       9.916  -4.208  26.178  0.00  0.00    +0.145 HD
ATOM     25  N   UNL     1       7.511  -5.911  27.411  0.00  0.00    -0.293 N 
ATOM     26  H   UNL     1       7.944  -6.203  28.269  0.00  0.00    +0.172 HD
ATOM     27  C   UNL     1       6.202  -6.342  27.239  0.00  0.00    +0.280 A 
ATOM     28  O   UNL     1       5.618  -6.988  28.103  0.00  0.00    -0.265 OA
ATOM     29  C   UNL     1       5.658  -5.948  25.959  0.00  0.00    +0.172 A 
ATOM     30  N   UNL     1       4.432  -6.190  25.391  0.00  0.00    -0.229 NA
ATOM     31  C   UNL     1       4.512  -5.638  24.195  0.00  0.00    +0.203 A 
ENDBRANCH  17  18
ENDBRANCH   1  17
TORSDOF 11
ENDMDL
MODEL 7
REMARK VINA RESULT:      -6.3      2.743      4.191
REMARK  Name = 
REMARK  13 active torsions:
REMARK  status: ('A' for Active; 'I' for Inactive)
REMARK    1  A    between atoms: C_1  and  C_2
REMARK    2  A    between atoms: C_2  and  C_3
REMARK    3  A    between atoms: C_2  and  C_4
REMARK    4  A    between atoms: C_4  and  C_6
REMARK    5  A    between atoms: C_4  and  N_27
REMARK    6  A    between atoms: C_6  and  O_8
REMARK    7  A    between atoms: O_8  and  C_9
REMARK    8  A    between atoms: C_9  and  C_10
REMARK    9  A    between atoms: C_10  and  C_12
REMARK   10  A    between atoms: C_10  and  O_14
REMARK   11  A    between atoms: C_12  and  O_13
REMARK   12  A    between atoms: O_14  and  C_15
REMARK   13  A    between atoms: C_15  and  N_16
REMARK                            x       y       z     vdW  Elec       q    Type
REMARK                         _______ _______ _______ _____ _____    ______ ____
ROOT
ATOM      1  O   UNL     1      10.552  -0.607  23.630  0.00  0.00    -0.350 OA
ENDROOT
BRANCH   1   2
ATOM      2  C   UNL     1      10.508   0.792  23.281  0.00  0.00    +0.183 C 
BRANCH   2   3
ATOM      3  C   UNL     1       9.683   1.524  24.355  0.00  0.00    +0.266 C 
BRANCH   3   4
ATOM      4  O   UNL     1       8.275   1.513  24.054  0.00  0.00    -0.461 OA
BRANCH   4   5
ATOM      5  C   UNL     1       7.506   0.700  24.839  0.00  0.00    +0.324 C 
ATOM      6  O   UNL     1       7.944  -0.012  25.734  0.00  0.00    -0.249 OA
BRANCH   5   7
ATOM      7  C   UNL     1       6.012   0.786  24.456  0.00  0.00    +0.163 C 
BRANCH   7   9
ATOM      8  C   UNL     1       4.390   2.769  24.145  0.00  0.00    +0.009 C 
ATOM      9  C   UNL     1       5.282   1.983  25.110  0.00  0.00    +0.010 C 
ATOM     10  C   UNL     1       4.471   1.558  26.339  0.00  0.00    +0.009 C 
ENDBRANCH   7   9
BRANCH   7  11
ATOM     11  N   UNL     1       5.334  -0.504  24.743  0.00  0.00    -0.318 NA
ATOM     12  H   UNL     1       4.940  -0.458  25.684  0.00  0.00    +0.119 HD
ATOM     13  H   UNL     1       4.544  -0.615  24.109  0.00  0.00    +0.119 HD
ENDBRANCH   7  11
ENDBRANCH   5   7
ENDBRANCH   4   5
ENDBRANCH   3   4
ENDBRANCH   2   3
BRANCH   2  14
ATOM     14  C   UNL     1       9.874   1.015  21.893  0.00  0.00    +0.190 C 
BRANCH  14  15
ATOM     15  O   UNL     1       9.799   2.405  21.571  0.00  0.00    -0.392 OA
ATOM     16  H   UNL     1      10.648   2.664  21.173  0.00  0.00    +0.210 HD
ENDBRANCH  14  15
ENDBRANCH   2  14
ENDBRANCH   1   2
BRANCH   1  17
ATOM     17  C   UNL     1      10.095  -1.450  22.565  0.00  0.00    +0.288 C 
BRANCH  17  18
ATOM     18  N   UNL     1       8.847  -2.095  22.927  0.00  0.00    -0.291 N 
ATOM     19  C   UNL     1       8.738  -3.183  23.747  0.00  0.00    +0.171 A 
ATOM     20  N   UNL     1       9.740  -3.777  24.443  0.00  0.00    -0.196 NA
ATOM     21  C   UNL     1       9.349  -4.826  25.115  0.00  0.00    +0.195 A 
ATOM     22  N   UNL     1      10.243  -5.525  25.860  0.00  0.00    -0.329 N 
ATOM     23  H   UNL     1       9.901  -5.936  26.718  0.00  0.00    +0.145 HD
ATOM     24  H   UNL     1      11.115  -5.020  25.985  0.00  0.00    +0.145 HD
ATOM     25  N   UNL     1       8.049  -5.288  25.131  0.00  0.00    -0.293 N 
ATOM     26  H   UNL     1       7.815  -6.128  25.629  0.00  0.00    +0.172 HD
ATOM     27  C   UNL     1       7.001  -4.719  24.418  0.00  0.00    +0.280 A 
ATOM     28  O   UNL     1       5.871  -5.195  24.445  0.00  0.00    -0.265 OA
ATOM     29  C   UNL     1       7.415  -3.553  23.670  0.00  0.00    +0.172 A 
ATOM     30  N   UNL     1       6.710  -2.729  22.829  0.00  0.00    -0.229 NA
ATOM     31  C   UNL     1       7.607  -1.866  22.390  0.00  0.00    +0.203 A 
ENDBRANCH  17  18
ENDBRANCH   1  17
TORSDOF 11
ENDMDL
MODEL 8
REMARK VINA RESULT:      -6.2      2.755      9.204
REMARK  Name = 
REMARK  13 active torsions:
REMARK  status: ('A' for Active; 'I' for Inactive)
REMARK    1  A    between atoms: C_1  and  C_2
REMARK    2  A    between atoms: C_2  and  C_3
REMARK    3  A    between atoms: C_2  and  C_4
REMARK    4  A    between atoms: C_4  and  C_6
REMARK    5  A    between atoms: C_4  and  N_27
REMARK    6  A    between atoms: C_6  and  O_8
REMARK    7  A    between atoms: O_8  and  C_9
REMARK    8  A    between atoms: C_9  and  C_10
REMARK    9  A    between atoms: C_10  and  C_12
REMARK   10  A    between atoms: C_10  and  O_14
REMARK   11  A    between atoms: C_12  and  O_13
REMARK   12  A    between atoms: O_14  and  C_15
REMARK   13  A    between atoms: C_15  and  N_16
REMARK                            x       y       z     vdW  Elec       q    Type
REMARK                         _______ _______ _______ _____ _____    ______ ____
ROOT
ATOM      1  O   UNL     1      10.652   0.424  23.286  0.00  0.00    -0.350 OA
ENDROOT
BRANCH   1   2
ATOM      2  C   UNL     1       9.439  -0.142  22.746  0.00  0.00    +0.183 C 
BRANCH   2   3
ATOM      3  C   UNL     1       9.509  -1.670  22.920  0.00  0.00    +0.266 C 
BRANCH   3   4
ATOM      4  O   UNL     1       8.594  -2.355  22.046  0.00  0.00    -0.461 OA
BRANCH   4   5
ATOM      5  C   UNL     1       7.449  -2.822  22.629  0.00  0.00    +0.324 C 
ATOM      6  O   UNL     1       6.545  -2.107  23.043  0.00  0.00    -0.249 OA
BRANCH   5   7
ATOM      7  C   UNL     1       7.437  -4.364  22.707  0.00  0.00    +0.163 C 
BRANCH   7   9
ATOM      8  C   UNL     1       6.236  -5.785  20.918  0.00  0.00    +0.009 C 
ATOM      9  C   UNL     1       6.108  -4.990  22.221  0.00  0.00    +0.010 C 
ATOM     10  C   UNL     1       5.456  -5.860  23.300  0.00  0.00    +0.009 C 
ENDBRANCH   7   9
BRANCH   7  11
ATOM     11  N   UNL     1       7.794  -4.811  24.078  0.00  0.00    -0.318 NA
ATOM     12  H   UNL     1       7.032  -5.386  24.438  0.00  0.00    +0.119 HD
ATOM     13  H   UNL     1       8.611  -5.420  24.029  0.00  0.00    +0.119 HD
ENDBRANCH   7  11
ENDBRANCH   5   7
ENDBRANCH   4   5
ENDBRANCH   3   4
ENDBRANCH   2   3
BRANCH   2  14
ATOM     14  C   UNL     1       9.262   0.205  21.254  0.00  0.00    +0.190 C 
BRANCH  14  15
ATOM     15  O   UNL     1       8.918   1.580  21.075  0.00  0.00    -0.392 OA
ATOM     16  H   UNL     1       8.576   1.913  21.923  0.00  0.00    +0.210 HD
ENDBRANCH  14  15
ENDBRANCH   2  14
ENDBRANCH   1   2
BRANCH   1  17
ATOM     17  C   UNL     1      10.422   1.147  24.502  0.00  0.00    +0.288 C 
BRANCH  17  18
ATOM     18  N   UNL     1       9.765   2.411  24.224  0.00  0.00    -0.291 N 
ATOM     19  C   UNL     1      10.404   3.558  23.842  0.00  0.00    +0.171 A 
ATOM     20  N   UNL     1      11.724   3.692  23.554  0.00  0.00    -0.196 NA
ATOM     21  C   UNL     1      12.064   4.917  23.256  0.00  0.00    +0.195 A 
ATOM     22  N   UNL     1      13.353   5.206  22.945  0.00  0.00    -0.329 N 
ATOM     23  H   UNL     1      13.506   5.927  22.253  0.00  0.00    +0.145 HD
ATOM     24  H   UNL     1      13.902   4.370  22.771  0.00  0.00    +0.145 HD
ATOM     25  N   UNL     1      11.177   5.974  23.224  0.00  0.00    -0.293 N 
ATOM     26  H   UNL     1      11.504   6.904  23.033  0.00  0.00    +0.172 HD
ATOM     27  C   UNL     1       9.825   5.880  23.530  0.00  0.00    +0.280 A 
ATOM     28  O   UNL     1       9.092   6.863  23.518  0.00  0.00    -0.265 OA
ATOM     29  C   UNL     1       9.430   4.529  23.860  0.00  0.00    +0.172 A 
ATOM     30  N   UNL     1       8.215   4.017  24.241  0.00  0.00    -0.229 NA
ATOM     31  C   UNL     1       8.456   2.738  24.462  0.00  0.00    +0.203 A 
ENDBRANCH  17  18
ENDBRANCH   1  17
TORSDOF 11
ENDMDL
MODEL 9
REMARK VINA RESULT:      -6.2      2.028      2.829
REMARK  Name = 
REMARK  13 active torsions:
REMARK  status: ('A' for Active; 'I' for Inactive)
REMARK    1  A    between atoms: C_1  and  C_2
REMARK    2  A    between atoms: C_2  and  C_3
REMARK    3  A    between atoms: C_2  and  C_4
REMARK    4  A    between atoms: C_4  and  C_6
REMARK    5  A    between atoms: C_4  and  N_27
REMARK    6  A    between atoms: C_6  and  O_8
REMARK    7  A    between atoms: O_8  and  C_9
REMARK    8  A    between atoms: C_9  and  C_10
REMARK    9  A    between atoms: C_10  and  C_12
REMARK   10  A    between atoms: C_10  and  O_14
REMARK   11  A    between atoms: C_12  and  O_13
REMARK   12  A    between atoms: O_14  and  C_15
REMARK   13  A    between atoms: C_15  and  N_16
REMARK                            x       y       z     vdW  Elec       q    Type
REMARK                         _______ _______ _______ _____ _____    ______ ____
ROOT
ATOM      1  O   UNL     1       6.723  -1.542  25.318  0.00  0.00    -0.350 OA
ENDROOT
BRANCH   1   2
ATOM      2  C   UNL     1       7.986  -1.596  24.621  0.00  0.00    +0.183 C 
BRANCH   2   3
ATOM      3  C   UNL     1       7.692  -1.655  23.111  0.00  0.00    +0.266 C 
BRANCH   3   4
ATOM      4  O   UNL     1       8.149  -0.473  22.427  0.00  0.00    -0.461 OA
BRANCH   4   5
ATOM      5  C   UNL     1       9.487  -0.426  22.150  0.00  0.00    +0.324 C 
ATOM      6  O   UNL     1      10.182  -1.410  21.934  0.00  0.00    -0.249 OA
BRANCH   5   7
ATOM      7  C   UNL     1      10.017   1.025  22.148  0.00  0.00    +0.163 C 
BRANCH   7   9
ATOM      8  C   UNL     1      10.957   0.741  24.534  0.00  0.00    +0.009 C 
ATOM      9  C   UNL     1      10.164   1.624  23.566  0.00  0.00    +0.010 C 
ATOM     10  C   UNL     1      10.767   3.032  23.533  0.00  0.00    +0.009 C 
ENDBRANCH   7   9
BRANCH   7  11
ATOM     11  N   UNL     1       9.177   1.876  21.268  0.00  0.00    -0.318 NA
ATOM     12  H   UNL     1       9.739   2.167  20.467  0.00  0.00    +0.119 HD
ATOM     13  H   UNL     1       8.413   1.315  20.889  0.00  0.00    +0.119 HD
ENDBRANCH   7  11
ENDBRANCH   5   7
ENDBRANCH   4   5
ENDBRANCH   3   4
ENDBRANCH   2   3
BRANCH   2  14
ATOM     14  C   UNL     1       8.817  -2.826  25.039  0.00  0.00    +0.190 C 
BRANCH  14  15
ATOM     15  O   UNL     1       9.339  -3.514  23.901  0.00  0.00    -0.392 OA
ATOM     16  H   UNL     1       8.634  -3.560  23.232  0.00  0.00    +0.210 HD
ENDBRANCH  14  15
ENDBRANCH   2  14
ENDBRANCH   1   2
BRANCH   1  17
ATOM     17  C   UNL     1       5.645  -2.069  24.535  0.00  0.00    +0.288 C 
BRANCH  17  18
ATOM     18  N   UNL     1       5.250  -3.376  25.028  0.00  0.00    -0.291 N 
ATOM     19  C   UNL     1       5.230  -4.520  24.281  0.00  0.00    +0.171 A 
ATOM     20  N   UNL     1       5.669  -4.663  23.004  0.00  0.00    -0.196 NA
ATOM     21  C   UNL     1       5.488  -5.866  22.528  0.00  0.00    +0.195 A 
ATOM     22  N   UNL     1       5.877  -6.158  21.262  0.00  0.00    -0.329 N 
ATOM     23  H   UNL     1       6.223  -7.093  21.094  0.00  0.00    +0.145 HD
ATOM     24  H   UNL     1       6.478  -5.440  20.870  0.00  0.00    +0.145 HD
ATOM     25  N   UNL     1       4.918  -6.898  23.246  0.00  0.00    -0.293 N 
ATOM     26  H   UNL     1       4.761  -7.790  22.812  0.00  0.00    +0.172 HD
ATOM     27  C   UNL     1       4.440  -6.786  24.545  0.00  0.00    +0.280 A 
ATOM     28  O   UNL     1       3.912  -7.732  25.121  0.00  0.00    -0.265 OA
ATOM     29  C   UNL     1       4.635  -5.461  25.090  0.00  0.00    +0.172 A 
ATOM     30  N   UNL     1       4.289  -4.931  26.308  0.00  0.00    -0.229 NA
ATOM     31  C   UNL     1       4.666  -3.668  26.233  0.00  0.00    +0.203 A 
ENDBRANCH  17  18
ENDBRANCH   1  17
TORSDOF 11
ENDMDL
