MODEL 1
REMARK VINA RESULT:      -8.4      0.000      0.000
REMARK  Name = 
REMARK  5 active torsions:
REMARK  status: ('A' for Active; 'I' for Inactive)
REMARK    1  A    between atoms: C_1  and  C_2
REMARK    2  A    between atoms: C_12  and  O_31
REMARK    3  A    between atoms: C_15  and  C_19
REMARK    4  A    between atoms: N_21  and  C_22
REMARK    5  A    between atoms: C_22  and  C_23
REMARK                            x       y       z     vdW  Elec       q    Type
REMARK                         _______ _______ _______ _____ _____    ______ ____
ROOT
ATOM      1  C   UNL     1       9.602  -5.640  25.255  0.00  0.00    +0.028 C 
ATOM      2  C   UNL     1       8.718  -4.571  25.918  0.00  0.00    +0.078 C 
ATOM      3  N   UNL     1       8.077  -3.630  24.987  0.00  0.00    -0.266 N 
ATOM      4  C   UNL     1       8.884  -2.860  24.158  0.00  0.00    +0.269 C 
ATOM      5  C   UNL     1       8.273  -1.619  23.544  0.00  0.00    +0.151 A 
ATOM      6  N   UNL     1       6.962  -1.236  23.869  0.00  0.00    -0.335 N 
ATOM      7  C   UNL     1       6.173  -2.042  24.812  0.00  0.00    +0.173 C 
ATOM      8  C   UNL     1       6.589   0.083  23.613  0.00  0.00    +0.103 A 
ATOM      9  C   UNL     1       7.305   0.958  22.887  0.00  0.00    +0.103 A 
ATOM     10  C   UNL     1       8.501   0.398  22.212  0.00  0.00    +0.236 A 
ATOM     11  O   UNL     1       9.016   0.951  21.244  0.00  0.00    -0.283 OA
ATOM     12  C   UNL     1       9.085  -0.862  22.770  0.00  0.00    +0.194 A 
ATOM     13  O   UNL     1      10.079  -3.095  23.975  0.00  0.00    -0.268 OA
ATOM     14  C   UNL     1       6.625  -3.514  24.863  0.00  0.00    +0.228 C 
ATOM     15  O   UNL     1       5.922  -4.084  25.964  0.00  0.00    -0.357 OA
ATOM     16  C   UNL     1       6.375  -5.365  26.348  0.00  0.00    +0.164 C 
ATOM     17  C   UNL     1       7.762  -5.213  26.922  0.00  0.00    +0.050 C 
ENDROOT
BRANCH   9  18
ATOM     18  C   UNL     1       6.840   2.367  22.820  0.00  0.00    +0.250 C 
ATOM     19  N   UNL     1       7.337   3.308  23.680  0.00  0.00    -0.307 N 
ATOM     20  H   UNL     1       6.979   4.239  23.508  0.00  0.00    +0.149 HD
ATOM     21  O   UNL     1       5.932   2.690  22.050  0.00  0.00    -0.270 OA
BRANCH  19  22
ATOM     22  C   UNL     1       8.448   3.170  24.598  0.00  0.00    +0.142 C 
BRANCH  22  23
ATOM     23  C   UNL     1       9.660   3.968  24.225  0.00  0.00    +0.005 A 
ATOM     24  C   UNL     1       9.636   5.372  24.280  0.00  0.00    +0.011 A 
ATOM     25  C   UNL     1      10.731   6.100  23.817  0.00  0.00    +0.039 A 
ATOM     26  C   UNL     1      11.835   5.428  23.310  0.00  0.00    +0.126 A 
ATOM     27  F   UNL     1      12.880   6.135  22.854  0.00  0.00    -0.205 F 
ATOM     28  C   UNL     1      11.887   4.044  23.260  0.00  0.00    +0.077 A 
ATOM     29  C   UNL     1      10.792   3.324  23.721  0.00  0.00    +0.131 A 
ATOM     30  F   UNL     1      10.820   1.986  23.639  0.00  0.00    -0.205 F 
ENDBRANCH  22  23
ENDBRANCH  19  22
ENDBRANCH   9  18
BRANCH  12  31
ATOM     31  O   UNL     1      10.407  -1.134  22.460  0.00  0.00    -0.502 OA
ATOM     32  H   UNL     1      10.810  -1.616  23.218  0.00  0.00    +0.292 HD
ENDBRANCH  12  31
TORSDOF 4
ENDMDL
MODEL 2
REMARK VINA RESULT:      -8.3      3.119      8.349
REMARK  Name = 
REMARK  5 active torsions:
REMARK  status: ('A' for Active; 'I' for Inactive)
REMARK    1  A    between atoms: C_1  and  C_2
REMARK    2  A    between atoms: C_12  and  O_31
REMARK    3  A    between atoms: C_15  and  C_19
REMARK    4  A    between atoms: N_21  and  C_22
REMARK    5  A    between atoms: C_22  and  C_23
REMARK                            x       y       z     vdW  Elec       q    Type
REMARK                         _______ _______ _______ _____ _____    ______ ____
ROOT
ATOM      1  C   UNL     1       7.517   3.258  22.162  0.00  0.00    +0.028 C 
ATOM      2  C   UNL     1       8.267   2.709  23.386  0.00  0.00    +0.078 C 
ATOM      3  N   UNL     1       8.759   1.329  23.245  0.00  0.00    -0.266 N 
ATOM      4  C   UNL     1       7.841   0.317  22.995  0.00  0.00    +0.269 C 
ATOM      5  C   UNL     1       8.270  -1.104  23.286  0.00  0.00    +0.151 A 
ATOM      6  N   UNL     1       9.527  -1.365  23.855  0.00  0.00    -0.335 N 
ATOM      7  C   UNL     1      10.435  -0.254  24.173  0.00  0.00    +0.173 C 
ATOM      8  C   UNL     1       9.719  -2.605  24.464  0.00  0.00    +0.103 A 
ATOM      9  C   UNL     1       8.878  -3.649  24.364  0.00  0.00    +0.103 A 
ATOM     10  C   UNL     1       7.752  -3.473  23.417  0.00  0.00    +0.236 A 
ATOM     11  O   UNL     1       7.148  -4.431  22.943  0.00  0.00    -0.283 OA
ATOM     12  C   UNL     1       7.350  -2.072  23.071  0.00  0.00    +0.194 A 
ATOM     13  O   UNL     1       6.682   0.533  22.635  0.00  0.00    -0.268 OA
ATOM     14  C   UNL     1      10.181   0.992  23.304  0.00  0.00    +0.228 C 
ATOM     15  O   UNL     1      10.976   2.022  23.885  0.00  0.00    -0.357 OA
ATOM     16  C   UNL     1      10.703   3.320  23.396  0.00  0.00    +0.164 C 
ATOM     17  C   UNL     1       9.321   3.708  23.861  0.00  0.00    +0.050 C 
ENDROOT
BRANCH   9  18
ATOM     18  C   UNL     1       9.154  -4.858  25.183  0.00  0.00    +0.250 C 
ATOM     19  N   UNL     1       8.491  -5.069  26.361  0.00  0.00    -0.307 N 
ATOM     20  H   UNL     1       8.730  -5.946  26.805  0.00  0.00    +0.149 HD
ATOM     21  O   UNL     1      10.051  -5.641  24.860  0.00  0.00    -0.270 OA
BRANCH  19  22
ATOM     22  C   UNL     1       7.361  -4.331  26.886  0.00  0.00    +0.142 C 
BRANCH  22  23
ATOM     23  C   UNL     1       6.049  -4.676  26.249  0.00  0.00    +0.005 A 
ATOM     24  C   UNL     1       5.693  -6.017  26.029  0.00  0.00    +0.011 A 
ATOM     25  C   UNL     1       4.524  -6.314  25.329  0.00  0.00    +0.039 A 
ATOM     26  C   UNL     1       3.724  -5.281  24.862  0.00  0.00    +0.126 A 
ATOM     27  F   UNL     1       2.608  -5.573  24.178  0.00  0.00    -0.205 F 
ATOM     28  C   UNL     1       4.048  -3.950  25.081  0.00  0.00    +0.077 A 
ATOM     29  C   UNL     1       5.215  -3.660  25.777  0.00  0.00    +0.131 A 
ATOM     30  F   UNL     1       5.554  -2.376  25.958  0.00  0.00    -0.205 F 
ENDBRANCH  22  23
ENDBRANCH  19  22
ENDBRANCH   9  18
BRANCH  12  31
ATOM     31  O   UNL     1       6.068  -1.889  22.581  0.00  0.00    -0.502 OA
ATOM     32  H   UNL     1       5.874  -0.924  22.574  0.00  0.00    +0.292 HD
ENDBRANCH  12  31
TORSDOF 4
ENDMDL
MODEL 3
REMARK VINA RESULT:      -8.3      3.145      7.814
REMARK  Name = 
REMARK  5 active torsions:
REMARK  status: ('A' for Active; 'I' for Inactive)
REMARK    1  A    between atoms: C_1  and  C_2
REMARK    2  A    between atoms: C_12  and  O_31
REMARK    3  A    between atoms: C_15  and  C_19
REMARK    4  A    between atoms: N_21  and  C_22
REMARK    5  A    between atoms: C_22  and  C_23
REMARK                            x       y       z     vdW  Elec       q    Type
REMARK                         _______ _______ _______ _____ _____    ______ ____
ROOT
ATOM      1  C   UNL     1      10.050   2.292  22.237  0.00  0.00    +0.028 C 
ATOM      2  C   UNL     1       8.758   1.939  22.992  0.00  0.00    +0.078 C 
ATOM      3  N   UNL     1       8.905   0.895  24.019  0.00  0.00    -0.266 N 
ATOM      4  C   UNL     1       9.362  -0.358  23.634  0.00  0.00    +0.269 C 
ATOM      5  C   UNL     1       9.096  -1.517  24.569  0.00  0.00    +0.151 A 
ATOM      6  N   UNL     1       8.350  -1.327  25.743  0.00  0.00    -0.335 N 
ATOM      7  C   UNL     1       7.821   0.004  26.071  0.00  0.00    +0.173 C 
ATOM      8  C   UNL     1       7.798  -2.455  26.351  0.00  0.00    +0.103 A 
ATOM      9  C   UNL     1       8.096  -3.725  26.031  0.00  0.00    +0.103 A 
ATOM     10  C   UNL     1       9.199  -3.895  25.055  0.00  0.00    +0.236 A 
ATOM     11  O   UNL     1       9.822  -4.948  24.958  0.00  0.00    -0.283 OA
ATOM     12  C   UNL     1       9.516  -2.737  24.159  0.00  0.00    +0.194 A 
ATOM     13  O   UNL     1       9.889  -0.577  22.542  0.00  0.00    -0.268 OA
ATOM     14  C   UNL     1       8.640   1.145  25.436  0.00  0.00    +0.228 C 
ATOM     15  O   UNL     1       7.876   2.326  25.663  0.00  0.00    -0.357 OA
ATOM     16  C   UNL     1       8.319   3.458  24.944  0.00  0.00    +0.164 C 
ATOM     17  C   UNL     1       8.059   3.207  23.479  0.00  0.00    +0.050 C 
ENDROOT
BRANCH   9  18
ATOM     18  C   UNL     1       7.321  -4.816  26.676  0.00  0.00    +0.250 C 
ATOM     19  N   UNL     1       5.974  -4.936  26.463  0.00  0.00    -0.307 N 
ATOM     20  H   UNL     1       5.566  -5.742  26.918  0.00  0.00    +0.149 HD
ATOM     21  O   UNL     1       7.862  -5.574  27.485  0.00  0.00    -0.270 OA
BRANCH  19  22
ATOM     22  C   UNL     1       5.162  -4.215  25.506  0.00  0.00    +0.142 C 
BRANCH  22  23
ATOM     23  C   UNL     1       5.409  -4.594  24.077  0.00  0.00    +0.005 A 
ATOM     24  C   UNL     1       5.323  -5.936  23.669  0.00  0.00    +0.011 A 
ATOM     25  C   UNL     1       5.672  -6.284  22.365  0.00  0.00    +0.039 A 
ATOM     26  C   UNL     1       6.097  -5.300  21.483  0.00  0.00    +0.126 A 
ATOM     27  F   UNL     1       6.443  -5.643  20.234  0.00  0.00    -0.205 F 
ATOM     28  C   UNL     1       6.175  -3.967  21.859  0.00  0.00    +0.077 A 
ATOM     29  C   UNL     1       5.827  -3.627  23.161  0.00  0.00    +0.131 A 
ATOM     30  F   UNL     1       5.938  -2.347  23.543  0.00  0.00    -0.205 F 
ENDBRANCH  22  23
ENDBRANCH  19  22
ENDBRANCH   9  18
BRANCH  12  31
ATOM     31  O   UNL     1      10.193  -3.017  22.985  0.00  0.00    -0.502 OA
ATOM     32  H   UNL     1       9.831  -3.851  22.610  0.00  0.00    +0.292 HD
ENDBRANCH  12  31
TORSDOF 4
ENDMDL
MODEL 4
REMARK VINA RESULT:      -8.1      3.843      5.710
REMARK  Name = 
REMARK  5 active torsions:
REMARK  status: ('A' for Active; 'I' for Inactive)
REMARK    1  A    between atoms: C_1  and  C_2
REMARK    2  A    between atoms: C_12  and  O_31
REMARK    3  A    between atoms: C_15  and  C_19
REMARK    4  A    between atoms: N_21  and  C_22
REMARK    5  A    between atoms: C_22  and  C_23
REMARK                            x       y       z     vdW  Elec       q    Type
REMARK                         _______ _______ _______ _____ _____    ______ ____
ROOT
ATOM      1  C   UNL     1       3.101  -7.371  26.101  0.00  0.00    +0.028 C 
ATOM      2  C   UNL     1       3.203  -5.950  25.522  0.00  0.00    +0.078 C 
ATOM      3  N   UNL     1       4.434  -5.674  24.765  0.00  0.00    -0.266 N 
ATOM      4  C   UNL     1       5.657  -5.808  25.412  0.00  0.00    +0.269 C 
ATOM      5  C   UNL     1       6.853  -5.118  24.794  0.00  0.00    +0.151 A 
ATOM      6  N   UNL     1       6.701  -4.317  23.650  0.00  0.00    -0.335 N 
ATOM      7  C   UNL     1       5.372  -4.144  23.045  0.00  0.00    +0.173 C 
ATOM      8  C   UNL     1       7.713  -3.403  23.358  0.00  0.00    +0.103 A 
ATOM      9  C   UNL     1       8.918  -3.373  23.954  0.00  0.00    +0.103 A 
ATOM     10  C   UNL     1       9.199  -4.495  24.881  0.00  0.00    +0.236 A 
ATOM     11  O   UNL     1      10.346  -4.807  25.190  0.00  0.00    -0.283 OA
ATOM     12  C   UNL     1       8.027  -5.227  25.458  0.00  0.00    +0.194 A 
ATOM     13  O   UNL     1       5.787  -6.381  26.494  0.00  0.00    -0.268 OA
ATOM     14  C   UNL     1       4.422  -5.319  23.346  0.00  0.00    +0.228 C 
ATOM     15  O   UNL     1       3.142  -4.892  22.888  0.00  0.00    -0.357 OA
ATOM     16  C   UNL     1       2.069  -5.717  23.293  0.00  0.00    +0.164 C 
ATOM     17  C   UNL     1       1.916  -5.577  24.787  0.00  0.00    +0.050 C 
ENDROOT
BRANCH   9  18
ATOM     18  C   UNL     1       9.837  -2.252  23.629  0.00  0.00    +0.250 C 
ATOM     19  N   UNL     1       9.819  -1.098  24.365  0.00  0.00    -0.307 N 
ATOM     20  H   UNL     1      10.520  -0.427  24.077  0.00  0.00    +0.149 HD
ATOM     21  O   UNL     1      10.565  -2.309  22.635  0.00  0.00    -0.270 OA
BRANCH  19  22
ATOM     22  C   UNL     1       9.110  -0.848  25.602  0.00  0.00    +0.142 C 
BRANCH  22  23
ATOM     23  C   UNL     1       7.806  -0.130  25.432  0.00  0.00    +0.005 A 
ATOM     24  C   UNL     1       7.779   1.216  25.031  0.00  0.00    +0.011 A 
ATOM     25  C   UNL     1       6.565   1.901  24.993  0.00  0.00    +0.039 A 
ATOM     26  C   UNL     1       5.396   1.242  25.349  0.00  0.00    +0.126 A 
ATOM     27  F   UNL     1       4.233   1.910  25.324  0.00  0.00    -0.205 F 
ATOM     28  C   UNL     1       5.397  -0.090  25.734  0.00  0.00    +0.077 A 
ATOM     29  C   UNL     1       6.610  -0.766  25.772  0.00  0.00    +0.131 A 
ATOM     30  F   UNL     1       6.623  -2.043  26.181  0.00  0.00    -0.205 F 
ENDBRANCH  22  23
ENDBRANCH  19  22
ENDBRANCH   9  18
BRANCH  12  31
ATOM     31  O   UNL     1       8.243  -5.938  26.627  0.00  0.00    -0.502 OA
ATOM     32  H   UNL     1       8.145  -5.321  27.387  0.00  0.00    +0.292 HD
ENDBRANCH  12  31
TORSDOF 4
ENDMDL
MODEL 5
REMARK VINA RESULT:      -7.7      3.685      8.743
REMARK  Name = 
REMARK  5 active torsions:
REMARK  status: ('A' for Active; 'I' for Inactive)
REMARK    1  A    between atoms: C_1  and  C_2
REMARK    2  A    between atoms: C_12  and  O_31
REMARK    3  A    between atoms: C_15  and  C_19
REMARK    4  A    between atoms: N_21  and  C_22
REMARK    5  A    between atoms: C_22  and  C_23
REMARK                            x       y       z     vdW  Elec       q    Type
REMARK                         _______ _______ _______ _____ _____    ______ ____
ROOT
ATOM      1  C   UNL     1       9.032   6.524  23.367  0.00  0.00    +0.028 C 
ATOM      2  C   UNL     1       9.942   5.562  24.148  0.00  0.00    +0.078 C 
ATOM      3  N   UNL     1       9.723   4.134  23.866  0.00  0.00    -0.266 N 
ATOM      4  C   UNL     1       8.465   3.594  24.101  0.00  0.00    +0.269 C 
ATOM      5  C   UNL     1       8.364   2.090  24.234  0.00  0.00    +0.151 A 
ATOM      6  N   UNL     1       9.519   1.293  24.190  0.00  0.00    -0.335 N 
ATOM      7  C   UNL     1      10.838   1.918  24.016  0.00  0.00    +0.173 C 
ATOM      8  C   UNL     1       9.435  -0.001  24.705  0.00  0.00    +0.103 A 
ATOM      9  C   UNL     1       8.291  -0.622  25.041  0.00  0.00    +0.103 A 
ATOM     10  C   UNL     1       7.046   0.103  24.693  0.00  0.00    +0.236 A 
ATOM     11  O   UNL     1       5.968  -0.476  24.586  0.00  0.00    -0.283 OA
ATOM     12  C   UNL     1       7.137   1.585  24.500  0.00  0.00    +0.194 A 
ATOM     13  O   UNL     1       7.461   4.282  24.290  0.00  0.00    -0.268 OA
ATOM     14  C   UNL     1      10.763   3.278  23.296  0.00  0.00    +0.228 C 
ATOM     15  O   UNL     1      12.070   3.834  23.410  0.00  0.00    -0.357 OA
ATOM     16  C   UNL     1      12.164   5.194  23.037  0.00  0.00    +0.164 C 
ATOM     17  C   UNL     1      11.400   6.007  24.053  0.00  0.00    +0.050 C 
ENDROOT
BRANCH   9  18
ATOM     18  C   UNL     1       8.377  -1.948  25.704  0.00  0.00    +0.250 C 
ATOM     19  N   UNL     1       8.070  -3.093  25.020  0.00  0.00    -0.307 N 
ATOM     20  H   UNL     1       8.210  -3.935  25.562  0.00  0.00    +0.149 HD
ATOM     21  O   UNL     1       8.638  -2.030  26.907  0.00  0.00    -0.270 OA
BRANCH  19  22
ATOM     22  C   UNL     1       7.819  -3.235  23.601  0.00  0.00    +0.142 C 
BRANCH  22  23
ATOM     23  C   UNL     1       6.599  -4.039  23.268  0.00  0.00    +0.005 A 
ATOM     24  C   UNL     1       5.315  -3.526  23.520  0.00  0.00    +0.011 A 
ATOM     25  C   UNL     1       4.197  -4.333  23.315  0.00  0.00    +0.039 A 
ATOM     26  C   UNL     1       4.365  -5.633  22.859  0.00  0.00    +0.126 A 
ATOM     27  F   UNL     1       3.286  -6.409  22.676  0.00  0.00    -0.205 F 
ATOM     28  C   UNL     1       5.621  -6.155  22.589  0.00  0.00    +0.077 A 
ATOM     29  C   UNL     1       6.732  -5.347  22.797  0.00  0.00    +0.131 A 
ATOM     30  F   UNL     1       7.951  -5.858  22.576  0.00  0.00    -0.205 F 
ENDBRANCH  22  23
ENDBRANCH  19  22
ENDBRANCH   9  18
BRANCH  12  31
ATOM     31  O   UNL     1       5.964   2.310  24.629  0.00  0.00    -0.502 OA
ATOM     32  H   UNL     1       5.609   2.166  25.534  0.00  0.00    +0.292 HD
ENDBRANCH  12  31
TORSDOF 4
ENDMDL
MODEL 6
REMARK VINA RESULT:      -7.6      2.985      8.416
REMARK  Name = 
REMARK  5 active torsions:
REMARK  status: ('A' for Active; 'I' for Inactive)
REMARK    1  A    between atoms: C_1  and  C_2
REMARK    2  A    between atoms: C_12  and  O_31
REMARK    3  A    between atoms: C_15  and  C_19
REMARK    4  A    between atoms: N_21  and  C_22
REMARK    5  A    between atoms: C_22  and  C_23
REMARK                            x       y       z     vdW  Elec       q    Type
REMARK                         _______ _______ _______ _____ _____    ______ ____
ROOT
ATOM      1  C   UNL     1       7.995   5.713  22.725  0.00  0.00    +0.028 C 
ATOM      2  C   UNL     1       8.844   4.956  23.760  0.00  0.00    +0.078 C 
ATOM      3  N   UNL     1       9.198   3.578  23.384  0.00  0.00    -0.266 N 
ATOM      4  C   UNL     1       8.175   2.672  23.135  0.00  0.00    +0.269 C 
ATOM      5  C   UNL     1       8.518   1.199  23.186  0.00  0.00    +0.151 A 
ATOM      6  N   UNL     1       9.810   0.782  23.545  0.00  0.00    -0.335 N 
ATOM      7  C   UNL     1      10.839   1.778  23.875  0.00  0.00    +0.173 C 
ATOM      8  C   UNL     1       9.972  -0.539  23.964  0.00  0.00    +0.103 A 
ATOM      9  C   UNL     1       9.042  -1.502  23.848  0.00  0.00    +0.103 A 
ATOM     10  C   UNL     1       7.825  -1.126  23.089  0.00  0.00    +0.236 A 
ATOM     11  O   UNL     1       7.089  -1.970  22.585  0.00  0.00    -0.283 OA
ATOM     12  C   UNL     1       7.501   0.332  22.978  0.00  0.00    +0.194 A 
ATOM     13  O   UNL     1       7.003   3.010  22.963  0.00  0.00    -0.268 OA
ATOM     14  C   UNL     1      10.584   3.143  23.210  0.00  0.00    +0.228 C 
ATOM     15  O   UNL     1      11.527   4.031  23.803  0.00  0.00    -0.357 OA
ATOM     16  C   UNL     1      11.305   5.398  23.521  0.00  0.00    +0.164 C 
ATOM     17  C   UNL     1      10.028   5.810  24.211  0.00  0.00    +0.050 C 
ENDROOT
BRANCH   9  18
ATOM     18  C   UNL     1       9.316  -2.825  24.466  0.00  0.00    +0.250 C 
ATOM     19  N   UNL     1       8.591  -3.256  25.543  0.00  0.00    -0.307 N 
ATOM     20  H   UNL     1       8.838  -4.190  25.846  0.00  0.00    +0.149 HD
ATOM     21  O   UNL     1      10.261  -3.514  24.075  0.00  0.00    -0.270 OA
BRANCH  19  22
ATOM     22  C   UNL     1       7.402  -2.654  26.108  0.00  0.00    +0.142 C 
BRANCH  22  23
ATOM     23  C   UNL     1       6.130  -3.379  25.789  0.00  0.00    +0.005 A 
ATOM     24  C   UNL     1       6.070  -4.782  25.862  0.00  0.00    +0.011 A 
ATOM     25  C   UNL     1       4.916  -5.446  25.447  0.00  0.00    +0.039 A 
ATOM     26  C   UNL     1       3.839  -4.712  24.970  0.00  0.00    +0.126 A 
ATOM     27  F   UNL     1       2.736  -5.358  24.561  0.00  0.00    -0.205 F 
ATOM     28  C   UNL     1       3.869  -3.328  24.904  0.00  0.00    +0.077 A 
ATOM     29  C   UNL     1       5.022  -2.672  25.317  0.00  0.00    +0.131 A 
ATOM     30  F   UNL     1       5.074  -1.336  25.218  0.00  0.00    -0.205 F 
ENDBRANCH  22  23
ENDBRANCH  19  22
ENDBRANCH   9  18
BRANCH  12  31
ATOM     31  O   UNL     1       6.188   0.664  22.690  0.00  0.00    -0.502 OA
ATOM     32  H   UNL     1       6.191   1.381  22.016  0.00  0.00    +0.292 HD
ENDBRANCH  12  31
TORSDOF 4
ENDMDL
MODEL 7
REMARK VINA RESULT:      -7.5      3.551      8.273
REMARK  Name = 
REMARK  5 active torsions:
REMARK  status: ('A' for Active; 'I' for Inactive)
REMARK    1  A    between atoms: C_1  and  C_2
REMARK    2  A    between atoms: C_12  and  O_31
REMARK    3  A    between atoms: C_15  and  C_19
REMARK    4  A    between atoms: N_21  and  C_22
REMARK    5  A    between atoms: C_22  and  C_23
REMARK                            x       y       z     vdW  Elec       q    Type
REMARK                         _______ _______ _______ _____ _____    ______ ____
ROOT
ATOM      1  C   UNL     1      10.724   1.587  24.103  0.00  0.00    +0.028 C 
ATOM      2  C   UNL     1       9.808   1.228  22.921  0.00  0.00    +0.078 C 
ATOM      3  N   UNL     1       8.806   0.189  23.205  0.00  0.00    -0.266 N 
ATOM      4  C   UNL     1       9.244  -1.063  23.619  0.00  0.00    +0.269 C 
ATOM      5  C   UNL     1       8.279  -2.221  23.484  0.00  0.00    +0.151 A 
ATOM      6  N   UNL     1       7.019  -2.032  22.893  0.00  0.00    -0.335 N 
ATOM      7  C   UNL     1       6.630  -0.703  22.400  0.00  0.00    +0.173 C 
ATOM      8  C   UNL     1       6.343  -3.161  22.431  0.00  0.00    +0.103 A 
ATOM      9  C   UNL     1       6.695  -4.430  22.696  0.00  0.00    +0.103 A 
ATOM     10  C   UNL     1       7.804  -4.595  23.666  0.00  0.00    +0.236 A 
ATOM     11  O   UNL     1       7.977  -5.645  24.279  0.00  0.00    -0.283 OA
ATOM     12  C   UNL     1       8.736  -3.439  23.856  0.00  0.00    +0.194 A 
ATOM     13  O   UNL     1      10.394  -1.281  24.003  0.00  0.00    -0.268 OA
ATOM     14  C   UNL     1       7.368   0.441  23.123  0.00  0.00    +0.228 C 
ATOM     15  O   UNL     1       7.048   1.618  22.385  0.00  0.00    -0.357 OA
ATOM     16  C   UNL     1       7.821   2.751  22.724  0.00  0.00    +0.164 C 
ATOM     17  C   UNL     1       9.240   2.493  22.280  0.00  0.00    +0.050 C 
ENDROOT
BRANCH   9  18
ATOM     18  C   UNL     1       5.953  -5.524  22.018  0.00  0.00    +0.250 C 
ATOM     19  N   UNL     1       4.728  -5.925  22.476  0.00  0.00    -0.307 N 
ATOM     20  H   UNL     1       4.301  -6.645  21.906  0.00  0.00    +0.149 HD
ATOM     21  O   UNL     1       6.471  -6.149  21.089  0.00  0.00    -0.270 OA
BRANCH  19  22
ATOM     22  C   UNL     1       3.910  -5.290  23.487  0.00  0.00    +0.142 C 
BRANCH  22  23
ATOM     23  C   UNL     1       4.428  -5.442  24.885  0.00  0.00    +0.005 A 
ATOM     24  C   UNL     1       4.589  -6.718  25.452  0.00  0.00    +0.011 A 
ATOM     25  C   UNL     1       4.959  -6.836  26.792  0.00  0.00    +0.039 A 
ATOM     26  C   UNL     1       5.167  -5.691  27.548  0.00  0.00    +0.126 A 
ATOM     27  F   UNL     1       5.509  -5.811  28.839  0.00  0.00    -0.205 F 
ATOM     28  C   UNL     1       5.028  -4.422  27.006  0.00  0.00    +0.077 A 
ATOM     29  C   UNL     1       4.658  -4.311  25.671  0.00  0.00    +0.131 A 
ATOM     30  F   UNL     1       4.484  -3.088  25.151  0.00  0.00    -0.205 F 
ENDBRANCH  22  23
ENDBRANCH  19  22
ENDBRANCH   9  18
BRANCH  12  31
ATOM     31  O   UNL     1       9.987  -3.718  24.380  0.00  0.00    -0.502 OA
ATOM     32  H   UNL     1       9.871  -4.049  25.299  0.00  0.00    +0.292 HD
ENDBRANCH  12  31
TORSDOF 4
ENDMDL
MODEL 8
REMARK VINA RESULT:      -7.5      4.084      9.223
REMARK  Name = 
REMARK  5 active torsions:
REMARK  status: ('A' for Active; 'I' for Inactive)
REMARK    1  A    between atoms: C_1  and  C_2
REMARK    2  A    between atoms: C_12  and  O_31
REMARK    3  A    between atoms: C_15  and  C_19
REMARK    4  A    between atoms: N_21  and  C_22
REMARK    5  A    between atoms: C_22  and  C_23
REMARK                            x       y       z     vdW  Elec       q    Type
REMARK                         _______ _______ _______ _____ _____    ______ ____
ROOT
ATOM      1  C   UNL     1       9.816   1.115  21.858  0.00  0.00    +0.028 C 
ATOM      2  C   UNL     1       8.382   0.730  22.257  0.00  0.00    +0.078 C 
ATOM      3  N   UNL     1       8.262   0.042  23.553  0.00  0.00    -0.266 N 
ATOM      4  C   UNL     1       8.942  -1.155  23.736  0.00  0.00    +0.269 C 
ATOM      5  C   UNL     1       8.479  -2.056  24.861  0.00  0.00    +0.151 A 
ATOM      6  N   UNL     1       7.358  -1.713  25.633  0.00  0.00    -0.335 N 
ATOM      7  C   UNL     1       6.624  -0.471  25.351  0.00  0.00    +0.173 C 
ATOM      8  C   UNL     1       6.739  -2.725  26.365  0.00  0.00    +0.103 A 
ATOM      9  C   UNL     1       7.250  -3.952  26.565  0.00  0.00    +0.103 A 
ATOM     10  C   UNL     1       8.633  -4.155  26.072  0.00  0.00    +0.236 A 
ATOM     11  O   UNL     1       9.349  -5.055  26.504  0.00  0.00    -0.283 OA
ATOM     12  C   UNL     1       9.129  -3.235  25.000  0.00  0.00    +0.194 A 
ATOM     13  O   UNL     1       9.832  -1.547  22.981  0.00  0.00    -0.268 OA
ATOM     14  C   UNL     1       7.500   0.599  24.670  0.00  0.00    +0.228 C 
ATOM     15  O   UNL     1       6.595   1.626  24.273  0.00  0.00    -0.357 OA
ATOM     16  C   UNL     1       7.151   2.593  23.406  0.00  0.00    +0.164 C 
ATOM     17  C   UNL     1       7.440   1.920  22.087  0.00  0.00    +0.050 C 
ENDROOT
BRANCH   9  18
ATOM     18  C   UNL     1       6.406  -4.964  27.252  0.00  0.00    +0.250 C 
ATOM     19  N   UNL     1       5.512  -5.723  26.547  0.00  0.00    -0.307 N 
ATOM     20  H   UNL     1       5.029  -6.407  27.116  0.00  0.00    +0.149 HD
ATOM     21  O   UNL     1       6.434  -5.071  28.481  0.00  0.00    -0.270 OA
BRANCH  19  22
ATOM     22  C   UNL     1       5.371  -5.817  25.110  0.00  0.00    +0.142 C 
BRANCH  22  23
ATOM     23  C   UNL     1       4.084  -6.437  24.656  0.00  0.00    +0.005 A 
ATOM     24  C   UNL     1       3.504  -7.492  25.380  0.00  0.00    +0.011 A 
ATOM     25  C   UNL     1       2.373  -8.134  24.879  0.00  0.00    +0.039 A 
ATOM     26  C   UNL     1       1.830  -7.720  23.670  0.00  0.00    +0.126 A 
ATOM     27  F   UNL     1       0.749  -8.350  23.187  0.00  0.00    -0.205 F 
ATOM     28  C   UNL     1       2.376  -6.671  22.946  0.00  0.00    +0.077 A 
ATOM     29  C   UNL     1       3.504  -6.037  23.449  0.00  0.00    +0.131 A 
ATOM     30  F   UNL     1       4.061  -5.049  22.735  0.00  0.00    -0.205 F 
ENDBRANCH  22  23
ENDBRANCH  19  22
ENDBRANCH   9  18
BRANCH  12  31
ATOM     31  O   UNL     1      10.195  -3.677  24.235  0.00  0.00    -0.502 OA
ATOM     32  H   UNL     1      10.639  -2.893  23.840  0.00  0.00    +0.292 HD
ENDBRANCH  12  31
TORSDOF 4
ENDMDL
MODEL 9
REMARK VINA RESULT:      -7.3      4.873      9.291
REMARK  Name = 
REMARK  5 active torsions:
REMARK  status: ('A' for Active; 'I' for Inactive)
REMARK    1  A    between atoms: C_1  and  C_2
REMARK    2  A    between atoms: C_12  and  O_31
REMARK    3  A    between atoms: C_15  and  C_19
REMARK    4  A    between atoms: N_21  and  C_22
REMARK    5  A    between atoms: C_22  and  C_23
REMARK                            x       y       z     vdW  Elec       q    Type
REMARK                         _______ _______ _______ _____ _____    ______ ____
ROOT
ATOM      1  C   UNL     1      10.549  -1.536  22.646  0.00  0.00    +0.028 C 
ATOM      2  C   UNL     1       9.016  -1.463  22.727  0.00  0.00    +0.078 C 
ATOM      3  N   UNL     1       8.448  -1.774  24.048  0.00  0.00    -0.266 N 
ATOM      4  C   UNL     1       8.705  -3.021  24.606  0.00  0.00    +0.269 C 
ATOM      5  C   UNL     1       7.789  -3.492  25.715  0.00  0.00    +0.151 A 
ATOM      6  N   UNL     1       6.684  -2.718  26.102  0.00  0.00    -0.335 N 
ATOM      7  C   UNL     1       6.409  -1.440  25.429  0.00  0.00    +0.173 C 
ATOM      8  C   UNL     1       5.668  -3.350  26.818  0.00  0.00    +0.103 A 
ATOM      9  C   UNL     1       5.754  -4.580  27.353  0.00  0.00    +0.103 A 
ATOM     10  C   UNL     1       7.090  -5.218  27.274  0.00  0.00    +0.236 A 
ATOM     11  O   UNL     1       7.416  -6.133  28.025  0.00  0.00    -0.283 OA
ATOM     12  C   UNL     1       8.032  -4.724  26.220  0.00  0.00    +0.194 A 
ATOM     13  O   UNL     1       9.577  -3.781  24.184  0.00  0.00    -0.268 OA
ATOM     14  C   UNL     1       7.672  -0.803  24.819  0.00  0.00    +0.228 C 
ATOM     15  O   UNL     1       7.198   0.285  24.031  0.00  0.00    -0.357 OA
ATOM     16  C   UNL     1       8.169   0.858  23.178  0.00  0.00    +0.164 C 
ATOM     17  C   UNL     1       8.509  -0.158  22.116  0.00  0.00    +0.050 C 
ENDROOT
BRANCH   9  18
ATOM     18  C   UNL     1       4.536  -5.169  27.969  0.00  0.00    +0.250 C 
ATOM     19  N   UNL     1       3.863  -6.186  27.349  0.00  0.00    -0.307 N 
ATOM     20  H   UNL     1       3.078  -6.534  27.885  0.00  0.00    +0.149 HD
ATOM     21  O   UNL     1       4.063  -4.688  29.001  0.00  0.00    -0.270 OA
BRANCH  19  22
ATOM     22  C   UNL     1       4.278  -6.945  26.188  0.00  0.00    +0.142 C 
BRANCH  22  23
ATOM     23  C   UNL     1       3.428  -6.729  24.973  0.00  0.00    +0.005 A 
ATOM     24  C   UNL     1       3.409  -5.481  24.326  0.00  0.00    +0.011 A 
ATOM     25  C   UNL     1       2.524  -5.264  23.271  0.00  0.00    +0.039 A 
ATOM     26  C   UNL     1       1.674  -6.285  22.869  0.00  0.00    +0.126 A 
ATOM     27  F   UNL     1       0.815  -6.065  21.862  0.00  0.00    -0.205 F 
ATOM     28  C   UNL     1       1.685  -7.528  23.482  0.00  0.00    +0.077 A 
ATOM     29  C   UNL     1       2.568  -7.739  24.534  0.00  0.00    +0.131 A 
ATOM     30  F   UNL     1       2.557  -8.925  25.158  0.00  0.00    -0.205 F 
ENDBRANCH  22  23
ENDBRANCH  19  22
ENDBRANCH   9  18
BRANCH  12  31
ATOM     31  O   UNL     1       9.056  -5.576  25.842  0.00  0.00    -0.502 OA
ATOM     32  H   UNL     1       9.880  -5.047  25.747  0.00  0.00    +0.292 HD
ENDBRANCH  12  31
TORSDOF 4
ENDMDL
