MODEL 1
REMARK VINA RESULT:      -6.0      0.000      0.000
REMARK  Name = 
REMARK  5 active torsions:
REMARK  status: ('A' for Active; 'I' for Inactive)
REMARK    1  A    between atoms: C3*_2  and  O3*_22
REMARK    2  A    between atoms: C4*_4  and  C5*_20
REMARK    3  A    between atoms: C1*_7  and  N_9
REMARK    4  A    between atoms: C_11  and  C_17
REMARK    5  A    between atoms: C5*_20  and  O5*_21
REMARK                            x       y       z     vdW  Elec       q    Type
REMARK                         _______ _______ _______ _____ _____    ______ ____
ROOT
ATOM      1  N   UNL     1       7.597  -5.160  24.782  0.00  0.00    -0.273 N 
ATOM      2  C   UNL     1       8.660  -5.366  25.649  0.00  0.00    +0.331 A 
ATOM      3  O   UNL     1       9.841  -5.294  25.319  0.00  0.00    -0.246 OA
ATOM      4  N   UNL     1       8.319  -5.656  26.943  0.00  0.00    -0.274 N 
ATOM      5  H   UNL     1       9.078  -5.752  27.600  0.00  0.00    +0.173 HD
ATOM      6  C   UNL     1       7.053  -5.704  27.455  0.00  0.00    +0.261 A 
ATOM      7  O   UNL     1       6.850  -5.845  28.657  0.00  0.00    -0.267 OA
ATOM      8  C   UNL     1       5.938  -5.572  26.469  0.00  0.00    +0.056 A 
ATOM      9  C   UNL     1       6.290  -5.303  25.203  0.00  0.00    +0.106 A 
ENDROOT
BRANCH   1  11
ATOM     10  C2* UNL     1       6.726  -4.932  22.453  0.00  0.00    +0.088 C 
ATOM     11  C1* UNL     1       7.918  -4.814  23.397  0.00  0.00    +0.226 C 
ATOM     12  O4* UNL     1       8.405  -3.454  23.315  0.00  0.00    -0.348 OA
ATOM     13  C4* UNL     1       7.604  -2.757  22.341  0.00  0.00    +0.175 C 
ATOM     14  C3* UNL     1       6.273  -3.498  22.303  0.00  0.00    +0.150 C 
BRANCH  14  15
ATOM     15  O3* UNL     1       5.545  -3.286  21.105  0.00  0.00    -0.389 OA
ATOM     16  H3* UNL     1       5.850  -3.912  20.427  0.00  0.00    +0.210 HD
ENDBRANCH  14  15
BRANCH  13  17
ATOM     17  C5* UNL     1       7.491  -1.274  22.691  0.00  0.00    +0.190 C 
BRANCH  17  18
ATOM     18  O5* UNL     1       6.157  -0.915  23.048  0.00  0.00    -0.392 OA
ATOM     19  H5* UNL     1       6.238  -0.126  23.613  0.00  0.00    +0.210 HD
ENDBRANCH  17  18
ENDBRANCH  13  17
ENDBRANCH   1  11
BRANCH   8  20
ATOM     20  C   UNL     1       4.561  -5.620  26.928  0.00  0.00    +0.022 C 
ATOM     21  C   UNL     1       3.726  -6.658  26.796  0.00  0.00    +0.052 C 
ATOM     22 BR   UNL     1       1.959  -6.641  27.367  0.00  0.00    -0.059 Br
ENDBRANCH   8  20
TORSDOF 5
ENDMDL
MODEL 2
REMARK VINA RESULT:      -5.9      1.990      2.509
REMARK  Name = 
REMARK  5 active torsions:
REMARK  status: ('A' for Active; 'I' for Inactive)
REMARK    1  A    between atoms: C3*_2  and  O3*_22
REMARK    2  A    between atoms: C4*_4  and  C5*_20
REMARK    3  A    between atoms: C1*_7  and  N_9
REMARK    4  A    between atoms: C_11  and  C_17
REMARK    5  A    between atoms: C5*_20  and  O5*_21
REMARK                            x       y       z     vdW  Elec       q    Type
REMARK                         _______ _______ _______ _____ _____    ______ ____
ROOT
ATOM      1  N   UNL     1       8.271  -3.884  24.925  0.00  0.00    -0.273 N 
ATOM      2  C   UNL     1       9.093  -4.910  25.371  0.00  0.00    +0.331 A 
ATOM      3  O   UNL     1      10.182  -5.184  24.873  0.00  0.00    -0.246 OA
ATOM      4  N   UNL     1       8.619  -5.626  26.438  0.00  0.00    -0.274 N 
ATOM      5  H   UNL     1       9.227  -6.337  26.811  0.00  0.00    +0.173 HD
ATOM      6  C   UNL     1       7.460  -5.387  27.121  0.00  0.00    +0.261 A 
ATOM      7  O   UNL     1       7.179  -6.001  28.147  0.00  0.00    -0.267 OA
ATOM      8  C   UNL     1       6.562  -4.339  26.549  0.00  0.00    +0.056 A 
ATOM      9  C   UNL     1       7.035  -3.657  25.496  0.00  0.00    +0.106 A 
ENDROOT
BRANCH   1  11
ATOM     10  C2* UNL     1       7.702  -2.124  23.248  0.00  0.00    +0.088 C 
ATOM     11  C1* UNL     1       8.756  -3.073  23.809  0.00  0.00    +0.226 C 
ATOM     12  O4* UNL     1       9.889  -2.272  24.219  0.00  0.00    -0.348 OA
ATOM     13  C4* UNL     1       9.596  -0.898  23.897  0.00  0.00    +0.175 C 
ATOM     14  C3* UNL     1       8.076  -0.800  23.874  0.00  0.00    +0.150 C 
BRANCH  14  15
ATOM     15  O3* UNL     1       7.595   0.304  23.124  0.00  0.00    -0.389 OA
ATOM     16  H3* UNL     1       8.348   0.795  22.754  0.00  0.00    +0.210 HD
ENDBRANCH  14  15
BRANCH  13  17
ATOM     17  C5* UNL     1      10.275   0.049  24.887  0.00  0.00    +0.190 C 
BRANCH  17  18
ATOM     18  O5* UNL     1       9.401   1.100  25.296  0.00  0.00    -0.392 OA
ATOM     19  H5* UNL     1       9.897   1.926  25.152  0.00  0.00    +0.210 HD
ENDBRANCH  17  18
ENDBRANCH  13  17
ENDBRANCH   1  11
BRANCH   8  20
ATOM     20  C   UNL     1       5.306  -4.028  27.210  0.00  0.00    +0.022 C 
ATOM     21  C   UNL     1       4.118  -4.583  26.937  0.00  0.00    +0.052 C 
ATOM     22 BR   UNL     1       2.538  -4.110  27.789  0.00  0.00    -0.059 Br
ENDBRANCH   8  20
TORSDOF 5
ENDMDL
MODEL 3
REMARK VINA RESULT:      -5.9      4.024      5.883
REMARK  Name = 
REMARK  5 active torsions:
REMARK  status: ('A' for Active; 'I' for Inactive)
REMARK    1  A    between atoms: C3*_2  and  O3*_22
REMARK    2  A    between atoms: C4*_4  and  C5*_20
REMARK    3  A    between atoms: C1*_7  and  N_9
REMARK    4  A    between atoms: C_11  and  C_17
REMARK    5  A    between atoms: C5*_20  and  O5*_21
REMARK                            x       y       z     vdW  Elec       q    Type
REMARK                         _______ _______ _______ _____ _____    ______ ____
ROOT
ATOM      1  N   UNL     1       8.087  -2.412  23.751  0.00  0.00    -0.273 N 
ATOM      2  C   UNL     1       9.473  -2.474  23.778  0.00  0.00    +0.331 A 
ATOM      3  O   UNL     1      10.111  -3.459  24.141  0.00  0.00    -0.246 OA
ATOM      4  N   UNL     1      10.124  -1.345  23.356  0.00  0.00    -0.274 N 
ATOM      5  H   UNL     1      11.129  -1.392  23.314  0.00  0.00    +0.173 HD
ATOM      6  C   UNL     1       9.540  -0.209  22.869  0.00  0.00    +0.261 A 
ATOM      7  O   UNL     1      10.207   0.704  22.393  0.00  0.00    -0.267 OA
ATOM      8  C   UNL     1       8.049  -0.149  22.949  0.00  0.00    +0.056 A 
ATOM      9  C   UNL     1       7.429  -1.258  23.378  0.00  0.00    +0.106 A 
ENDROOT
BRANCH   1  11
ATOM     10  C2* UNL     1       5.840  -3.450  24.075  0.00  0.00    +0.088 C 
ATOM     11  C1* UNL     1       7.354  -3.610  24.162  0.00  0.00    +0.226 C 
ATOM     12  O4* UNL     1       7.722  -4.737  23.334  0.00  0.00    -0.348 OA
ATOM     13  C4* UNL     1       6.511  -5.296  22.787  0.00  0.00    +0.175 C 
ATOM     14  C3* UNL     1       5.502  -4.154  22.780  0.00  0.00    +0.150 C 
BRANCH  14  15
ATOM     15  O3* UNL     1       4.154  -4.593  22.742  0.00  0.00    -0.389 OA
ATOM     16  H3* UNL     1       3.611  -3.928  22.287  0.00  0.00    +0.210 HD
ENDBRANCH  14  15
BRANCH  13  17
ATOM     17  C5* UNL     1       6.770  -5.918  21.416  0.00  0.00    +0.190 C 
BRANCH  17  18
ATOM     18  O5* UNL     1       5.920  -5.361  20.414  0.00  0.00    -0.392 OA
ATOM     19  H5* UNL     1       5.446  -6.115  20.020  0.00  0.00    +0.210 HD
ENDBRANCH  17  18
ENDBRANCH  13  17
ENDBRANCH   1  11
BRANCH   8  20
ATOM     20  C   UNL     1       7.349   1.026  22.460  0.00  0.00    +0.022 C 
ATOM     21  C   UNL     1       6.608   1.862  23.200  0.00  0.00    +0.052 C 
ATOM     22 BR   UNL     1       5.701   3.325  22.506  0.00  0.00    -0.059 Br
ENDBRANCH   8  20
TORSDOF 5
ENDMDL
MODEL 4
REMARK VINA RESULT:      -5.7      3.933      5.193
REMARK  Name = 
REMARK  5 active torsions:
REMARK  status: ('A' for Active; 'I' for Inactive)
REMARK    1  A    between atoms: C3*_2  and  O3*_22
REMARK    2  A    between atoms: C4*_4  and  C5*_20
REMARK    3  A    between atoms: C1*_7  and  N_9
REMARK    4  A    between atoms: C_11  and  C_17
REMARK    5  A    between atoms: C5*_20  and  O5*_21
REMARK                            x       y       z     vdW  Elec       q    Type
REMARK                         _______ _______ _______ _____ _____    ______ ____
ROOT
ATOM      1  N   UNL     1       8.964  -0.934  24.948  0.00  0.00    -0.273 N 
ATOM      2  C   UNL     1       8.662  -1.238  26.268  0.00  0.00    +0.331 A 
ATOM      3  O   UNL     1       9.108  -0.623  27.234  0.00  0.00    -0.246 OA
ATOM      4  N   UNL     1       7.805  -2.289  26.452  0.00  0.00    -0.274 N 
ATOM      5  H   UNL     1       7.529  -2.487  27.400  0.00  0.00    +0.173 HD
ATOM      6  C   UNL     1       7.191  -3.013  25.468  0.00  0.00    +0.261 A 
ATOM      7  O   UNL     1       6.336  -3.855  25.728  0.00  0.00    -0.267 OA
ATOM      8  C   UNL     1       7.618  -2.717  24.067  0.00  0.00    +0.056 A 
ATOM      9  C   UNL     1       8.469  -1.694  23.907  0.00  0.00    +0.106 A 
ENDROOT
BRANCH   1  11
ATOM     10  C2* UNL     1      10.397   0.254  23.284  0.00  0.00    +0.088 C 
ATOM     11  C1* UNL     1       9.850   0.205  24.707  0.00  0.00    +0.226 C 
ATOM     12  O4* UNL     1       9.153   1.449  24.950  0.00  0.00    -0.348 OA
ATOM     13  C4* UNL     1       9.286   2.266  23.770  0.00  0.00    +0.175 C 
ATOM     14  C3* UNL     1       9.516   1.290  22.622  0.00  0.00    +0.150 C 
BRANCH  14  15
ATOM     15  O3* UNL     1      10.137   1.884  21.494  0.00  0.00    -0.389 OA
ATOM     16  H3* UNL     1      10.483   2.758  21.740  0.00  0.00    +0.210 HD
ENDBRANCH  14  15
BRANCH  13  17
ATOM     17  C5* UNL     1       8.067   3.171  23.595  0.00  0.00    +0.190 C 
BRANCH  17  18
ATOM     18  O5* UNL     1       8.081   3.839  22.334  0.00  0.00    -0.392 OA
ATOM     19  H5* UNL     1       8.680   3.320  21.767  0.00  0.00    +0.210 HD
ENDBRANCH  17  18
ENDBRANCH  13  17
ENDBRANCH   1  11
BRANCH   8  20
ATOM     20  C   UNL     1       7.020  -3.447  22.963  0.00  0.00    +0.022 C 
ATOM     21  C   UNL     1       7.231  -4.736  22.669  0.00  0.00    +0.052 C 
ATOM     22 BR   UNL     1       6.469  -5.601  21.214  0.00  0.00    -0.059 Br
ENDBRANCH   8  20
TORSDOF 5
ENDMDL
MODEL 5
REMARK VINA RESULT:      -5.7      3.490      4.959
REMARK  Name = 
REMARK  5 active torsions:
REMARK  status: ('A' for Active; 'I' for Inactive)
REMARK    1  A    between atoms: C3*_2  and  O3*_22
REMARK    2  A    between atoms: C4*_4  and  C5*_20
REMARK    3  A    between atoms: C1*_7  and  N_9
REMARK    4  A    between atoms: C_11  and  C_17
REMARK    5  A    between atoms: C5*_20  and  O5*_21
REMARK                            x       y       z     vdW  Elec       q    Type
REMARK                         _______ _______ _______ _____ _____    ______ ____
ROOT
ATOM      1  N   UNL     1       7.318  -3.906  25.160  0.00  0.00    -0.273 N 
ATOM      2  C   UNL     1       7.787  -3.847  26.464  0.00  0.00    +0.331 A 
ATOM      3  O   UNL     1       7.709  -4.776  27.265  0.00  0.00    -0.246 OA
ATOM      4  N   UNL     1       8.370  -2.664  26.831  0.00  0.00    -0.274 N 
ATOM      5  H   UNL     1       8.767  -2.623  27.755  0.00  0.00    +0.173 HD
ATOM      6  C   UNL     1       8.576  -1.580  26.024  0.00  0.00    +0.261 A 
ATOM      7  O   UNL     1       9.224  -0.609  26.404  0.00  0.00    -0.267 OA
ATOM      8  C   UNL     1       7.971  -1.650  24.659  0.00  0.00    +0.056 A 
ATOM      9  C   UNL     1       7.392  -2.811  24.322  0.00  0.00    +0.106 A 
ENDROOT
BRANCH   1  11
ATOM     10  C2* UNL     1       5.196  -5.119  24.651  0.00  0.00    +0.088 C 
ATOM     11  C1* UNL     1       6.719  -5.165  24.718  0.00  0.00    +0.226 C 
ATOM     12  O4* UNL     1       7.201  -5.521  23.401  0.00  0.00    -0.348 OA
ATOM     13  C4* UNL     1       6.055  -5.736  22.555  0.00  0.00    +0.175 C 
ATOM     14  C3* UNL     1       4.930  -4.918  23.177  0.00  0.00    +0.150 C 
BRANCH  14  15
ATOM     15  O3* UNL     1       3.637  -5.359  22.798  0.00  0.00    -0.389 OA
ATOM     16  H3* UNL     1       3.718  -6.041  22.109  0.00  0.00    +0.210 HD
ENDBRANCH  14  15
BRANCH  13  17
ATOM     17  C5* UNL     1       6.373  -5.373  21.105  0.00  0.00    +0.190 C 
BRANCH  17  18
ATOM     18  O5* UNL     1       5.696  -4.185  20.697  0.00  0.00    -0.392 OA
ATOM     19  H5* UNL     1       4.753  -4.422  20.649  0.00  0.00    +0.210 HD
ENDBRANCH  17  18
ENDBRANCH  13  17
ENDBRANCH   1  11
BRANCH   8  20
ATOM     20  C   UNL     1       8.137  -0.537  23.740  0.00  0.00    +0.022 C 
ATOM     21  C   UNL     1       8.937  -0.519  22.667  0.00  0.00    +0.052 C 
ATOM     22 BR   UNL     1       9.138   0.953  21.554  0.00  0.00    -0.059 Br
ENDBRANCH   8  20
TORSDOF 5
ENDMDL
MODEL 6
REMARK VINA RESULT:      -5.6      2.423      3.358
REMARK  Name = 
REMARK  5 active torsions:
REMARK  status: ('A' for Active; 'I' for Inactive)
REMARK    1  A    between atoms: C3*_2  and  O3*_22
REMARK    2  A    between atoms: C4*_4  and  C5*_20
REMARK    3  A    between atoms: C1*_7  and  N_9
REMARK    4  A    between atoms: C_11  and  C_17
REMARK    5  A    between atoms: C5*_20  and  O5*_21
REMARK                            x       y       z     vdW  Elec       q    Type
REMARK                         _______ _______ _______ _____ _____    ______ ____
ROOT
ATOM      1  N   UNL     1       6.435  -4.996  23.277  0.00  0.00    -0.273 N 
ATOM      2  C   UNL     1       5.650  -5.679  22.359  0.00  0.00    +0.331 A 
ATOM      3  O   UNL     1       5.736  -5.539  21.141  0.00  0.00    -0.246 OA
ATOM      4  N   UNL     1       4.745  -6.557  22.892  0.00  0.00    -0.274 N 
ATOM      5  H   UNL     1       4.207  -7.104  22.240  0.00  0.00    +0.173 HD
ATOM      6  C   UNL     1       4.591  -6.854  24.218  0.00  0.00    +0.261 A 
ATOM      7  O   UNL     1       3.841  -7.751  24.593  0.00  0.00    -0.267 OA
ATOM      8  C   UNL     1       5.387  -6.028  25.175  0.00  0.00    +0.056 A 
ATOM      9  C   UNL     1       6.257  -5.163  24.636  0.00  0.00    +0.106 A 
ENDROOT
BRANCH   1  11
ATOM     10  C2* UNL     1       6.847  -2.758  22.250  0.00  0.00    +0.088 C 
ATOM     11  C1* UNL     1       7.438  -4.073  22.746  0.00  0.00    +0.226 C 
ATOM     12  O4* UNL     1       8.420  -3.755  23.760  0.00  0.00    -0.348 OA
ATOM     13  C4* UNL     1       8.487  -2.320  23.873  0.00  0.00    +0.175 C 
ATOM     14  C3* UNL     1       7.135  -1.810  23.392  0.00  0.00    +0.150 C 
BRANCH  14  15
ATOM     15  O3* UNL     1       7.161  -0.455  22.973  0.00  0.00    -0.389 OA
ATOM     16  H3* UNL     1       6.573   0.070  23.542  0.00  0.00    +0.210 HD
ENDBRANCH  14  15
BRANCH  13  17
ATOM     17  C5* UNL     1       8.849  -1.903  25.299  0.00  0.00    +0.190 C 
BRANCH  17  18
ATOM     18  O5* UNL     1       9.030  -0.492  25.407  0.00  0.00    -0.392 OA
ATOM     19  H5* UNL     1       9.973  -0.362  25.614  0.00  0.00    +0.210 HD
ENDBRANCH  17  18
ENDBRANCH  13  17
ENDBRANCH   1  11
BRANCH   8  20
ATOM     20  C   UNL     1       5.276  -6.273  26.602  0.00  0.00    +0.022 C 
ATOM     21  C   UNL     1       5.744  -5.477  27.573  0.00  0.00    +0.052 C 
ATOM     22 BR   UNL     1       5.609  -5.869  29.383  0.00  0.00    -0.059 Br
ENDBRANCH   8  20
TORSDOF 5
ENDMDL
MODEL 7
REMARK VINA RESULT:      -5.6      3.355      5.379
REMARK  Name = 
REMARK  5 active torsions:
REMARK  status: ('A' for Active; 'I' for Inactive)
REMARK    1  A    between atoms: C3*_2  and  O3*_22
REMARK    2  A    between atoms: C4*_4  and  C5*_20
REMARK    3  A    between atoms: C1*_7  and  N_9
REMARK    4  A    between atoms: C_11  and  C_17
REMARK    5  A    between atoms: C5*_20  and  O5*_21
REMARK                            x       y       z     vdW  Elec       q    Type
REMARK                         _______ _______ _______ _____ _____    ______ ____
ROOT
ATOM      1  N   UNL     1       6.577  -4.738  26.264  0.00  0.00    -0.273 N 
ATOM      2  C   UNL     1       7.523  -5.424  27.012  0.00  0.00    +0.331 A 
ATOM      3  O   UNL     1       7.263  -6.066  28.027  0.00  0.00    -0.246 OA
ATOM      4  N   UNL     1       8.808  -5.358  26.545  0.00  0.00    -0.274 N 
ATOM      5  H   UNL     1       9.498  -5.897  27.042  0.00  0.00    +0.173 HD
ATOM      6  C   UNL     1       9.221  -4.735  25.400  0.00  0.00    +0.261 A 
ATOM      7  O   UNL     1      10.375  -4.838  24.993  0.00  0.00    -0.267 OA
ATOM      8  C   UNL     1       8.190  -3.929  24.679  0.00  0.00    +0.056 A 
ATOM      9  C   UNL     1       6.940  -3.994  25.158  0.00  0.00    +0.106 A 
ENDROOT
BRANCH   1  11
ATOM     10  C2* UNL     1       4.227  -4.008  25.836  0.00  0.00    +0.088 C 
ATOM     11  C1* UNL     1       5.185  -4.811  26.710  0.00  0.00    +0.226 C 
ATOM     12  O4* UNL     1       4.727  -6.183  26.713  0.00  0.00    -0.348 OA
ATOM     13  C4* UNL     1       3.520  -6.245  25.927  0.00  0.00    +0.175 C 
ATOM     14  C3* UNL     1       3.602  -5.070  24.961  0.00  0.00    +0.150 C 
BRANCH  14  15
ATOM     15  O3* UNL     1       2.340  -4.672  24.451  0.00  0.00    -0.389 OA
ATOM     16  H3* UNL     1       2.345  -4.750  23.482  0.00  0.00    +0.210 HD
ENDBRANCH  14  15
BRANCH  13  17
ATOM     17  C5* UNL     1       3.381  -7.610  25.251  0.00  0.00    +0.190 C 
BRANCH  17  18
ATOM     18  O5* UNL     1       3.612  -7.529  23.845  0.00  0.00    -0.392 OA
ATOM     19  H5* UNL     1       4.013  -6.654  23.694  0.00  0.00    +0.210 HD
ENDBRANCH  17  18
ENDBRANCH  13  17
ENDBRANCH   1  11
BRANCH   8  20
ATOM     20  C   UNL     1       8.548  -3.229  23.458  0.00  0.00    +0.022 C 
ATOM     21  C   UNL     1       9.028  -1.982  23.381  0.00  0.00    +0.052 C 
ATOM     22 BR   UNL     1       9.426  -1.125  21.783  0.00  0.00    -0.059 Br
ENDBRANCH   8  20
TORSDOF 5
ENDMDL
MODEL 8
REMARK VINA RESULT:      -5.6      4.451      5.447
REMARK  Name = 
REMARK  5 active torsions:
REMARK  status: ('A' for Active; 'I' for Inactive)
REMARK    1  A    between atoms: C3*_2  and  O3*_22
REMARK    2  A    between atoms: C4*_4  and  C5*_20
REMARK    3  A    between atoms: C1*_7  and  N_9
REMARK    4  A    between atoms: C_11  and  C_17
REMARK    5  A    between atoms: C5*_20  and  O5*_21
REMARK                            x       y       z     vdW  Elec       q    Type
REMARK                         _______ _______ _______ _____ _____    ______ ____
ROOT
ATOM      1  N   UNL     1       9.433  -0.992  24.710  0.00  0.00    -0.273 N 
ATOM      2  C   UNL     1       9.489  -2.365  24.515  0.00  0.00    +0.331 A 
ATOM      3  O   UNL     1      10.265  -2.918  23.739  0.00  0.00    -0.246 OA
ATOM      4  N   UNL     1       8.611  -3.104  25.262  0.00  0.00    -0.274 N 
ATOM      5  H   UNL     1       8.677  -4.106  25.176  0.00  0.00    +0.173 HD
ATOM      6  C   UNL     1       7.744  -2.623  26.202  0.00  0.00    +0.261 A 
ATOM      7  O   UNL     1       7.087  -3.375  26.915  0.00  0.00    -0.267 OA
ATOM      8  C   UNL     1       7.648  -1.136  26.310  0.00  0.00    +0.056 A 
ATOM      9  C   UNL     1       8.505  -0.427  25.562  0.00  0.00    +0.106 A 
ENDROOT
BRANCH   1  11
ATOM     10  C2* UNL     1       9.965   0.051  22.505  0.00  0.00    +0.088 C 
ATOM     11  C1* UNL     1      10.378  -0.168  23.956  0.00  0.00    +0.226 C 
ATOM     12  O4* UNL     1      10.515   1.135  24.571  0.00  0.00    -0.348 OA
ATOM     13  C4* UNL     1      10.252   2.128  23.561  0.00  0.00    +0.175 C 
ATOM     14  C3* UNL     1       9.366   1.439  22.532  0.00  0.00    +0.150 C 
BRANCH  14  15
ATOM     15  O3* UNL     1       9.393   2.061  21.258  0.00  0.00    -0.389 OA
ATOM     16  H3* UNL     1       8.578   1.842  20.775  0.00  0.00    +0.210 HD
ENDBRANCH  14  15
BRANCH  13  17
ATOM     17  C5* UNL     1       9.641   3.385  24.180  0.00  0.00    +0.190 C 
BRANCH  17  18
ATOM     18  O5* UNL     1       9.244   4.326  23.183  0.00  0.00    -0.392 OA
ATOM     19  H5* UNL     1       9.797   4.135  22.405  0.00  0.00    +0.210 HD
ENDBRANCH  17  18
ENDBRANCH  13  17
ENDBRANCH   1  11
BRANCH   8  20
ATOM     20  C   UNL     1       6.745  -0.541  27.280  0.00  0.00    +0.022 C 
ATOM     21  C   UNL     1       6.835   0.698  27.778  0.00  0.00    +0.052 C 
ATOM     22 BR   UNL     1       5.671   1.386  29.051  0.00  0.00    -0.059 Br
ENDBRANCH   8  20
TORSDOF 5
ENDMDL
MODEL 9
REMARK VINA RESULT:      -5.5      2.428      3.957
REMARK  Name = 
REMARK  5 active torsions:
REMARK  status: ('A' for Active; 'I' for Inactive)
REMARK    1  A    between atoms: C3*_2  and  O3*_22
REMARK    2  A    between atoms: C4*_4  and  C5*_20
REMARK    3  A    between atoms: C1*_7  and  N_9
REMARK    4  A    between atoms: C_11  and  C_17
REMARK    5  A    between atoms: C5*_20  and  O5*_21
REMARK                            x       y       z     vdW  Elec       q    Type
REMARK                         _______ _______ _______ _____ _____    ______ ____
ROOT
ATOM      1  N   UNL     1       5.830  -5.170  23.938  0.00  0.00    -0.273 N 
ATOM      2  C   UNL     1       5.155  -5.741  22.868  0.00  0.00    +0.331 A 
ATOM      3  O   UNL     1       5.341  -5.430  21.694  0.00  0.00    -0.246 OA
ATOM      4  N   UNL     1       4.243  -6.709  23.192  0.00  0.00    -0.274 N 
ATOM      5  H   UNL     1       3.786  -7.175  22.424  0.00  0.00    +0.173 HD
ATOM      6  C   UNL     1       3.986  -7.191  24.445  0.00  0.00    +0.261 A 
ATOM      7  O   UNL     1       3.243  -8.151  24.625  0.00  0.00    -0.267 OA
ATOM      8  C   UNL     1       4.662  -6.484  25.574  0.00  0.00    +0.056 A 
ATOM      9  C   UNL     1       5.541  -5.528  25.240  0.00  0.00    +0.106 A 
ENDROOT
BRANCH   1  11
ATOM     10  C2* UNL     1       6.780  -2.947  24.561  0.00  0.00    +0.088 C 
ATOM     11  C1* UNL     1       6.838  -4.155  23.632  0.00  0.00    +0.226 C 
ATOM     12  O4* UNL     1       8.168  -4.717  23.730  0.00  0.00    -0.348 OA
ATOM     13  C4* UNL     1       8.930  -3.890  24.631  0.00  0.00    +0.175 C 
ATOM     14  C3* UNL     1       7.903  -3.219  25.535  0.00  0.00    +0.150 C 
BRANCH  14  15
ATOM     15  O3* UNL     1       8.383  -2.033  26.149  0.00  0.00    -0.389 OA
ATOM     16  H3* UNL     1       8.820  -2.259  26.987  0.00  0.00    +0.210 HD
ENDBRANCH  14  15
BRANCH  13  17
ATOM     17  C5* UNL     1       9.980  -4.717  25.372  0.00  0.00    +0.190 C 
BRANCH  17  18
ATOM     18  O5* UNL     1       9.816  -6.114  25.134  0.00  0.00    -0.392 OA
ATOM     19  H5* UNL     1       9.435  -6.479  25.953  0.00  0.00    +0.210 HD
ENDBRANCH  17  18
ENDBRANCH  13  17
ENDBRANCH   1  11
BRANCH   8  20
ATOM     20  C   UNL     1       4.437  -6.927  26.939  0.00  0.00    +0.022 C 
ATOM     21  C   UNL     1       3.774  -6.249  27.885  0.00  0.00    +0.052 C 
ATOM     22 BR   UNL     1       3.558  -6.853  29.627  0.00  0.00    -0.059 Br
ENDBRANCH   8  20
TORSDOF 5
ENDMDL
