MODEL 1
REMARK VINA RESULT:      -6.2      0.000      0.000
REMARK  Name = 
REMARK  11 active torsions:
REMARK  status: ('A' for Active; 'I' for Inactive)
REMARK    1  A    between atoms: C_2  and  C_26
REMARK    2  A    between atoms: C_4  and  C_18
REMARK    3  A    between atoms: C_6  and  N_14
REMARK    4  A    between atoms: C_8  and  N_10
REMARK    5  A    between atoms: C_15  and  O_17
REMARK    6  A    between atoms: C_18  and  C_20
REMARK    7  A    between atoms: C_18  and  O_25
REMARK    8  A    between atoms: C_20  and  C_22
REMARK    9  A    between atoms: C_20  and  O_24
REMARK   10  A    between atoms: C_22  and  O_23
REMARK   11  A    between atoms: C_26  and  O_28
REMARK                            x       y       z     vdW  Elec       q    Type
REMARK                         _______ _______ _______ _____ _____    ______ ____
ROOT
ATOM      1  C   UNL     1       7.077  -2.623  24.906  0.00  0.00    +0.071 C 
ATOM      2  C   UNL     1       7.547  -3.802  24.131  0.00  0.00    +0.239 C 
ATOM      3  C   UNL     1       7.584  -3.569  22.596  0.00  0.00    +0.164 C 
ATOM      4  C   UNL     1       7.565  -2.062  22.185  0.00  0.00    +0.229 C 
ATOM      5  O   UNL     1       6.719  -1.224  22.991  0.00  0.00    -0.477 OA
ATOM      6  C   UNL     1       6.696  -1.468  24.345  0.00  0.00    +0.204 C 
ENDROOT
BRANCH   2   7
ATOM      7  N   UNL     1       8.874  -4.144  24.631  0.00  0.00    -0.104 NA
ATOM      8  C   UNL     1       9.037  -5.034  25.534  0.00  0.00    +0.377 C 
ATOM      9  N   UNL     1      10.287  -5.347  25.929  0.00  0.00    -0.289 N 
ATOM     10  H   UNL     1      10.449  -5.794  26.818  0.00  0.00    +0.255 HD
ATOM     11  H   UNL     1      10.989  -4.671  25.647  0.00  0.00    +0.255 HD
ATOM     12  N   UNL     1       8.118  -5.789  26.176  0.00  0.00    -0.289 N 
ATOM     13  H   UNL     1       8.464  -6.691  26.477  0.00  0.00    +0.255 HD
ATOM     14  H   UNL     1       7.224  -5.875  25.717  0.00  0.00    +0.255 HD
ENDBRANCH   2   7
BRANCH   3  15
ATOM     15  N   UNL     1       6.489  -4.307  21.926  0.00  0.00    -0.271 N 
ATOM     16  H   UNL     1       5.585  -3.865  21.853  0.00  0.00    +0.153 HD
ATOM     17  C   UNL     1       6.585  -5.660  21.723  0.00  0.00    +0.398 C 
ATOM     18  O   UNL     1       7.548  -6.342  22.012  0.00  0.00    -0.227 OA
BRANCH  17  19
ATOM     19  O   UNL     1       5.476  -6.155  21.163  0.00  0.00    -0.466 OA
ATOM     20  H   UNL     1       5.111  -5.575  20.473  0.00  0.00    +0.297 HD
ENDBRANCH  17  19
ENDBRANCH   3  15
BRANCH   6  21
ATOM     21  C   UNL     1       6.153  -0.392  25.236  0.00  0.00    +0.372 C 
ATOM     22  O   UNL     1       4.981  -0.253  25.545  0.00  0.00    -0.242 OA
BRANCH  21  23
ATOM     23  O   UNL     1       7.133   0.445  25.640  0.00  0.00    -0.475 OA
ATOM     24  H   UNL     1       7.291   0.342  26.603  0.00  0.00    +0.296 HD
ENDBRANCH  21  23
ENDBRANCH   6  21
BRANCH   4  25
ATOM     25  C   UNL     1       8.986  -1.480  21.970  0.00  0.00    +0.187 C 
BRANCH  25  26
ATOM     26  O   UNL     1       9.990  -2.266  22.611  0.00  0.00    -0.385 OA
ATOM     27  H   UNL     1      10.776  -2.226  22.031  0.00  0.00    +0.210 HD
ENDBRANCH  25  26
BRANCH  25  28
ATOM     28  C   UNL     1       9.143  -0.005  22.400  0.00  0.00    +0.172 C 
BRANCH  28  29
ATOM     29  O   UNL     1       9.400   0.777  21.210  0.00  0.00    -0.387 OA
ATOM     30  H   UNL     1       9.861   1.587  21.499  0.00  0.00    +0.210 HD
ENDBRANCH  28  29
BRANCH  28  31
ATOM     31  C   UNL     1      10.299   0.272  23.366  0.00  0.00    +0.189 C 
BRANCH  31  32
ATOM     32  O   UNL     1       9.949  -0.209  24.672  0.00  0.00    -0.392 OA
ATOM     33  H   UNL     1      10.558  -0.951  24.838  0.00  0.00    +0.210 HD
ENDBRANCH  31  32
ENDBRANCH  28  31
ENDBRANCH  25  28
ENDBRANCH   4  25
TORSDOF 11
ENDMDL
MODEL 2
REMARK VINA RESULT:      -6.1      4.144      6.562
REMARK  Name = 
REMARK  11 active torsions:
REMARK  status: ('A' for Active; 'I' for Inactive)
REMARK    1  A    between atoms: C_2  and  C_26
REMARK    2  A    between atoms: C_4  and  C_18
REMARK    3  A    between atoms: C_6  and  N_14
REMARK    4  A    between atoms: C_8  and  N_10
REMARK    5  A    between atoms: C_15  and  O_17
REMARK    6  A    between atoms: C_18  and  C_20
REMARK    7  A    between atoms: C_18  and  O_25
REMARK    8  A    between atoms: C_20  and  C_22
REMARK    9  A    between atoms: C_20  and  O_24
REMARK   10  A    between atoms: C_22  and  O_23
REMARK   11  A    between atoms: C_26  and  O_28
REMARK                            x       y       z     vdW  Elec       q    Type
REMARK                         _______ _______ _______ _____ _____    ______ ____
ROOT
ATOM      1  C   UNL     1      10.953   2.449  23.390  0.00  0.00    +0.071 C 
ATOM      2  C   UNL     1      10.083   1.278  23.683  0.00  0.00    +0.239 C 
ATOM      3  C   UNL     1       8.711   1.658  24.303  0.00  0.00    +0.164 C 
ATOM      4  C   UNL     1       8.314   3.153  24.093  0.00  0.00    +0.229 C 
ATOM      5  O   UNL     1       9.401   4.090  24.196  0.00  0.00    -0.477 OA
ATOM      6  C   UNL     1      10.607   3.716  23.651  0.00  0.00    +0.204 C 
ENDROOT
BRANCH   2   7
ATOM      7  N   UNL     1       9.898   0.555  22.429  0.00  0.00    -0.104 NA
ATOM      8  C   UNL     1       9.916  -0.722  22.388  0.00  0.00    +0.377 C 
ATOM      9  N   UNL     1       9.694  -1.345  21.214  0.00  0.00    -0.289 N 
ATOM     10  H   UNL     1       9.994  -2.296  21.071  0.00  0.00    +0.255 HD
ATOM     11  H   UNL     1       9.771  -0.736  20.405  0.00  0.00    +0.255 HD
ATOM     12  N   UNL     1      10.095  -1.614  23.388  0.00  0.00    -0.289 N 
ATOM     13  H   UNL     1       9.633  -2.502  23.235  0.00  0.00    +0.255 HD
ATOM     14  H   UNL     1       9.925  -1.268  24.320  0.00  0.00    +0.255 HD
ENDBRANCH   2   7
BRANCH   3  15
ATOM     15  N   UNL     1       8.668   1.303  25.741  0.00  0.00    -0.271 N 
ATOM     16  H   UNL     1       9.164   1.887  26.396  0.00  0.00    +0.153 HD
ATOM     17  C   UNL     1       8.272   0.050  26.135  0.00  0.00    +0.398 C 
ATOM     18  O   UNL     1       7.890  -0.829  25.389  0.00  0.00    -0.227 OA
BRANCH  17  19
ATOM     19  O   UNL     1       8.359  -0.099  27.462  0.00  0.00    -0.466 OA
ATOM     20  H   UNL     1       7.496  -0.035  27.906  0.00  0.00    +0.297 HD
ENDBRANCH  17  19
ENDBRANCH   3  15
BRANCH   6  21
ATOM     21  C   UNL     1      11.617   4.793  23.393  0.00  0.00    +0.372 C 
ATOM     22  O   UNL     1      12.829   4.648  23.417  0.00  0.00    -0.242 OA
BRANCH  21  23
ATOM     23  O   UNL     1      11.015   5.978  23.158  0.00  0.00    -0.475 OA
ATOM     24  H   UNL     1      11.660   6.712  23.256  0.00  0.00    +0.296 HD
ENDBRANCH  21  23
ENDBRANCH   6  21
BRANCH   4  25
ATOM     25  C   UNL     1       7.429   3.370  22.839  0.00  0.00    +0.187 C 
BRANCH  25  26
ATOM     26  O   UNL     1       8.178   3.263  21.630  0.00  0.00    -0.385 OA
ATOM     27  H   UNL     1       9.080   3.575  21.843  0.00  0.00    +0.210 HD
ENDBRANCH  25  26
BRANCH  25  28
ATOM     28  C   UNL     1       6.643   4.700  22.835  0.00  0.00    +0.172 C 
BRANCH  28  29
ATOM     29  O   UNL     1       5.292   4.414  22.402  0.00  0.00    -0.387 OA
ATOM     30  H   UNL     1       5.334   4.245  21.442  0.00  0.00    +0.210 HD
ENDBRANCH  28  29
BRANCH  28  31
ATOM     31  C   UNL     1       7.189   5.775  21.889  0.00  0.00    +0.189 C 
BRANCH  31  32
ATOM     32  O   UNL     1       8.441   6.259  22.398  0.00  0.00    -0.392 OA
ATOM     33  H   UNL     1       8.557   5.803  23.251  0.00  0.00    +0.210 HD
ENDBRANCH  31  32
ENDBRANCH  28  31
ENDBRANCH  25  28
ENDBRANCH   4  25
TORSDOF 11
ENDMDL
MODEL 3
REMARK VINA RESULT:      -6.1      2.623      5.565
REMARK  Name = 
REMARK  11 active torsions:
REMARK  status: ('A' for Active; 'I' for Inactive)
REMARK    1  A    between atoms: C_2  and  C_26
REMARK    2  A    between atoms: C_4  and  C_18
REMARK    3  A    between atoms: C_6  and  N_14
REMARK    4  A    between atoms: C_8  and  N_10
REMARK    5  A    between atoms: C_15  and  O_17
REMARK    6  A    between atoms: C_18  and  C_20
REMARK    7  A    between atoms: C_18  and  O_25
REMARK    8  A    between atoms: C_20  and  C_22
REMARK    9  A    between atoms: C_20  and  O_24
REMARK   10  A    between atoms: C_22  and  O_23
REMARK   11  A    between atoms: C_26  and  O_28
REMARK                            x       y       z     vdW  Elec       q    Type
REMARK                         _______ _______ _______ _____ _____    ______ ____
ROOT
ATOM      1  C   UNL     1       6.882  -3.590  22.264  0.00  0.00    +0.071 C 
ATOM      2  C   UNL     1       7.379  -2.264  22.720  0.00  0.00    +0.239 C 
ATOM      3  C   UNL     1       6.940  -1.892  24.162  0.00  0.00    +0.164 C 
ATOM      4  C   UNL     1       6.465  -3.112  25.013  0.00  0.00    +0.229 C 
ATOM      5  O   UNL     1       5.703  -4.095  24.290  0.00  0.00    -0.477 OA
ATOM      6  C   UNL     1       6.109  -4.390  23.009  0.00  0.00    +0.204 C 
ENDROOT
BRANCH   2   7
ATOM      7  N   UNL     1       8.834  -2.292  22.617  0.00  0.00    -0.104 NA
ATOM      8  C   UNL     1       9.485  -1.315  22.112  0.00  0.00    +0.377 C 
ATOM      9  N   UNL     1      10.831  -1.368  22.082  0.00  0.00    -0.289 N 
ATOM     10  H   UNL     1      11.355  -0.793  21.441  0.00  0.00    +0.255 HD
ATOM     11  H   UNL     1      11.210  -2.296  22.245  0.00  0.00    +0.255 HD
ATOM     12  N   UNL     1       9.031  -0.148  21.603  0.00  0.00    -0.289 N 
ATOM     13  H   UNL     1       9.683   0.622  21.691  0.00  0.00    +0.255 HD
ATOM     14  H   UNL     1       8.104   0.124  21.891  0.00  0.00    +0.255 HD
ENDBRANCH   2   7
BRANCH   3  15
ATOM     15  N   UNL     1       5.902  -0.836  24.139  0.00  0.00    -0.271 N 
ATOM     16  H   UNL     1       4.957  -1.094  23.900  0.00  0.00    +0.153 HD
ATOM     17  C   UNL     1       6.259   0.488  24.098  0.00  0.00    +0.398 C 
ATOM     18  O   UNL     1       7.400   0.904  24.126  0.00  0.00    -0.227 OA
BRANCH  17  19
ATOM     19  O   UNL     1       5.188   1.286  24.020  0.00  0.00    -0.466 OA
ATOM     20  H   UNL     1       4.665   1.297  24.839  0.00  0.00    +0.297 HD
ENDBRANCH  17  19
ENDBRANCH   3  15
BRANCH   6  21
ATOM     21  C   UNL     1       5.599  -5.657  22.393  0.00  0.00    +0.372 C 
ATOM     22  O   UNL     1       5.624  -5.926  21.202  0.00  0.00    -0.242 OA
BRANCH  21  23
ATOM     23  O   UNL     1       5.067  -6.473  23.328  0.00  0.00    -0.475 OA
ATOM     24  H   UNL     1       4.503  -5.959  23.946  0.00  0.00    +0.296 HD
ENDBRANCH  21  23
ENDBRANCH   6  21
BRANCH   4  25
ATOM     25  C   UNL     1       7.599  -3.722  25.875  0.00  0.00    +0.187 C 
BRANCH  25  26
ATOM     26  O   UNL     1       8.818  -2.990  25.753  0.00  0.00    -0.385 OA
ATOM     27  H   UNL     1       8.574  -2.046  25.828  0.00  0.00    +0.210 HD
ENDBRANCH  25  26
BRANCH  25  28
ATOM     28  C   UNL     1       7.875  -5.218  25.602  0.00  0.00    +0.172 C 
BRANCH  28  29
ATOM     29  O   UNL     1       8.026  -5.879  26.881  0.00  0.00    -0.387 OA
ATOM     30  H   UNL     1       8.416  -5.226  27.492  0.00  0.00    +0.210 HD
ENDBRANCH  28  29
BRANCH  28  31
ATOM     31  C   UNL     1       9.149  -5.509  24.804  0.00  0.00    +0.189 C 
BRANCH  31  32
ATOM     32  O   UNL     1      10.264  -5.575  25.706  0.00  0.00    -0.392 OA
ATOM     33  H   UNL     1      10.901  -6.174  25.274  0.00  0.00    +0.210 HD
ENDBRANCH  31  32
ENDBRANCH  28  31
ENDBRANCH  25  28
ENDBRANCH   4  25
TORSDOF 11
ENDMDL
MODEL 4
REMARK VINA RESULT:      -5.9      2.659      5.657
REMARK  Name = 
REMARK  11 active torsions:
REMARK  status: ('A' for Active; 'I' for Inactive)
REMARK    1  A    between atoms: C_2  and  C_26
REMARK    2  A    between atoms: C_4  and  C_18
REMARK    3  A    between atoms: C_6  and  N_14
REMARK    4  A    between atoms: C_8  and  N_10
REMARK    5  A    between atoms: C_15  and  O_17
REMARK    6  A    between atoms: C_18  and  C_20
REMARK    7  A    between atoms: C_18  and  O_25
REMARK    8  A    between atoms: C_20  and  C_22
REMARK    9  A    between atoms: C_20  and  O_24
REMARK   10  A    between atoms: C_22  and  O_23
REMARK   11  A    between atoms: C_26  and  O_28
REMARK                            x       y       z     vdW  Elec       q    Type
REMARK                         _______ _______ _______ _____ _____    ______ ____
ROOT
ATOM      1  C   UNL     1       7.584  -2.767  22.426  0.00  0.00    +0.071 C 
ATOM      2  C   UNL     1       7.699  -1.527  23.239  0.00  0.00    +0.239 C 
ATOM      3  C   UNL     1       6.906  -1.577  24.574  0.00  0.00    +0.164 C 
ATOM      4  C   UNL     1       6.521  -3.022  25.026  0.00  0.00    +0.229 C 
ATOM      5  O   UNL     1       6.139  -3.910  23.961  0.00  0.00    -0.477 OA
ATOM      6  C   UNL     1       6.851  -3.828  22.787  0.00  0.00    +0.204 C 
ENDROOT
BRANCH   2   7
ATOM      7  N   UNL     1       9.119  -1.310  23.494  0.00  0.00    -0.104 NA
ATOM      8  C   UNL     1       9.621  -0.135  23.506  0.00  0.00    +0.377 C 
ATOM      9  N   UNL     1      10.929   0.017  23.793  0.00  0.00    -0.289 N 
ATOM     10  H   UNL     1      11.422   0.853  23.520  0.00  0.00    +0.255 HD
ATOM     11  H   UNL     1      11.465  -0.843  23.736  0.00  0.00    +0.255 HD
ATOM     12  N   UNL     1       9.023   1.061  23.305  0.00  0.00    -0.289 N 
ATOM     13  H   UNL     1       9.465   1.829  23.793  0.00  0.00    +0.255 HD
ATOM     14  H   UNL     1       8.022   1.076  23.428  0.00  0.00    +0.255 HD
ENDBRANCH   2   7
BRANCH   3  15
ATOM     15  N   UNL     1       5.704  -0.715  24.503  0.00  0.00    -0.271 N 
ATOM     16  H   UNL     1       4.916  -1.030  23.959  0.00  0.00    +0.153 HD
ATOM     17  C   UNL     1       5.775   0.607  24.864  0.00  0.00    +0.398 C 
ATOM     18  O   UNL     1       6.765   1.158  25.301  0.00  0.00    -0.227 OA
BRANCH  17  19
ATOM     19  O   UNL     1       4.609   1.234  24.674  0.00  0.00    -0.466 OA
ATOM     20  H   UNL     1       3.911   0.641  24.348  0.00  0.00    +0.297 HD
ENDBRANCH  17  19
ENDBRANCH   3  15
BRANCH   6  21
ATOM     21  C   UNL     1       6.745  -4.976  21.830  0.00  0.00    +0.372 C 
ATOM     22  O   UNL     1       7.391  -6.010  21.889  0.00  0.00    -0.242 OA
BRANCH  21  23
ATOM     23  O   UNL     1       5.855  -4.711  20.850  0.00  0.00    -0.475 OA
ATOM     24  H   UNL     1       5.297  -5.501  20.676  0.00  0.00    +0.296 HD
ENDBRANCH  21  23
ENDBRANCH   6  21
BRANCH   4  25
ATOM     25  C   UNL     1       7.552  -3.640  26.005  0.00  0.00    +0.187 C 
BRANCH  25  26
ATOM     26  O   UNL     1       8.765  -2.890  26.049  0.00  0.00    -0.385 OA
ATOM     27  H   UNL     1       8.630  -2.198  26.726  0.00  0.00    +0.210 HD
ENDBRANCH  25  26
BRANCH  25  28
ATOM     28  C   UNL     1       7.881  -5.124  25.732  0.00  0.00    +0.172 C 
BRANCH  28  29
ATOM     29  O   UNL     1       8.009  -5.791  27.011  0.00  0.00    -0.387 OA
ATOM     30  H   UNL     1       7.910  -6.746  26.841  0.00  0.00    +0.210 HD
ENDBRANCH  28  29
BRANCH  28  31
ATOM     31  C   UNL     1       9.190  -5.372  24.975  0.00  0.00    +0.189 C 
BRANCH  31  32
ATOM     32  O   UNL     1      10.269  -5.460  25.918  0.00  0.00    -0.392 OA
ATOM     33  H   UNL     1      10.161  -6.331  26.342  0.00  0.00    +0.210 HD
ENDBRANCH  31  32
ENDBRANCH  28  31
ENDBRANCH  25  28
ENDBRANCH   4  25
TORSDOF 11
ENDMDL
MODEL 5
REMARK VINA RESULT:      -5.7      1.996      4.270
REMARK  Name = 
REMARK  11 active torsions:
REMARK  status: ('A' for Active; 'I' for Inactive)
REMARK    1  A    between atoms: C_2  and  C_26
REMARK    2  A    between atoms: C_4  and  C_18
REMARK    3  A    between atoms: C_6  and  N_14
REMARK    4  A    between atoms: C_8  and  N_10
REMARK    5  A    between atoms: C_15  and  O_17
REMARK    6  A    between atoms: C_18  and  C_20
REMARK    7  A    between atoms: C_18  and  O_25
REMARK    8  A    between atoms: C_20  and  C_22
REMARK    9  A    between atoms: C_20  and  O_24
REMARK   10  A    between atoms: C_22  and  O_23
REMARK   11  A    between atoms: C_26  and  O_28
REMARK                            x       y       z     vdW  Elec       q    Type
REMARK                         _______ _______ _______ _____ _____    ______ ____
ROOT
ATOM      1  C   UNL     1       9.264  -2.226  23.436  0.00  0.00    +0.071 C 
ATOM      2  C   UNL     1       8.365  -3.368  23.752  0.00  0.00    +0.239 C 
ATOM      3  C   UNL     1       7.457  -3.126  24.989  0.00  0.00    +0.164 C 
ATOM      4  C   UNL     1       7.319  -1.623  25.388  0.00  0.00    +0.229 C 
ATOM      5  O   UNL     1       8.522  -0.846  25.252  0.00  0.00    -0.477 OA
ATOM      6  C   UNL     1       9.312  -1.097  24.154  0.00  0.00    +0.204 C 
ENDROOT
BRANCH   2   7
ATOM      7  N   UNL     1       7.558  -3.622  22.564  0.00  0.00    -0.104 NA
ATOM      8  C   UNL     1       7.221  -4.808  22.228  0.00  0.00    +0.377 C 
ATOM      9  N   UNL     1       6.435  -4.988  21.149  0.00  0.00    -0.289 N 
ATOM     10  H   UNL     1       6.401  -5.879  20.679  0.00  0.00    +0.255 HD
ATOM     11  H   UNL     1       6.375  -4.174  20.545  0.00  0.00    +0.255 HD
ATOM     12  N   UNL     1       7.504  -5.987  22.827  0.00  0.00    -0.289 N 
ATOM     13  H   UNL     1       6.801  -6.701  22.685  0.00  0.00    +0.255 HD
ATOM     14  H   UNL     1       7.778  -5.931  23.796  0.00  0.00    +0.255 HD
ENDBRANCH   2   7
BRANCH   3  15
ATOM     15  N   UNL     1       7.916  -3.933  26.143  0.00  0.00    -0.271 N 
ATOM     16  H   UNL     1       8.784  -3.682  26.592  0.00  0.00    +0.153 HD
ATOM     17  C   UNL     1       7.380  -5.173  26.380  0.00  0.00    +0.398 C 
ATOM     18  O   UNL     1       6.489  -5.685  25.732  0.00  0.00    -0.227 OA
BRANCH  17  19
ATOM     19  O   UNL     1       7.964  -5.771  27.426  0.00  0.00    -0.466 OA
ATOM     20  H   UNL     1       8.498  -6.542  27.170  0.00  0.00    +0.297 HD
ENDBRANCH  17  19
ENDBRANCH   3  15
BRANCH   6  21
ATOM     21  C   UNL     1      10.331  -0.063  23.782  0.00  0.00    +0.372 C 
ATOM     22  O   UNL     1      11.185   0.391  24.527  0.00  0.00    -0.242 OA
BRANCH  21  23
ATOM     23  O   UNL     1      10.169   0.341  22.503  0.00  0.00    -0.475 OA
ATOM     24  H   UNL     1      10.990   0.177  21.989  0.00  0.00    +0.296 HD
ENDBRANCH  21  23
ENDBRANCH   6  21
BRANCH   4  25
ATOM     25  C   UNL     1       6.073  -0.946  24.761  0.00  0.00    +0.187 C 
BRANCH  25  26
ATOM     26  O   UNL     1       6.056  -1.069  23.340  0.00  0.00    -0.385 OA
ATOM     27  H   UNL     1       5.798  -1.993  23.152  0.00  0.00    +0.210 HD
ENDBRANCH  25  26
BRANCH  25  28
ATOM     28  C   UNL     1       5.892   0.539  25.146  0.00  0.00    +0.172 C 
BRANCH  28  29
ATOM     29  O   UNL     1       4.555   0.697  25.678  0.00  0.00    -0.387 OA
ATOM     30  H   UNL     1       4.586   1.449  26.299  0.00  0.00    +0.210 HD
ENDBRANCH  28  29
BRANCH  28  31
ATOM     31  C   UNL     1       6.024   1.532  23.987  0.00  0.00    +0.189 C 
BRANCH  31  32
ATOM     32  O   UNL     1       7.383   1.541  23.526  0.00  0.00    -0.392 OA
ATOM     33  H   UNL     1       7.523   0.656  23.142  0.00  0.00    +0.210 HD
ENDBRANCH  31  32
ENDBRANCH  28  31
ENDBRANCH  25  28
ENDBRANCH   4  25
TORSDOF 11
ENDMDL
MODEL 6
REMARK VINA RESULT:      -5.7      2.597      4.360
REMARK  Name = 
REMARK  11 active torsions:
REMARK  status: ('A' for Active; 'I' for Inactive)
REMARK    1  A    between atoms: C_2  and  C_26
REMARK    2  A    between atoms: C_4  and  C_18
REMARK    3  A    between atoms: C_6  and  N_14
REMARK    4  A    between atoms: C_8  and  N_10
REMARK    5  A    between atoms: C_15  and  O_17
REMARK    6  A    between atoms: C_18  and  C_20
REMARK    7  A    between atoms: C_18  and  O_25
REMARK    8  A    between atoms: C_20  and  C_22
REMARK    9  A    between atoms: C_20  and  O_24
REMARK   10  A    between atoms: C_22  and  O_23
REMARK   11  A    between atoms: C_26  and  O_28
REMARK                            x       y       z     vdW  Elec       q    Type
REMARK                         _______ _______ _______ _____ _____    ______ ____
ROOT
ATOM      1  C   UNL     1       7.000  -4.427  24.620  0.00  0.00    +0.071 C 
ATOM      2  C   UNL     1       6.367  -3.555  23.595  0.00  0.00    +0.239 C 
ATOM      3  C   UNL     1       6.937  -2.110  23.562  0.00  0.00    +0.164 C 
ATOM      4  C   UNL     1       8.327  -1.964  24.259  0.00  0.00    +0.229 C 
ATOM      5  O   UNL     1       8.490  -2.744  25.457  0.00  0.00    -0.477 OA
ATOM      6  C   UNL     1       7.959  -4.013  25.458  0.00  0.00    +0.204 C 
ENDROOT
BRANCH   2   7
ATOM      7  N   UNL     1       6.548  -4.208  22.303  0.00  0.00    -0.104 NA
ATOM      8  C   UNL     1       5.851  -5.225  21.967  0.00  0.00    +0.377 C 
ATOM      9  N   UNL     1       6.023  -5.765  20.745  0.00  0.00    -0.289 N 
ATOM     10  H   UNL     1       5.738  -6.713  20.555  0.00  0.00    +0.255 HD
ATOM     11  H   UNL     1       6.872  -5.463  20.278  0.00  0.00    +0.255 HD
ATOM     12  N   UNL     1       4.885  -5.873  22.656  0.00  0.00    -0.289 N 
ATOM     13  H   UNL     1       4.187  -6.314  22.070  0.00  0.00    +0.255 HD
ATOM     14  H   UNL     1       4.457  -5.352  23.406  0.00  0.00    +0.255 HD
ENDBRANCH   2   7
BRANCH   3  15
ATOM     15  N   UNL     1       5.964  -1.148  24.129  0.00  0.00    -0.271 N 
ATOM     16  H   UNL     1       5.076  -1.497  24.455  0.00  0.00    +0.153 HD
ATOM     17  C   UNL     1       6.108   0.197  23.905  0.00  0.00    +0.398 C 
ATOM     18  O   UNL     1       7.025   0.710  23.296  0.00  0.00    -0.227 OA
BRANCH  17  19
ATOM     19  O   UNL     1       5.101   0.897  24.443  0.00  0.00    -0.466 OA
ATOM     20  H   UNL     1       4.772   0.508  25.271  0.00  0.00    +0.297 HD
ENDBRANCH  17  19
ENDBRANCH   3  15
BRANCH   6  21
ATOM     21  C   UNL     1       8.443  -4.968  26.507  0.00  0.00    +0.372 C 
ATOM     22  O   UNL     1       7.744  -5.511  27.347  0.00  0.00    -0.242 OA
BRANCH  21  23
ATOM     23  O   UNL     1       9.781  -5.134  26.432  0.00  0.00    -0.475 OA
ATOM     24  H   UNL     1      10.112  -4.833  25.558  0.00  0.00    +0.296 HD
ENDBRANCH  21  23
ENDBRANCH   6  21
BRANCH   4  25
ATOM     25  C   UNL     1       9.513  -2.095  23.270  0.00  0.00    +0.187 C 
BRANCH  25  26
ATOM     26  O   UNL     1      10.523  -2.977  23.759  0.00  0.00    -0.385 OA
ATOM     27  H   UNL     1      10.770  -3.548  23.004  0.00  0.00    +0.210 HD
ENDBRANCH  25  26
BRANCH  25  28
ATOM     28  C   UNL     1      10.162  -0.752  22.870  0.00  0.00    +0.172 C 
BRANCH  28  29
ATOM     29  O   UNL     1       9.796   0.230  23.870  0.00  0.00    -0.387 OA
ATOM     30  H   UNL     1       9.813   1.100  23.429  0.00  0.00    +0.210 HD
ENDBRANCH  28  29
BRANCH  28  31
ATOM     31  C   UNL     1       9.712  -0.189  21.518  0.00  0.00    +0.189 C 
BRANCH  31  32
ATOM     32  O   UNL     1       9.619   1.240  21.610  0.00  0.00    -0.392 OA
ATOM     33  H   UNL     1      10.402   1.510  22.124  0.00  0.00    +0.210 HD
ENDBRANCH  31  32
ENDBRANCH  28  31
ENDBRANCH  25  28
ENDBRANCH   4  25
TORSDOF 11
ENDMDL
MODEL 7
REMARK VINA RESULT:      -5.6      2.135      4.449
REMARK  Name = 
REMARK  11 active torsions:
REMARK  status: ('A' for Active; 'I' for Inactive)
REMARK    1  A    between atoms: C_2  and  C_26
REMARK    2  A    between atoms: C_4  and  C_18
REMARK    3  A    between atoms: C_6  and  N_14
REMARK    4  A    between atoms: C_8  and  N_10
REMARK    5  A    between atoms: C_15  and  O_17
REMARK    6  A    between atoms: C_18  and  C_20
REMARK    7  A    between atoms: C_18  and  O_25
REMARK    8  A    between atoms: C_20  and  C_22
REMARK    9  A    between atoms: C_20  and  O_24
REMARK   10  A    between atoms: C_22  and  O_23
REMARK   11  A    between atoms: C_26  and  O_28
REMARK                            x       y       z     vdW  Elec       q    Type
REMARK                         _______ _______ _______ _____ _____    ______ ____
ROOT
ATOM      1  C   UNL     1       8.489  -1.157  22.193  0.00  0.00    +0.071 C 
ATOM      2  C   UNL     1       8.118  -2.406  22.910  0.00  0.00    +0.239 C 
ATOM      3  C   UNL     1       8.574  -2.435  24.395  0.00  0.00    +0.164 C 
ATOM      4  C   UNL     1       8.917  -1.028  24.978  0.00  0.00    +0.229 C 
ATOM      5  O   UNL     1       9.588  -0.141  24.066  0.00  0.00    -0.477 OA
ATOM      6  C   UNL     1       9.171  -0.152  22.755  0.00  0.00    +0.204 C 
ENDROOT
BRANCH   2   7
ATOM      7  N   UNL     1       6.668  -2.543  22.815  0.00  0.00    -0.104 NA
ATOM      8  C   UNL     1       6.105  -3.690  22.819  0.00  0.00    +0.377 C 
ATOM      9  N   UNL     1       4.761  -3.762  22.776  0.00  0.00    -0.289 N 
ATOM     10  H   UNL     1       4.299  -4.606  22.474  0.00  0.00    +0.255 HD
ATOM     11  H   UNL     1       4.311  -2.896  22.498  0.00  0.00    +0.255 HD
ATOM     12  N   UNL     1       6.658  -4.921  22.900  0.00  0.00    -0.289 N 
ATOM     13  H   UNL     1       6.061  -5.613  23.335  0.00  0.00    +0.255 HD
ATOM     14  H   UNL     1       7.594  -4.958  23.274  0.00  0.00    +0.255 HD
ENDBRANCH   2   7
BRANCH   3  15
ATOM     15  N   UNL     1       9.710  -3.367  24.578  0.00  0.00    -0.271 N 
ATOM     16  H   UNL     1      10.577  -3.169  24.102  0.00  0.00    +0.153 HD
ATOM     17  C   UNL     1       9.501  -4.626  25.081  0.00  0.00    +0.398 C 
ATOM     18  O   UNL     1       8.430  -5.060  25.453  0.00  0.00    -0.227 OA
BRANCH  17  19
ATOM     19  O   UNL     1      10.634  -5.338  25.113  0.00  0.00    -0.466 OA
ATOM     20  H   UNL     1      10.476  -6.297  25.152  0.00  0.00    +0.297 HD
ENDBRANCH  17  19
ENDBRANCH   3  15
BRANCH   6  21
ATOM     21  C   UNL     1       9.562   1.009  21.892  0.00  0.00    +0.372 C 
ATOM     22  O   UNL     1      10.454   1.806  22.137  0.00  0.00    -0.242 OA
BRANCH  21  23
ATOM     23  O   UNL     1       8.771   1.092  20.801  0.00  0.00    -0.475 OA
ATOM     24  H   UNL     1       9.044   0.427  20.132  0.00  0.00    +0.296 HD
ENDBRANCH  21  23
ENDBRANCH   6  21
BRANCH   4  25
ATOM     25  C   UNL     1       7.718  -0.371  25.709  0.00  0.00    +0.187 C 
BRANCH  25  26
ATOM     26  O   UNL     1       6.502  -1.084  25.491  0.00  0.00    -0.385 OA
ATOM     27  H   UNL     1       6.763  -1.970  25.168  0.00  0.00    +0.210 HD
ENDBRANCH  25  26
BRANCH  25  28
ATOM     28  C   UNL     1       7.501   1.120  25.366  0.00  0.00    +0.172 C 
BRANCH  28  29
ATOM     29  O   UNL     1       7.715   1.887  26.575  0.00  0.00    -0.387 OA
ATOM     30  H   UNL     1       7.929   1.247  27.279  0.00  0.00    +0.210 HD
ENDBRANCH  28  29
BRANCH  28  31
ATOM     31  C   UNL     1       6.098   1.475  24.864  0.00  0.00    +0.189 C 
BRANCH  31  32
ATOM     32  O   UNL     1       5.913   0.923  23.552  0.00  0.00    -0.392 OA
ATOM     33  H   UNL     1       6.663   1.260  23.030  0.00  0.00    +0.210 HD
ENDBRANCH  31  32
ENDBRANCH  28  31
ENDBRANCH  25  28
ENDBRANCH   4  25
TORSDOF 11
ENDMDL
MODEL 8
REMARK VINA RESULT:      -5.6      2.988      5.782
REMARK  Name = 
REMARK  11 active torsions:
REMARK  status: ('A' for Active; 'I' for Inactive)
REMARK    1  A    between atoms: C_2  and  C_26
REMARK    2  A    between atoms: C_4  and  C_18
REMARK    3  A    between atoms: C_6  and  N_14
REMARK    4  A    between atoms: C_8  and  N_10
REMARK    5  A    between atoms: C_15  and  O_17
REMARK    6  A    between atoms: C_18  and  C_20
REMARK    7  A    between atoms: C_18  and  O_25
REMARK    8  A    between atoms: C_20  and  C_22
REMARK    9  A    between atoms: C_20  and  O_24
REMARK   10  A    between atoms: C_22  and  O_23
REMARK   11  A    between atoms: C_26  and  O_28
REMARK                            x       y       z     vdW  Elec       q    Type
REMARK                         _______ _______ _______ _____ _____    ______ ____
ROOT
ATOM      1  C   UNL     1       8.342  -1.839  25.146  0.00  0.00    +0.071 C 
ATOM      2  C   UNL     1       7.849  -0.615  24.460  0.00  0.00    +0.239 C 
ATOM      3  C   UNL     1       7.774  -0.751  22.914  0.00  0.00    +0.164 C 
ATOM      4  C   UNL     1       7.787  -2.228  22.409  0.00  0.00    +0.229 C 
ATOM      5  O   UNL     1       8.655  -3.112  23.138  0.00  0.00    -0.477 OA
ATOM      6  C   UNL     1       8.711  -2.954  24.504  0.00  0.00    +0.204 C 
ENDROOT
BRANCH   2   7
ATOM      7  N   UNL     1       6.534  -0.311  25.014  0.00  0.00    -0.104 NA
ATOM      8  C   UNL     1       6.133   0.894  25.158  0.00  0.00    +0.377 C 
ATOM      9  N   UNL     1       4.892   1.121  25.630  0.00  0.00    -0.289 N 
ATOM     10  H   UNL     1       4.652   2.010  26.040  0.00  0.00    +0.255 HD
ATOM     11  H   UNL     1       4.462   0.311  26.064  0.00  0.00    +0.255 HD
ATOM     12  N   UNL     1       6.765   2.052  24.866  0.00  0.00    -0.289 N 
ATOM     13  H   UNL     1       6.141   2.813  24.627  0.00  0.00    +0.255 HD
ATOM     14  H   UNL     1       7.527   1.983  24.209  0.00  0.00    +0.255 HD
ENDBRANCH   2   7
BRANCH   3  15
ATOM     15  N   UNL     1       8.850   0.033  22.266  0.00  0.00    -0.271 N 
ATOM     16  H   UNL     1       9.805  -0.270  22.383  0.00  0.00    +0.153 HD
ATOM     17  C   UNL     1       8.608   1.307  21.818  0.00  0.00    +0.398 C 
ATOM     18  O   UNL     1       7.533   1.870  21.862  0.00  0.00    -0.227 OA
BRANCH  17  19
ATOM     19  O   UNL     1       9.714   1.873  21.320  0.00  0.00    -0.466 OA
ATOM     20  H   UNL     1       9.873   2.765  21.673  0.00  0.00    +0.297 HD
ENDBRANCH  17  19
ENDBRANCH   3  15
BRANCH   6  21
ATOM     21  C   UNL     1       9.280  -4.081  25.311  0.00  0.00    +0.372 C 
ATOM     22  O   UNL     1       9.971  -4.988  24.874  0.00  0.00    -0.242 OA
BRANCH  21  23
ATOM     23  O   UNL     1       8.901  -3.994  26.604  0.00  0.00    -0.475 OA
ATOM     24  H   UNL     1       8.135  -4.585  26.774  0.00  0.00    +0.296 HD
ENDBRANCH  21  23
ENDBRANCH   6  21
BRANCH   4  25
ATOM     25  C   UNL     1       6.363  -2.802  22.192  0.00  0.00    +0.187 C 
BRANCH  25  26
ATOM     26  O   UNL     1       5.438  -2.323  23.168  0.00  0.00    -0.385 OA
ATOM     27  H   UNL     1       5.443  -2.982  23.891  0.00  0.00    +0.210 HD
ENDBRANCH  25  26
BRANCH  25  28
ATOM     28  C   UNL     1       6.297  -4.344  22.143  0.00  0.00    +0.172 C 
BRANCH  28  29
ATOM     29  O   UNL     1       5.824  -4.725  20.829  0.00  0.00    -0.387 OA
ATOM     30  H   UNL     1       4.947  -4.314  20.716  0.00  0.00    +0.210 HD
ENDBRANCH  28  29
BRANCH  28  31
ATOM     31  C   UNL     1       5.344  -4.988  23.155  0.00  0.00    +0.189 C 
BRANCH  31  32
ATOM     32  O   UNL     1       3.991  -4.786  22.721  0.00  0.00    -0.392 OA
ATOM     33  H   UNL     1       4.035  -4.034  22.102  0.00  0.00    +0.210 HD
ENDBRANCH  31  32
ENDBRANCH  28  31
ENDBRANCH  25  28
ENDBRANCH   4  25
TORSDOF 11
ENDMDL
MODEL 9
REMARK VINA RESULT:      -5.4      3.452      5.166
REMARK  Name = 
REMARK  11 active torsions:
REMARK  status: ('A' for Active; 'I' for Inactive)
REMARK    1  A    between atoms: C_2  and  C_26
REMARK    2  A    between atoms: C_4  and  C_18
REMARK    3  A    between atoms: C_6  and  N_14
REMARK    4  A    between atoms: C_8  and  N_10
REMARK    5  A    between atoms: C_15  and  O_17
REMARK    6  A    between atoms: C_18  and  C_20
REMARK    7  A    between atoms: C_18  and  O_25
REMARK    8  A    between atoms: C_20  and  C_22
REMARK    9  A    between atoms: C_20  and  O_24
REMARK   10  A    between atoms: C_22  and  O_23
REMARK   11  A    between atoms: C_26  and  O_28
REMARK                            x       y       z     vdW  Elec       q    Type
REMARK                         _______ _______ _______ _____ _____    ______ ____
ROOT
ATOM      1  C   UNL     1       5.125  -4.269  24.457  0.00  0.00    +0.071 C 
ATOM      2  C   UNL     1       5.212  -4.280  25.942  0.00  0.00    +0.239 C 
ATOM      3  C   UNL     1       6.515  -4.926  26.489  0.00  0.00    +0.164 C 
ATOM      4  C   UNL     1       7.661  -5.028  25.433  0.00  0.00    +0.229 C 
ATOM      5  O   UNL     1       7.231  -5.360  24.101  0.00  0.00    -0.477 OA
ATOM      6  C   UNL     1       6.065  -4.784  23.654  0.00  0.00    +0.204 C 
ENDROOT
BRANCH   2   7
ATOM      7  N   UNL     1       5.097  -2.896  26.389  0.00  0.00    -0.104 NA
ATOM      8  C   UNL     1       4.535  -2.599  27.498  0.00  0.00    +0.377 C 
ATOM      9  N   UNL     1       4.496  -1.310  27.890  0.00  0.00    -0.289 N 
ATOM     10  H   UNL     1       3.820  -0.999  28.570  0.00  0.00    +0.255 HD
ATOM     11  H   UNL     1       4.705  -0.649  27.149  0.00  0.00    +0.255 HD
ATOM     12  N   UNL     1       3.968  -3.407  28.421  0.00  0.00    -0.289 N 
ATOM     13  H   UNL     1       4.009  -3.046  29.366  0.00  0.00    +0.255 HD
ATOM     14  H   UNL     1       4.249  -4.375  28.387  0.00  0.00    +0.255 HD
ENDBRANCH   2   7
BRANCH   3  15
ATOM     15  N   UNL     1       6.233  -6.253  27.084  0.00  0.00    -0.271 N 
ATOM     16  H   UNL     1       5.940  -7.002  26.475  0.00  0.00    +0.153 HD
ATOM     17  C   UNL     1       6.035  -6.379  28.436  0.00  0.00    +0.398 C 
ATOM     18  O   UNL     1       6.116  -5.474  29.241  0.00  0.00    -0.227 OA
BRANCH  17  19
ATOM     19  O   UNL     1       5.734  -7.638  28.774  0.00  0.00    -0.466 OA
ATOM     20  H   UNL     1       6.403  -8.045  29.349  0.00  0.00    +0.297 HD
ENDBRANCH  17  19
ENDBRANCH   3  15
BRANCH   6  21
ATOM     21  C   UNL     1       5.808  -4.792  22.177  0.00  0.00    +0.372 C 
ATOM     22  O   UNL     1       5.717  -3.802  21.469  0.00  0.00    -0.242 OA
BRANCH  21  23
ATOM     23  O   UNL     1       5.651  -6.052  21.718  0.00  0.00    -0.475 OA
ATOM     24  H   UNL     1       6.134  -6.686  22.292  0.00  0.00    +0.296 HD
ENDBRANCH  21  23
ENDBRANCH   6  21
BRANCH   4  25
ATOM     25  C   UNL     1       8.635  -3.823  25.485  0.00  0.00    +0.187 C 
BRANCH  25  26
ATOM     26  O   UNL     1       8.276  -2.887  26.500  0.00  0.00    -0.385 OA
ATOM     27  H   UNL     1       7.567  -3.314  27.021  0.00  0.00    +0.210 HD
ENDBRANCH  25  26
BRANCH  25  28
ATOM     28  C   UNL     1       8.800  -3.078  24.142  0.00  0.00    +0.172 C 
BRANCH  28  29
ATOM     29  O   UNL     1      10.201  -3.125  23.780  0.00  0.00    -0.387 OA
ATOM     30  H   UNL     1      10.257  -3.612  22.937  0.00  0.00    +0.210 HD
ENDBRANCH  28  29
BRANCH  28  31
ATOM     31  C   UNL     1       8.403  -1.598  24.166  0.00  0.00    +0.189 C 
BRANCH  31  32
ATOM     32  O   UNL     1       6.987  -1.494  24.375  0.00  0.00    -0.392 OA
ATOM     33  H   UNL     1       6.872  -1.534  25.342  0.00  0.00    +0.210 HD
ENDBRANCH  31  32
ENDBRANCH  28  31
ENDBRANCH  25  28
ENDBRANCH   4  25
TORSDOF 11
ENDMDL
