MODEL 1
REMARK VINA RESULT:      -6.9      0.000      0.000
REMARK  Name = 
REMARK  17 active torsions:
REMARK  status: ('A' for Active; 'I' for Inactive)
REMARK    1  A    between atoms: C_10  and  C_12
REMARK    2  A    between atoms: N_14  and  C_15
REMARK    3  A    between atoms: C_15  and  C_17
REMARK    4  A    between atoms: C_15  and  C_21
REMARK    5  A    between atoms: C_17  and  C_18
REMARK    6  A    between atoms: N_23  and  C_24
REMARK    7  A    between atoms: C_24  and  C_26
REMARK    8  A    between atoms: C_24  and  C_33
REMARK    9  A    between atoms: C_26  and  C_27
REMARK   10  A    between atoms: C_33  and  C_35
REMARK   11  A    between atoms: C_33  and  O_56
REMARK   12  A    between atoms: C_35  and  N_36
REMARK   13  A    between atoms: C_47  and  C_49
REMARK   14  A    between atoms: N_51  and  C_52
REMARK   15  A    between atoms: C_52  and  C_53
REMARK   16  A    between atoms: C_52  and  C_54
REMARK   17  A    between atoms: C_52  and  C_55
REMARK                            x       y       z     vdW  Elec       q    Type
REMARK                         _______ _______ _______ _____ _____    ______ ____
ROOT
ATOM      1  C   UNL     1       4.872   3.421  23.637  0.00  0.00    +0.107 C 
ENDROOT
BRANCH   1   3
ATOM      2  C   UNL     1       3.697   2.370  25.622  0.00  0.00    +0.234 C 
ATOM      3  N   UNL     1       4.822   2.813  24.971  0.00  0.00    -0.308 N 
ATOM      4  H   UNL     1       5.715   2.731  25.460  0.00  0.00    +0.149 HD
ATOM      5  O   UNL     1       2.558   2.520  25.179  0.00  0.00    -0.274 OA
BRANCH   2   6
ATOM      6  C   UNL     1       3.950   1.634  26.956  0.00  0.00    +0.168 C 
BRANCH   6   8
ATOM      7  C   UNL     1       4.097  -0.828  26.507  0.00  0.00    +0.263 C 
ATOM      8  N   UNL     1       4.673   0.414  26.579  0.00  0.00    -0.298 N 
ATOM      9  H   UNL     1       5.616   0.518  26.204  0.00  0.00    +0.150 HD
ATOM     10  O   UNL     1       2.938  -1.044  26.820  0.00  0.00    -0.269 OA
BRANCH   7  17
ATOM     11  H   UNL     1       8.115  -6.030  22.878  0.00  0.00    +0.062 HD
ATOM     12  C   UNL     1       7.432  -5.286  23.278  0.00  0.00    +0.001 A 
ATOM     13  C   UNL     1       7.605  -4.798  24.572  0.00  0.00    +0.010 A 
ATOM     14  C   UNL     1       6.730  -3.834  25.093  0.00  0.00    +0.000 A 
ATOM     15  C   UNL     1       6.887  -3.332  26.391  0.00  0.00    +0.012 A 
ATOM     16  C   UNL     1       6.019  -2.361  26.869  0.00  0.00    +0.033 A 
ATOM     17  C   UNL     1       5.007  -1.920  26.029  0.00  0.00    +0.126 A 
ATOM     18  N   UNL     1       4.807  -2.395  24.765  0.00  0.00    -0.242 NA
ATOM     19  C   UNL     1       5.656  -3.341  24.312  0.00  0.00    +0.072 A 
ATOM     20  C   UNL     1       5.500  -3.856  23.027  0.00  0.00    +0.028 A 
ATOM     21  C   UNL     1       6.375  -4.818  22.507  0.00  0.00    +0.002 A 
ENDBRANCH   7  17
ENDBRANCH   6   8
BRANCH   6  22
ATOM     22  C   UNL     1       4.795   2.434  27.944  0.00  0.00    +0.127 C 
BRANCH  22  23
ATOM     23  C   UNL     1       6.197   1.904  28.128  0.00  0.00    +0.213 C 
ATOM     24  N   UNL     1       7.172   2.710  27.612  0.00  0.00    -0.329 N 
ATOM     25  H   UNL     1       8.137   2.425  27.722  0.00  0.00    +0.145 HD
ATOM     26  H   UNL     1       6.979   3.628  27.235  0.00  0.00    +0.145 HD
ATOM     27  O   UNL     1       6.483   0.851  28.685  0.00  0.00    -0.276 OA
ENDBRANCH  22  23
ENDBRANCH   6  22
ENDBRANCH   2   6
ENDBRANCH   1   3
BRANCH   1  28
ATOM     28  C   UNL     1       6.326   3.681  23.170  0.00  0.00    +0.149 C 
BRANCH  28  29
ATOM     29  O   UNL     1       6.299   4.291  21.863  0.00  0.00    -0.389 OA
ATOM     30  H   UNL     1       5.427   4.113  21.471  0.00  0.00    +0.210 HD
ENDBRANCH  28  29
BRANCH  28  31
ATOM     31  C   UNL     1       7.209   2.407  23.103  0.00  0.00    +0.118 C 
BRANCH  31  32
ATOM     32  N   UNL     1       7.701   1.936  24.420  0.00  0.00    -0.289 NA
ATOM     33  C   UNL     1       9.172   2.096  24.620  0.00  0.00    +0.143 C 
ATOM     34  C   UNL     1      10.007   0.945  24.030  0.00  0.00    +0.032 C 
ATOM     35  C   UNL     1       9.540  -0.435  24.494  0.00  0.00    -0.005 C 
ATOM     36  C   UNL     1       8.062  -0.621  24.173  0.00  0.00    +0.006 C 
ATOM     37  C   UNL     1       7.767  -0.921  22.690  0.00  0.00    +0.005 C 
ATOM     38  C   UNL     1       8.903  -1.440  21.792  0.00  0.00    +0.000 C 
ATOM     39  C   UNL     1      10.307  -1.568  22.376  0.00  0.00    +0.000 C 
ATOM     40  C   UNL     1      10.352  -1.579  23.892  0.00  0.00    +0.004 C 
ATOM     41  C   UNL     1       7.273   0.566  24.782  0.00  0.00    +0.089 C 
BRANCH  33  42
ATOM     42  C   UNL     1       9.752   3.431  24.079  0.00  0.00    +0.231 C 
ATOM     43  N   UNL     1       9.373   4.573  24.757  0.00  0.00    -0.309 N 
ATOM     44  H   UNL     1       8.618   4.467  25.427  0.00  0.00    +0.149 HD
ATOM     45  O   UNL     1      10.535   3.456  23.131  0.00  0.00    -0.274 OA
BRANCH  43  46
ATOM     46  C   UNL     1       9.797   5.926  24.352  0.00  0.00    +0.026 C 
ATOM     47  C   UNL     1       9.539   6.933  25.486  0.00  0.00    +0.031 C 
ATOM     48  C   UNL     1       8.981   6.364  23.122  0.00  0.00    +0.031 C 
ATOM     49  C   UNL     1      11.285   5.962  23.961  0.00  0.00    +0.031 C 
ENDBRANCH  43  46
ENDBRANCH  33  42
ENDBRANCH  31  32
ENDBRANCH  28  31
ENDBRANCH   1  28
BRANCH   1  50
ATOM     50  C   UNL     1       3.960   4.655  23.412  0.00  0.00    +0.060 C 
BRANCH  50  51
ATOM     51  C   UNL     1       2.993   4.600  22.246  0.00  0.00    -0.046 A 
ATOM     52  C   UNL     1       2.630   3.341  21.747  0.00  0.00    +0.004 A 
ATOM     53  C   UNL     1       1.888   3.228  20.571  0.00  0.00    +0.000 A 
ATOM     54  C   UNL     1       1.499   4.373  19.880  0.00  0.00    +0.000 A 
ATOM     55  C   UNL     1       1.809   5.629  20.391  0.00  0.00    +0.000 A 
ATOM     56  C   UNL     1       2.524   5.743  21.582  0.00  0.00    +0.004 A 
ENDBRANCH  50  51
ENDBRANCH   1  50
TORSDOF 14
ENDMDL
MODEL 2
REMARK VINA RESULT:      -6.7      2.673      6.465
REMARK  Name = 
REMARK  17 active torsions:
REMARK  status: ('A' for Active; 'I' for Inactive)
REMARK    1  A    between atoms: C_10  and  C_12
REMARK    2  A    between atoms: N_14  and  C_15
REMARK    3  A    between atoms: C_15  and  C_17
REMARK    4  A    between atoms: C_15  and  C_21
REMARK    5  A    between atoms: C_17  and  C_18
REMARK    6  A    between atoms: N_23  and  C_24
REMARK    7  A    between atoms: C_24  and  C_26
REMARK    8  A    between atoms: C_24  and  C_33
REMARK    9  A    between atoms: C_26  and  C_27
REMARK   10  A    between atoms: C_33  and  C_35
REMARK   11  A    between atoms: C_33  and  O_56
REMARK   12  A    between atoms: C_35  and  N_36
REMARK   13  A    between atoms: C_47  and  C_49
REMARK   14  A    between atoms: N_51  and  C_52
REMARK   15  A    between atoms: C_52  and  C_53
REMARK   16  A    between atoms: C_52  and  C_54
REMARK   17  A    between atoms: C_52  and  C_55
REMARK                            x       y       z     vdW  Elec       q    Type
REMARK                         _______ _______ _______ _____ _____    ______ ____
ROOT
ATOM      1  C   UNL     1       7.379   1.376  24.177  0.00  0.00    +0.107 C 
ENDROOT
BRANCH   1   3
ATOM      2  C   UNL     1       9.437  -0.070  24.493  0.00  0.00    +0.234 C 
ATOM      3  N   UNL     1       8.197   0.179  23.956  0.00  0.00    -0.308 N 
ATOM      4  H   UNL     1       7.803  -0.524  23.328  0.00  0.00    +0.149 HD
ATOM      5  O   UNL     1      10.056   0.751  25.170  0.00  0.00    -0.274 OA
BRANCH   2   6
ATOM      6  C   UNL     1      10.008  -1.477  24.214  0.00  0.00    +0.168 C 
BRANCH   6   8
ATOM      7  C   UNL     1       9.135  -3.741  24.842  0.00  0.00    +0.263 C 
ATOM      8  N   UNL     1       8.945  -2.401  24.626  0.00  0.00    -0.298 N 
ATOM      9  H   UNL     1       8.052  -2.000  24.912  0.00  0.00    +0.150 HD
ATOM     10  O   UNL     1      10.199  -4.304  24.643  0.00  0.00    -0.269 OA
BRANCH   7  17
ATOM     11  H   UNL     1       2.908  -7.787  25.950  0.00  0.00    +0.062 HD
ATOM     12  C   UNL     1       3.760  -7.190  25.637  0.00  0.00    +0.001 A 
ATOM     13  C   UNL     1       4.660  -6.702  26.581  0.00  0.00    +0.010 A 
ATOM     14  C   UNL     1       5.765  -5.935  26.183  0.00  0.00    +0.000 A 
ATOM     15  C   UNL     1       6.681  -5.436  27.116  0.00  0.00    +0.012 A 
ATOM     16  C   UNL     1       7.777  -4.700  26.689  0.00  0.00    +0.033 A 
ATOM     17  C   UNL     1       7.924  -4.481  25.327  0.00  0.00    +0.126 A 
ATOM     18  N   UNL     1       7.046  -4.935  24.385  0.00  0.00    -0.242 NA
ATOM     19  C   UNL     1       5.982  -5.645  24.813  0.00  0.00    +0.072 A 
ATOM     20  C   UNL     1       5.059  -6.136  23.893  0.00  0.00    +0.028 A 
ATOM     21  C   UNL     1       3.957  -6.902  24.292  0.00  0.00    +0.002 A 
ENDBRANCH   7  17
ENDBRANCH   6   8
BRANCH   6  22
ATOM     22  C   UNL     1      10.345  -1.720  22.745  0.00  0.00    +0.127 C 
BRANCH  22  23
ATOM     23  C   UNL     1       9.173  -1.551  21.808  0.00  0.00    +0.213 C 
ATOM     24  N   UNL     1       9.378  -0.634  20.816  0.00  0.00    -0.329 N 
ATOM     25  H   UNL     1       8.641  -0.489  20.138  0.00  0.00    +0.145 HD
ATOM     26  H   UNL     1      10.270  -0.185  20.662  0.00  0.00    +0.145 HD
ATOM     27  O   UNL     1       8.115  -2.163  21.888  0.00  0.00    -0.276 OA
ENDBRANCH  22  23
ENDBRANCH   6  22
ENDBRANCH   2   6
ENDBRANCH   1   3
BRANCH   1  28
ATOM     28  C   UNL     1       6.032   1.041  24.866  0.00  0.00    +0.149 C 
BRANCH  28  29
ATOM     29  O   UNL     1       5.555  -0.229  24.374  0.00  0.00    -0.389 OA
ATOM     30  H   UNL     1       6.073  -0.453  23.582  0.00  0.00    +0.210 HD
ENDBRANCH  28  29
BRANCH  28  31
ATOM     31  C   UNL     1       4.924   2.105  24.645  0.00  0.00    +0.118 C 
BRANCH  31  32
ATOM     32  N   UNL     1       4.053   2.332  25.823  0.00  0.00    -0.289 NA
ATOM     33  C   UNL     1       3.103   3.474  25.675  0.00  0.00    +0.143 C 
ATOM     34  C   UNL     1       3.720   4.843  26.016  0.00  0.00    +0.032 C 
ATOM     35  C   UNL     1       4.397   4.871  27.386  0.00  0.00    -0.005 C 
ATOM     36  C   UNL     1       5.447   3.770  27.473  0.00  0.00    +0.006 C 
ATOM     37  C   UNL     1       6.756   4.080  26.718  0.00  0.00    +0.005 C 
ATOM     38  C   UNL     1       7.084   5.539  26.358  0.00  0.00    +0.000 C 
ATOM     39  C   UNL     1       6.067   6.627  26.686  0.00  0.00    +0.000 C 
ATOM     40  C   UNL     1       5.031   6.221  27.717  0.00  0.00    +0.004 C 
ATOM     41  C   UNL     1       4.775   2.421  27.112  0.00  0.00    +0.089 C 
BRANCH  33  42
ATOM     42  C   UNL     1       2.446   3.584  24.272  0.00  0.00    +0.231 C 
ATOM     43  N   UNL     1       2.802   4.687  23.522  0.00  0.00    -0.309 N 
ATOM     44  H   UNL     1       3.313   5.416  24.011  0.00  0.00    +0.149 HD
ATOM     45  O   UNL     1       1.689   2.712  23.846  0.00  0.00    -0.274 OA
BRANCH  43  46
ATOM     46  C   UNL     1       2.240   4.967  22.188  0.00  0.00    +0.026 C 
ATOM     47  C   UNL     1       2.848   6.256  21.608  0.00  0.00    +0.031 C 
ATOM     48  C   UNL     1       0.718   5.165  22.312  0.00  0.00    +0.031 C 
ATOM     49  C   UNL     1       2.480   3.800  21.214  0.00  0.00    +0.031 C 
ENDBRANCH  43  46
ENDBRANCH  33  42
ENDBRANCH  31  32
ENDBRANCH  28  31
ENDBRANCH   1  28
BRANCH   1  50
ATOM     50  C   UNL     1       7.188   2.310  22.954  0.00  0.00    +0.060 C 
BRANCH  50  51
ATOM     51  C   UNL     1       7.896   3.651  22.988  0.00  0.00    -0.046 A 
ATOM     52  C   UNL     1       9.128   3.731  23.654  0.00  0.00    +0.004 A 
ATOM     53  C   UNL     1       9.740   4.965  23.871  0.00  0.00    +0.000 A 
ATOM     54  C   UNL     1       9.129   6.135  23.426  0.00  0.00    +0.000 A 
ATOM     55  C   UNL     1       7.932   6.065  22.720  0.00  0.00    +0.000 A 
ATOM     56  C   UNL     1       7.336   4.830  22.476  0.00  0.00    +0.004 A 
ENDBRANCH  50  51
ENDBRANCH   1  50
TORSDOF 14
ENDMDL
MODEL 3
REMARK VINA RESULT:      -6.6      2.675      6.385
REMARK  Name = 
REMARK  17 active torsions:
REMARK  status: ('A' for Active; 'I' for Inactive)
REMARK    1  A    between atoms: C_10  and  C_12
REMARK    2  A    between atoms: N_14  and  C_15
REMARK    3  A    between atoms: C_15  and  C_17
REMARK    4  A    between atoms: C_15  and  C_21
REMARK    5  A    between atoms: C_17  and  C_18
REMARK    6  A    between atoms: N_23  and  C_24
REMARK    7  A    between atoms: C_24  and  C_26
REMARK    8  A    between atoms: C_24  and  C_33
REMARK    9  A    between atoms: C_26  and  C_27
REMARK   10  A    between atoms: C_33  and  C_35
REMARK   11  A    between atoms: C_33  and  O_56
REMARK   12  A    between atoms: C_35  and  N_36
REMARK   13  A    between atoms: C_47  and  C_49
REMARK   14  A    between atoms: N_51  and  C_52
REMARK   15  A    between atoms: C_52  and  C_53
REMARK   16  A    between atoms: C_52  and  C_54
REMARK   17  A    between atoms: C_52  and  C_55
REMARK                            x       y       z     vdW  Elec       q    Type
REMARK                         _______ _______ _______ _____ _____    ______ ____
ROOT
ATOM      1  C   UNL     1       8.275   0.672  26.136  0.00  0.00    +0.107 C 
ENDROOT
BRANCH   1   3
ATOM      2  C   UNL     1       9.949  -0.053  24.376  0.00  0.00    +0.234 C 
ATOM      3  N   UNL     1       8.676   0.014  24.887  0.00  0.00    -0.308 N 
ATOM      4  H   UNL     1       7.925  -0.419  24.347  0.00  0.00    +0.149 HD
ATOM      5  O   UNL     1      10.911   0.526  24.881  0.00  0.00    -0.274 OA
BRANCH   2   6
ATOM      6  C   UNL     1      10.113  -0.938  23.121  0.00  0.00    +0.168 C 
BRANCH   6   8
ATOM      7  C   UNL     1       8.851  -3.043  23.629  0.00  0.00    +0.263 C 
ATOM      8  N   UNL     1       8.912  -1.781  23.098  0.00  0.00    -0.298 N 
ATOM      9  H   UNL     1       8.034  -1.349  22.807  0.00  0.00    +0.150 HD
ATOM     10  O   UNL     1       9.817  -3.611  24.111  0.00  0.00    -0.269 OA
BRANCH   7  17
ATOM     11  H   UNL     1       2.417  -6.809  24.515  0.00  0.00    +0.062 HD
ATOM     12  C   UNL     1       3.408  -6.365  24.497  0.00  0.00    +0.001 A 
ATOM     13  C   UNL     1       3.725  -5.396  23.548  0.00  0.00    +0.010 A 
ATOM     14  C   UNL     1       5.002  -4.816  23.522  0.00  0.00    +0.000 A 
ATOM     15  C   UNL     1       5.340  -3.840  22.577  0.00  0.00    +0.012 A 
ATOM     16  C   UNL     1       6.604  -3.268  22.591  0.00  0.00    +0.033 A 
ATOM     17  C   UNL     1       7.502  -3.694  23.559  0.00  0.00    +0.126 A 
ATOM     18  N   UNL     1       7.219  -4.654  24.487  0.00  0.00    -0.242 NA
ATOM     19  C   UNL     1       5.989  -5.206  24.461  0.00  0.00    +0.072 A 
ATOM     20  C   UNL     1       5.646  -6.187  25.389  0.00  0.00    +0.028 A 
ATOM     21  C   UNL     1       4.371  -6.765  25.415  0.00  0.00    +0.002 A 
ENDBRANCH   7  17
ENDBRANCH   6   8
BRANCH   6  22
ATOM     22  C   UNL     1      10.193  -0.143  21.819  0.00  0.00    +0.127 C 
BRANCH  22  23
ATOM     23  C   UNL     1       9.209   0.999  21.732  0.00  0.00    +0.213 C 
ATOM     24  N   UNL     1       9.783   2.214  21.485  0.00  0.00    -0.329 N 
ATOM     25  H   UNL     1       9.178   3.019  21.391  0.00  0.00    +0.145 HD
ATOM     26  H   UNL     1      10.766   2.322  21.277  0.00  0.00    +0.145 HD
ATOM     27  O   UNL     1       7.996   0.893  21.861  0.00  0.00    -0.276 OA
ENDBRANCH  22  23
ENDBRANCH   6  22
ENDBRANCH   2   6
ENDBRANCH   1   3
BRANCH   1  28
ATOM     28  C   UNL     1       7.814  -0.348  27.207  0.00  0.00    +0.149 C 
BRANCH  28  29
ATOM     29  O   UNL     1       8.084  -1.684  26.733  0.00  0.00    -0.389 OA
ATOM     30  H   UNL     1       7.302  -1.988  26.243  0.00  0.00    +0.210 HD
ENDBRANCH  28  29
BRANCH  28  31
ATOM     31  C   UNL     1       6.309  -0.248  27.573  0.00  0.00    +0.118 C 
BRANCH  31  32
ATOM     32  N   UNL     1       5.391  -0.383  26.416  0.00  0.00    -0.289 NA
ATOM     33  C   UNL     1       3.996   0.082  26.680  0.00  0.00    +0.143 C 
ATOM     34  C   UNL     1       3.107  -0.977  27.359  0.00  0.00    +0.032 C 
ATOM     35  C   UNL     1       3.106  -2.318  26.624  0.00  0.00    -0.005 C 
ATOM     36  C   UNL     1       4.532  -2.831  26.470  0.00  0.00    +0.006 C 
ATOM     37  C   UNL     1       5.134  -3.433  27.757  0.00  0.00    +0.005 C 
ATOM     38  C   UNL     1       4.189  -3.877  28.886  0.00  0.00    +0.000 C 
ATOM     39  C   UNL     1       2.690  -3.637  28.734  0.00  0.00    +0.000 C 
ATOM     40  C   UNL     1       2.243  -3.377  27.308  0.00  0.00    +0.004 C 
ATOM     41  C   UNL     1       5.381  -1.725  25.793  0.00  0.00    +0.089 C 
BRANCH  33  42
ATOM     42  C   UNL     1       3.903   1.388  27.515  0.00  0.00    +0.231 C 
ATOM     43  N   UNL     1       4.188   2.558  26.840  0.00  0.00    -0.309 N 
ATOM     44  H   UNL     1       4.604   2.455  25.920  0.00  0.00    +0.149 HD
ATOM     45  O   UNL     1       3.551   1.375  28.694  0.00  0.00    -0.274 OA
BRANCH  43  46
ATOM     46  C   UNL     1       4.188   3.882  27.491  0.00  0.00    +0.026 C 
ATOM     47  C   UNL     1       4.618   4.971  26.493  0.00  0.00    +0.031 C 
ATOM     48  C   UNL     1       5.193   3.871  28.657  0.00  0.00    +0.031 C 
ATOM     49  C   UNL     1       2.805   4.230  28.070  0.00  0.00    +0.031 C 
ENDBRANCH  43  46
ENDBRANCH  33  42
ENDBRANCH  31  32
ENDBRANCH  28  31
ENDBRANCH   1  28
BRANCH   1  50
ATOM     50  C   UNL     1       7.284   1.856  25.997  0.00  0.00    +0.060 C 
BRANCH  50  51
ATOM     51  C   UNL     1       7.516   2.825  24.853  0.00  0.00    -0.046 A 
ATOM     52  C   UNL     1       8.695   3.584  24.859  0.00  0.00    +0.004 A 
ATOM     53  C   UNL     1       8.883   4.613  23.936  0.00  0.00    +0.000 A 
ATOM     54  C   UNL     1       7.895   4.894  22.995  0.00  0.00    +0.000 A 
ATOM     55  C   UNL     1       6.743   4.116  22.946  0.00  0.00    +0.000 A 
ATOM     56  C   UNL     1       6.568   3.068  23.849  0.00  0.00    +0.004 A 
ENDBRANCH  50  51
ENDBRANCH   1  50
TORSDOF 14
ENDMDL
MODEL 4
REMARK VINA RESULT:      -6.5      2.943      8.909
REMARK  Name = 
REMARK  17 active torsions:
REMARK  status: ('A' for Active; 'I' for Inactive)
REMARK    1  A    between atoms: C_10  and  C_12
REMARK    2  A    between atoms: N_14  and  C_15
REMARK    3  A    between atoms: C_15  and  C_17
REMARK    4  A    between atoms: C_15  and  C_21
REMARK    5  A    between atoms: C_17  and  C_18
REMARK    6  A    between atoms: N_23  and  C_24
REMARK    7  A    between atoms: C_24  and  C_26
REMARK    8  A    between atoms: C_24  and  C_33
REMARK    9  A    between atoms: C_26  and  C_27
REMARK   10  A    between atoms: C_33  and  C_35
REMARK   11  A    between atoms: C_33  and  O_56
REMARK   12  A    between atoms: C_35  and  N_36
REMARK   13  A    between atoms: C_47  and  C_49
REMARK   14  A    between atoms: N_51  and  C_52
REMARK   15  A    between atoms: C_52  and  C_53
REMARK   16  A    between atoms: C_52  and  C_54
REMARK   17  A    between atoms: C_52  and  C_55
REMARK                            x       y       z     vdW  Elec       q    Type
REMARK                         _______ _______ _______ _____ _____    ______ ____
ROOT
ATOM      1  C   UNL     1       8.010  -3.150  25.700  0.00  0.00    +0.107 C 
ENDROOT
BRANCH   1   3
ATOM      2  C   UNL     1       7.078  -1.061  26.792  0.00  0.00    +0.234 C 
ATOM      3  N   UNL     1       6.945  -2.198  26.033  0.00  0.00    -0.308 N 
ATOM      4  H   UNL     1       6.015  -2.420  25.672  0.00  0.00    +0.149 HD
ATOM      5  O   UNL     1       8.121  -0.753  27.369  0.00  0.00    -0.274 OA
BRANCH   2   6
ATOM      6  C   UNL     1       5.826  -0.159  26.859  0.00  0.00    +0.168 C 
BRANCH   6   8
ATOM      7  C   UNL     1       6.360   0.903  24.653  0.00  0.00    +0.263 C 
ATOM      8  N   UNL     1       6.147   0.990  26.004  0.00  0.00    -0.298 N 
ATOM      9  H   UNL     1       6.057   1.922  26.408  0.00  0.00    +0.150 HD
ATOM     10  O   UNL     1       6.372  -0.155  24.045  0.00  0.00    -0.269 OA
BRANCH   7  17
ATOM     11  H   UNL     1       8.538   7.647  22.173  0.00  0.00    +0.062 HD
ATOM     12  C   UNL     1       8.290   6.715  22.671  0.00  0.00    +0.001 A 
ATOM     13  C   UNL     1       7.470   5.780  22.044  0.00  0.00    +0.010 A 
ATOM     14  C   UNL     1       7.149   4.572  22.680  0.00  0.00    +0.000 A 
ATOM     15  C   UNL     1       6.328   3.619  22.065  0.00  0.00    +0.012 A 
ATOM     16  C   UNL     1       6.049   2.423  22.711  0.00  0.00    +0.033 A 
ATOM     17  C   UNL     1       6.601   2.215  23.966  0.00  0.00    +0.126 A 
ATOM     18  N   UNL     1       7.392   3.124  24.608  0.00  0.00    -0.242 NA
ATOM     19  C   UNL     1       7.655   4.284  23.972  0.00  0.00    +0.072 A 
ATOM     20  C   UNL     1       8.460   5.244  24.580  0.00  0.00    +0.028 A 
ATOM     21  C   UNL     1       8.781   6.449  23.944  0.00  0.00    +0.002 A 
ENDBRANCH   7  17
ENDBRANCH   6   8
BRANCH   6  22
ATOM     22  C   UNL     1       4.559  -0.834  26.340  0.00  0.00    +0.127 C 
BRANCH  22  23
ATOM     23  C   UNL     1       3.787  -1.591  27.395  0.00  0.00    +0.213 C 
ATOM     24  N   UNL     1       3.247  -2.767  26.957  0.00  0.00    -0.329 N 
ATOM     25  H   UNL     1       2.737  -3.336  27.620  0.00  0.00    +0.145 HD
ATOM     26  H   UNL     1       3.436  -3.147  26.039  0.00  0.00    +0.145 HD
ATOM     27  O   UNL     1       3.634  -1.223  28.553  0.00  0.00    -0.276 OA
ENDBRANCH  22  23
ENDBRANCH   6  22
ENDBRANCH   2   6
ENDBRANCH   1   3
BRANCH   1  28
ATOM     28  C   UNL     1       8.095  -4.309  26.724  0.00  0.00    +0.149 C 
BRANCH  28  29
ATOM     29  O   UNL     1       8.556  -5.500  26.052  0.00  0.00    -0.389 OA
ATOM     30  H   UNL     1       7.862  -6.175  26.136  0.00  0.00    +0.210 HD
ENDBRANCH  28  29
BRANCH  28  31
ATOM     31  C   UNL     1       6.752  -4.630  27.433  0.00  0.00    +0.118 C 
BRANCH  31  32
ATOM     32  N   UNL     1       6.422  -6.074  27.488  0.00  0.00    -0.289 NA
ATOM     33  C   UNL     1       5.178  -6.450  26.752  0.00  0.00    +0.143 C 
ATOM     34  C   UNL     1       3.888  -6.245  27.568  0.00  0.00    +0.032 C 
ATOM     35  C   UNL     1       3.934  -6.917  28.941  0.00  0.00    -0.005 C 
ATOM     36  C   UNL     1       5.149  -6.429  29.721  0.00  0.00    +0.006 C 
ATOM     37  C   UNL     1       4.995  -5.016  30.317  0.00  0.00    +0.005 C 
ATOM     38  C   UNL     1       3.585  -4.425  30.485  0.00  0.00    +0.000 C 
ATOM     39  C   UNL     1       2.385  -5.222  29.983  0.00  0.00    +0.000 C 
ATOM     40  C   UNL     1       2.666  -6.696  29.761  0.00  0.00    +0.004 C 
ATOM     41  C   UNL     1       6.413  -6.650  28.851  0.00  0.00    +0.089 C 
BRANCH  33  42
ATOM     42  C   UNL     1       4.998  -5.730  25.388  0.00  0.00    +0.231 C 
ATOM     43  N   UNL     1       6.002  -5.930  24.461  0.00  0.00    -0.309 N 
ATOM     44  H   UNL     1       6.847  -6.375  24.806  0.00  0.00    +0.149 HD
ATOM     45  O   UNL     1       3.996  -5.060  25.141  0.00  0.00    -0.274 OA
BRANCH  43  46
ATOM     46  C   UNL     1       6.010  -5.288  23.133  0.00  0.00    +0.026 C 
ATOM     47  C   UNL     1       5.104  -6.060  22.158  0.00  0.00    +0.031 C 
ATOM     48  C   UNL     1       7.444  -5.301  22.574  0.00  0.00    +0.031 C 
ATOM     49  C   UNL     1       5.552  -3.821  23.209  0.00  0.00    +0.031 C 
ENDBRANCH  43  46
ENDBRANCH  33  42
ENDBRANCH  31  32
ENDBRANCH  28  31
ENDBRANCH   1  28
BRANCH   1  50
ATOM     50  C   UNL     1       9.403  -2.540  25.397  0.00  0.00    +0.060 C 
BRANCH  50  51
ATOM     51  C   UNL     1       9.529  -1.681  24.153  0.00  0.00    -0.046 A 
ATOM     52  C   UNL     1       9.905  -0.339  24.312  0.00  0.00    +0.004 A 
ATOM     53  C   UNL     1       9.866   0.543  23.232  0.00  0.00    +0.000 A 
ATOM     54  C   UNL     1       9.451   0.094  21.981  0.00  0.00    +0.000 A 
ATOM     55  C   UNL     1       9.124  -1.245  21.798  0.00  0.00    +0.000 A 
ATOM     56  C   UNL     1       9.192  -2.133  22.869  0.00  0.00    +0.004 A 
ENDBRANCH  50  51
ENDBRANCH   1  50
TORSDOF 14
ENDMDL
MODEL 5
REMARK VINA RESULT:      -6.5      3.210      7.385
REMARK  Name = 
REMARK  17 active torsions:
REMARK  status: ('A' for Active; 'I' for Inactive)
REMARK    1  A    between atoms: C_10  and  C_12
REMARK    2  A    between atoms: N_14  and  C_15
REMARK    3  A    between atoms: C_15  and  C_17
REMARK    4  A    between atoms: C_15  and  C_21
REMARK    5  A    between atoms: C_17  and  C_18
REMARK    6  A    between atoms: N_23  and  C_24
REMARK    7  A    between atoms: C_24  and  C_26
REMARK    8  A    between atoms: C_24  and  C_33
REMARK    9  A    between atoms: C_26  and  C_27
REMARK   10  A    between atoms: C_33  and  C_35
REMARK   11  A    between atoms: C_33  and  O_56
REMARK   12  A    between atoms: C_35  and  N_36
REMARK   13  A    between atoms: C_47  and  C_49
REMARK   14  A    between atoms: N_51  and  C_52
REMARK   15  A    between atoms: C_52  and  C_53
REMARK   16  A    between atoms: C_52  and  C_54
REMARK   17  A    between atoms: C_52  and  C_55
REMARK                            x       y       z     vdW  Elec       q    Type
REMARK                         _______ _______ _______ _____ _____    ______ ____
ROOT
ATOM      1  C   UNL     1       8.088   1.356  25.708  0.00  0.00    +0.107 C 
ENDROOT
BRANCH   1   3
ATOM      2  C   UNL     1       9.687   0.257  24.076  0.00  0.00    +0.234 C 
ATOM      3  N   UNL     1       8.426   0.505  24.561  0.00  0.00    -0.308 N 
ATOM      4  H   UNL     1       7.638   0.073  24.075  0.00  0.00    +0.149 HD
ATOM      5  O   UNL     1      10.698   0.809  24.510  0.00  0.00    -0.274 OA
BRANCH   2   6
ATOM      6  C   UNL     1       9.768  -0.797  22.951  0.00  0.00    +0.168 C 
BRANCH   6   8
ATOM      7  C   UNL     1       9.154  -3.026  23.921  0.00  0.00    +0.263 C 
ATOM      8  N   UNL     1       8.805  -1.834  23.339  0.00  0.00    -0.298 N 
ATOM      9  H   UNL     1       7.814  -1.595  23.314  0.00  0.00    +0.150 HD
ATOM     10  O   UNL     1      10.311  -3.363  24.106  0.00  0.00    -0.269 OA
BRANCH   7  17
ATOM     11  H   UNL     1       3.036  -7.340  24.495  0.00  0.00    +0.062 HD
ATOM     12  C   UNL     1       3.853  -6.658  24.277  0.00  0.00    +0.001 A 
ATOM     13  C   UNL     1       4.877  -6.473  25.203  0.00  0.00    +0.010 A 
ATOM     14  C   UNL     1       5.938  -5.598  24.927  0.00  0.00    +0.000 A 
ATOM     15  C   UNL     1       6.977  -5.399  25.844  0.00  0.00    +0.012 A 
ATOM     16  C   UNL     1       8.025  -4.544  25.531  0.00  0.00    +0.033 A 
ATOM     17  C   UNL     1       8.000  -3.905  24.301  0.00  0.00    +0.126 A 
ATOM     18  N   UNL     1       6.998  -4.057  23.386  0.00  0.00    -0.242 NA
ATOM     19  C   UNL     1       5.983  -4.887  23.702  0.00  0.00    +0.072 A 
ATOM     20  C   UNL     1       4.938  -5.082  22.802  0.00  0.00    +0.028 A 
ATOM     21  C   UNL     1       3.881  -5.957  23.078  0.00  0.00    +0.002 A 
ENDBRANCH   7  17
ENDBRANCH   6   8
BRANCH   6  22
ATOM     22  C   UNL     1       9.392  -0.253  21.575  0.00  0.00    +0.127 C 
BRANCH  22  23
ATOM     23  C   UNL     1       9.038   1.215  21.568  0.00  0.00    +0.213 C 
ATOM     24  N   UNL     1      10.118   2.051  21.524  0.00  0.00    -0.329 N 
ATOM     25  H   UNL     1       9.951   3.048  21.492  0.00  0.00    +0.145 HD
ATOM     26  H   UNL     1      11.064   1.716  21.402  0.00  0.00    +0.145 HD
ATOM     27  O   UNL     1       7.898   1.663  21.595  0.00  0.00    -0.276 OA
ENDBRANCH  22  23
ENDBRANCH   6  22
ENDBRANCH   2   6
ENDBRANCH   1   3
BRANCH   1  28
ATOM     28  C   UNL     1       7.459   0.544  26.868  0.00  0.00    +0.149 C 
BRANCH  28  29
ATOM     29  O   UNL     1       7.517  -0.861  26.545  0.00  0.00    -0.389 OA
ATOM     30  H   UNL     1       7.618  -1.352  27.379  0.00  0.00    +0.210 HD
ENDBRANCH  28  29
BRANCH  28  31
ATOM     31  C   UNL     1       5.985   0.919  27.178  0.00  0.00    +0.118 C 
BRANCH  31  32
ATOM     32  N   UNL     1       5.590   0.716  28.593  0.00  0.00    -0.289 NA
ATOM     33  C   UNL     1       4.129   0.481  28.796  0.00  0.00    +0.143 C 
ATOM     34  C   UNL     1       3.296   1.774  28.872  0.00  0.00    +0.032 C 
ATOM     35  C   UNL     1       3.835   2.774  29.896  0.00  0.00    -0.005 C 
ATOM     36  C   UNL     1       5.296   3.090  29.598  0.00  0.00    +0.006 C 
ATOM     37  C   UNL     1       5.509   4.051  28.412  0.00  0.00    +0.005 C 
ATOM     38  C   UNL     1       4.337   4.930  27.942  0.00  0.00    +0.000 C 
ATOM     39  C   UNL     1       2.977   4.769  28.613  0.00  0.00    +0.000 C 
ATOM     40  C   UNL     1       3.025   4.067  29.957  0.00  0.00    +0.004 C 
ATOM     41  C   UNL     1       6.082   1.756  29.523  0.00  0.00    +0.089 C 
BRANCH  33  42
ATOM     42  C   UNL     1       3.475  -0.445  27.734  0.00  0.00    +0.231 C 
ATOM     43  N   UNL     1       3.636  -1.802  27.933  0.00  0.00    -0.309 N 
ATOM     44  H   UNL     1       4.309  -2.074  28.643  0.00  0.00    +0.149 HD
ATOM     45  O   UNL     1       2.817   0.012  26.800  0.00  0.00    -0.274 OA
BRANCH  43  46
ATOM     46  C   UNL     1       3.116  -2.818  26.999  0.00  0.00    +0.026 C 
ATOM     47  C   UNL     1       3.319  -4.231  27.575  0.00  0.00    +0.031 C 
ATOM     48  C   UNL     1       3.887  -2.724  25.670  0.00  0.00    +0.031 C 
ATOM     49  C   UNL     1       1.625  -2.597  26.690  0.00  0.00    +0.031 C 
ENDBRANCH  43  46
ENDBRANCH  33  42
ENDBRANCH  31  32
ENDBRANCH  28  31
ENDBRANCH   1  28
BRANCH   1  50
ATOM     50  C   UNL     1       7.278   2.639  25.392  0.00  0.00    +0.060 C 
BRANCH  50  51
ATOM     51  C   UNL     1       8.062   3.921  25.186  0.00  0.00    -0.046 A 
ATOM     52  C   UNL     1       9.001   3.962  24.145  0.00  0.00    +0.004 A 
ATOM     53  C   UNL     1       9.873   5.043  24.016  0.00  0.00    +0.000 A 
ATOM     54  C   UNL     1       9.818   6.095  24.927  0.00  0.00    +0.000 A 
ATOM     55  C   UNL     1       8.859   6.091  25.934  0.00  0.00    +0.000 A 
ATOM     56  C   UNL     1       7.966   5.026  26.044  0.00  0.00    +0.004 A 
ENDBRANCH  50  51
ENDBRANCH   1  50
TORSDOF 14
ENDMDL
MODEL 6
REMARK VINA RESULT:      -6.4      3.142      7.450
REMARK  Name = 
REMARK  17 active torsions:
REMARK  status: ('A' for Active; 'I' for Inactive)
REMARK    1  A    between atoms: C_10  and  C_12
REMARK    2  A    between atoms: N_14  and  C_15
REMARK    3  A    between atoms: C_15  and  C_17
REMARK    4  A    between atoms: C_15  and  C_21
REMARK    5  A    between atoms: C_17  and  C_18
REMARK    6  A    between atoms: N_23  and  C_24
REMARK    7  A    between atoms: C_24  and  C_26
REMARK    8  A    between atoms: C_24  and  C_33
REMARK    9  A    between atoms: C_26  and  C_27
REMARK   10  A    between atoms: C_33  and  C_35
REMARK   11  A    between atoms: C_33  and  O_56
REMARK   12  A    between atoms: C_35  and  N_36
REMARK   13  A    between atoms: C_47  and  C_49
REMARK   14  A    between atoms: N_51  and  C_52
REMARK   15  A    between atoms: C_52  and  C_53
REMARK   16  A    between atoms: C_52  and  C_54
REMARK   17  A    between atoms: C_52  and  C_55
REMARK                            x       y       z     vdW  Elec       q    Type
REMARK                         _______ _______ _______ _____ _____    ______ ____
ROOT
ATOM      1  C   UNL     1       7.688  -1.381  24.535  0.00  0.00    +0.107 C 
ENDROOT
BRANCH   1   3
ATOM      2  C   UNL     1       8.397  -3.775  24.096  0.00  0.00    +0.234 C 
ATOM      3  N   UNL     1       7.443  -2.798  24.242  0.00  0.00    -0.308 N 
ATOM      4  H   UNL     1       6.465  -3.069  24.123  0.00  0.00    +0.149 HD
ATOM      5  O   UNL     1       9.606  -3.545  24.107  0.00  0.00    -0.274 OA
BRANCH   2   6
ATOM      6  C   UNL     1       7.854  -5.212  23.940  0.00  0.00    +0.168 C 
BRANCH   6   8
ATOM      7  C   UNL     1       6.650  -5.594  26.106  0.00  0.00    +0.263 C 
ATOM      8  N   UNL     1       6.650  -5.250  24.779  0.00  0.00    -0.298 N 
ATOM      9  H   UNL     1       5.791  -4.855  24.395  0.00  0.00    +0.150 HD
ATOM     10  O   UNL     1       7.649  -5.969  26.697  0.00  0.00    -0.269 OA
BRANCH   7  17
ATOM     11  H   UNL     1      -0.540  -5.295  28.246  0.00  0.00    +0.062 HD
ATOM     12  C   UNL     1       0.445  -5.303  27.789  0.00  0.00    +0.001 A 
ATOM     13  C   UNL     1       1.585  -5.409  28.582  0.00  0.00    +0.010 A 
ATOM     14  C   UNL     1       2.860  -5.425  27.998  0.00  0.00    +0.000 A 
ATOM     15  C   UNL     1       4.018  -5.532  28.778  0.00  0.00    +0.012 A 
ATOM     16  C   UNL     1       5.264  -5.568  28.169  0.00  0.00    +0.033 A 
ATOM     17  C   UNL     1       5.317  -5.494  26.785  0.00  0.00    +0.126 A 
ATOM     18  N   UNL     1       4.214  -5.372  25.988  0.00  0.00    -0.242 NA
ATOM     19  C   UNL     1       3.008  -5.334  26.592  0.00  0.00    +0.072 A 
ATOM     20  C   UNL     1       1.851  -5.215  25.826  0.00  0.00    +0.028 A 
ATOM     21  C   UNL     1       0.579  -5.201  26.409  0.00  0.00    +0.002 A 
ENDBRANCH   7  17
ENDBRANCH   6   8
BRANCH   6  22
ATOM     22  C   UNL     1       7.478  -5.572  22.505  0.00  0.00    +0.127 C 
BRANCH  22  23
ATOM     23  C   UNL     1       6.041  -5.272  22.150  0.00  0.00    +0.213 C 
ATOM     24  N   UNL     1       5.279  -6.381  21.915  0.00  0.00    -0.329 N 
ATOM     25  H   UNL     1       4.300  -6.251  21.695  0.00  0.00    +0.145 HD
ATOM     26  H   UNL     1       5.619  -7.320  22.068  0.00  0.00    +0.145 HD
ATOM     27  O   UNL     1       5.557  -4.149  22.070  0.00  0.00    -0.276 OA
ENDBRANCH  22  23
ENDBRANCH   6  22
ENDBRANCH   2   6
ENDBRANCH   1   3
BRANCH   1  28
ATOM     28  C   UNL     1       6.836  -0.878  25.727  0.00  0.00    +0.149 C 
BRANCH  28  29
ATOM     29  O   UNL     1       5.897  -1.909  26.103  0.00  0.00    -0.389 OA
ATOM     30  H   UNL     1       6.043  -2.670  25.516  0.00  0.00    +0.210 HD
ENDBRANCH  28  29
BRANCH  28  31
ATOM     31  C   UNL     1       6.048   0.427  25.438  0.00  0.00    +0.118 C 
BRANCH  31  32
ATOM     32  N   UNL     1       6.200   1.474  26.477  0.00  0.00    -0.289 NA
ATOM     33  C   UNL     1       4.915   2.091  26.921  0.00  0.00    +0.143 C 
ATOM     34  C   UNL     1       4.427   3.233  26.011  0.00  0.00    +0.032 C 
ATOM     35  C   UNL     1       5.492   4.303  25.769  0.00  0.00    -0.005 C 
ATOM     36  C   UNL     1       6.755   3.665  25.203  0.00  0.00    +0.006 C 
ATOM     37  C   UNL     1       6.663   3.289  23.710  0.00  0.00    +0.005 C 
ATOM     38  C   UNL     1       5.581   3.950  22.838  0.00  0.00    +0.000 C 
ATOM     39  C   UNL     1       4.582   4.898  23.493  0.00  0.00    +0.000 C 
ATOM     40  C   UNL     1       5.017   5.425  24.847  0.00  0.00    +0.004 C 
ATOM     41  C   UNL     1       7.194   2.521  26.151  0.00  0.00    +0.089 C 
BRANCH  33  42
ATOM     42  C   UNL     1       3.745   1.084  27.092  0.00  0.00    +0.231 C 
ATOM     43  N   UNL     1       3.935   0.091  28.033  0.00  0.00    -0.309 N 
ATOM     44  H   UNL     1       4.877  -0.006  28.398  0.00  0.00    +0.149 HD
ATOM     45  O   UNL     1       2.699   1.200  26.455  0.00  0.00    -0.274 OA
BRANCH  43  46
ATOM     46  C   UNL     1       2.944  -0.971  28.291  0.00  0.00    +0.026 C 
ATOM     47  C   UNL     1       1.657  -0.372  28.885  0.00  0.00    +0.031 C 
ATOM     48  C   UNL     1       3.526  -1.969  29.307  0.00  0.00    +0.031 C 
ATOM     49  C   UNL     1       2.604  -1.754  27.010  0.00  0.00    +0.031 C 
ENDBRANCH  43  46
ENDBRANCH  33  42
ENDBRANCH  31  32
ENDBRANCH  28  31
ENDBRANCH   1  28
BRANCH   1  50
ATOM     50  C   UNL     1       7.624  -0.412  23.326  0.00  0.00    +0.060 C 
BRANCH  50  51
ATOM     51  C   UNL     1       8.813   0.504  23.108  0.00  0.00    -0.046 A 
ATOM     52  C   UNL     1       9.631   0.799  24.209  0.00  0.00    +0.004 A 
ATOM     53  C   UNL     1      10.629   1.768  24.113  0.00  0.00    +0.000 A 
ATOM     54  C   UNL     1      10.823   2.453  22.916  0.00  0.00    +0.000 A 
ATOM     55  C   UNL     1      10.053   2.135  21.803  0.00  0.00    +0.000 A 
ATOM     56  C   UNL     1       9.076   1.145  21.889  0.00  0.00    +0.004 A 
ENDBRANCH  50  51
ENDBRANCH   1  50
TORSDOF 14
ENDMDL
MODEL 7
REMARK VINA RESULT:      -6.4      3.432      5.765
REMARK  Name = 
REMARK  17 active torsions:
REMARK  status: ('A' for Active; 'I' for Inactive)
REMARK    1  A    between atoms: C_10  and  C_12
REMARK    2  A    between atoms: N_14  and  C_15
REMARK    3  A    between atoms: C_15  and  C_17
REMARK    4  A    between atoms: C_15  and  C_21
REMARK    5  A    between atoms: C_17  and  C_18
REMARK    6  A    between atoms: N_23  and  C_24
REMARK    7  A    between atoms: C_24  and  C_26
REMARK    8  A    between atoms: C_24  and  C_33
REMARK    9  A    between atoms: C_26  and  C_27
REMARK   10  A    between atoms: C_33  and  C_35
REMARK   11  A    between atoms: C_33  and  O_56
REMARK   12  A    between atoms: C_35  and  N_36
REMARK   13  A    between atoms: C_47  and  C_49
REMARK   14  A    between atoms: N_51  and  C_52
REMARK   15  A    between atoms: C_52  and  C_53
REMARK   16  A    between atoms: C_52  and  C_54
REMARK   17  A    between atoms: C_52  and  C_55
REMARK                            x       y       z     vdW  Elec       q    Type
REMARK                         _______ _______ _______ _____ _____    ______ ____
ROOT
ATOM      1  C   UNL     1       5.562   0.951  28.333  0.00  0.00    +0.107 C 
ENDROOT
BRANCH   1   3
ATOM      2  C   UNL     1       3.629  -0.570  27.719  0.00  0.00    +0.234 C 
ATOM      3  N   UNL     1       4.706  -0.230  28.499  0.00  0.00    -0.308 N 
ATOM      4  H   UNL     1       4.935  -0.843  29.284  0.00  0.00    +0.149 HD
ATOM      5  O   UNL     1       3.194   0.148  26.818  0.00  0.00    -0.274 OA
BRANCH   2   6
ATOM      6  C   UNL     1       2.999  -1.946  28.024  0.00  0.00    +0.168 C 
BRANCH   6   8
ATOM      7  C   UNL     1       2.732  -3.103  25.816  0.00  0.00    +0.263 C 
ATOM      8  N   UNL     1       3.464  -2.820  26.940  0.00  0.00    -0.298 N 
ATOM      9  H   UNL     1       4.441  -3.112  26.952  0.00  0.00    +0.150 HD
ATOM     10  O   UNL     1       1.592  -2.706  25.645  0.00  0.00    -0.269 OA
BRANCH   7  17
ATOM     11  H   UNL     1       6.979  -6.266  20.494  0.00  0.00    +0.062 HD
ATOM     12  C   UNL     1       6.406  -5.668  21.196  0.00  0.00    +0.001 A 
ATOM     13  C   UNL     1       5.554  -6.284  22.110  0.00  0.00    +0.010 A 
ATOM     14  C   UNL     1       4.814  -5.518  23.023  0.00  0.00    +0.000 A 
ATOM     15  C   UNL     1       3.953  -6.119  23.950  0.00  0.00    +0.012 A 
ATOM     16  C   UNL     1       3.253  -5.335  24.855  0.00  0.00    +0.033 A 
ATOM     17  C   UNL     1       3.433  -3.961  24.805  0.00  0.00    +0.126 A 
ATOM     18  N   UNL     1       4.249  -3.334  23.907  0.00  0.00    -0.242 NA
ATOM     19  C   UNL     1       4.922  -4.105  23.029  0.00  0.00    +0.072 A 
ATOM     20  C   UNL     1       5.771  -3.517  22.095  0.00  0.00    +0.028 A 
ATOM     21  C   UNL     1       6.510  -4.282  21.185  0.00  0.00    +0.002 A 
ENDBRANCH   7  17
ENDBRANCH   6   8
BRANCH   6  22
ATOM     22  C   UNL     1       3.433  -2.534  29.364  0.00  0.00    +0.127 C 
BRANCH  22  23
ATOM     23  C   UNL     1       3.779  -4.003  29.311  0.00  0.00    +0.213 C 
ATOM     24  N   UNL     1       2.762  -4.832  29.693  0.00  0.00    -0.329 N 
ATOM     25  H   UNL     1       2.919  -5.830  29.658  0.00  0.00    +0.145 HD
ATOM     26  H   UNL     1       1.829  -4.496  29.893  0.00  0.00    +0.145 HD
ATOM     27  O   UNL     1       4.861  -4.458  28.961  0.00  0.00    -0.276 OA
ENDBRANCH  22  23
ENDBRANCH   6  22
ENDBRANCH   2   6
ENDBRANCH   1   3
BRANCH   1  28
ATOM     28  C   UNL     1       7.066   0.580  28.310  0.00  0.00    +0.149 C 
BRANCH  28  29
ATOM     29  O   UNL     1       7.816   1.618  28.975  0.00  0.00    -0.389 OA
ATOM     30  H   UNL     1       7.653   1.535  29.930  0.00  0.00    +0.210 HD
ENDBRANCH  28  29
BRANCH  28  31
ATOM     31  C   UNL     1       7.649   0.385  26.885  0.00  0.00    +0.118 C 
BRANCH  31  32
ATOM     32  N   UNL     1       6.639   0.437  25.801  0.00  0.00    -0.289 NA
ATOM     33  C   UNL     1       6.660  -0.740  24.882  0.00  0.00    +0.143 C 
ATOM     34  C   UNL     1       7.703  -0.629  23.755  0.00  0.00    +0.032 C 
ATOM     35  C   UNL     1       7.596   0.676  22.966  0.00  0.00    -0.005 C 
ATOM     36  C   UNL     1       7.695   1.867  23.911  0.00  0.00    +0.006 C 
ATOM     37  C   UNL     1       9.125   2.174  24.400  0.00  0.00    +0.005 C 
ATOM     38  C   UNL     1      10.321   1.616  23.609  0.00  0.00    +0.000 C 
ATOM     39  C   UNL     1      10.056   0.711  22.410  0.00  0.00    +0.000 C 
ATOM     40  C   UNL     1       8.645   0.799  21.863  0.00  0.00    +0.004 C 
ATOM     41  C   UNL     1       6.633   1.699  25.027  0.00  0.00    +0.089 C 
BRANCH  33  42
ATOM     42  C   UNL     1       6.872  -2.104  25.594  0.00  0.00    +0.231 C 
ATOM     43  N   UNL     1       7.748  -2.978  24.980  0.00  0.00    -0.309 N 
ATOM     44  H   UNL     1       8.036  -2.734  24.037  0.00  0.00    +0.149 HD
ATOM     45  O   UNL     1       6.322  -2.365  26.663  0.00  0.00    -0.274 OA
BRANCH  43  46
ATOM     46  C   UNL     1       8.030  -4.329  25.497  0.00  0.00    +0.026 C 
ATOM     47  C   UNL     1       9.117  -4.272  26.585  0.00  0.00    +0.031 C 
ATOM     48  C   UNL     1       8.544  -5.214  24.347  0.00  0.00    +0.031 C 
ATOM     49  C   UNL     1       6.765  -4.995  26.068  0.00  0.00    +0.031 C 
ENDBRANCH  43  46
ENDBRANCH  33  42
ENDBRANCH  31  32
ENDBRANCH  28  31
ENDBRANCH   1  28
BRANCH   1  50
ATOM     50  C   UNL     1       5.273   2.144  29.281  0.00  0.00    +0.060 C 
BRANCH  50  51
ATOM     51  C   UNL     1       4.695   3.400  28.658  0.00  0.00    -0.046 A 
ATOM     52  C   UNL     1       3.337   3.401  28.309  0.00  0.00    +0.004 A 
ATOM     53  C   UNL     1       2.792   4.455  27.576  0.00  0.00    +0.000 A 
ATOM     54  C   UNL     1       3.597   5.521  27.183  0.00  0.00    +0.000 A 
ATOM     55  C   UNL     1       4.934   5.557  27.566  0.00  0.00    +0.000 A 
ATOM     56  C   UNL     1       5.472   4.519  28.325  0.00  0.00    +0.004 A 
ENDBRANCH  50  51
ENDBRANCH   1  50
TORSDOF 14
ENDMDL
MODEL 8
REMARK VINA RESULT:      -6.4      2.622      7.803
REMARK  Name = 
REMARK  17 active torsions:
REMARK  status: ('A' for Active; 'I' for Inactive)
REMARK    1  A    between atoms: C_10  and  C_12
REMARK    2  A    between atoms: N_14  and  C_15
REMARK    3  A    between atoms: C_15  and  C_17
REMARK    4  A    between atoms: C_15  and  C_21
REMARK    5  A    between atoms: C_17  and  C_18
REMARK    6  A    between atoms: N_23  and  C_24
REMARK    7  A    between atoms: C_24  and  C_26
REMARK    8  A    between atoms: C_24  and  C_33
REMARK    9  A    between atoms: C_26  and  C_27
REMARK   10  A    between atoms: C_33  and  C_35
REMARK   11  A    between atoms: C_33  and  O_56
REMARK   12  A    between atoms: C_35  and  N_36
REMARK   13  A    between atoms: C_47  and  C_49
REMARK   14  A    between atoms: N_51  and  C_52
REMARK   15  A    between atoms: C_52  and  C_53
REMARK   16  A    between atoms: C_52  and  C_54
REMARK   17  A    between atoms: C_52  and  C_55
REMARK                            x       y       z     vdW  Elec       q    Type
REMARK                         _______ _______ _______ _____ _____    ______ ____
ROOT
ATOM      1  C   UNL     1       6.092  -1.119  27.403  0.00  0.00    +0.107 C 
ENDROOT
BRANCH   1   3
ATOM      2  C   UNL     1       4.317   0.306  28.519  0.00  0.00    +0.234 C 
ATOM      3  N   UNL     1       5.302   0.104  27.584  0.00  0.00    -0.308 N 
ATOM      4  H   UNL     1       5.503   0.868  26.935  0.00  0.00    +0.149 HD
ATOM      5  O   UNL     1       3.914  -0.577  29.276  0.00  0.00    -0.274 OA
BRANCH   2   6
ATOM      6  C   UNL     1       3.752   1.741  28.586  0.00  0.00    +0.168 C 
BRANCH   6   8
ATOM      7  C   UNL     1       4.669   3.815  27.518  0.00  0.00    +0.263 C 
ATOM      8  N   UNL     1       4.436   2.464  27.508  0.00  0.00    -0.298 N 
ATOM      9  H   UNL     1       4.896   1.912  26.784  0.00  0.00    +0.150 HD
ATOM     10  O   UNL     1       4.264   4.555  28.399  0.00  0.00    -0.269 OA
BRANCH   7  17
ATOM     11  H   UNL     1       9.663   6.306  22.495  0.00  0.00    +0.062 HD
ATOM     12  C   UNL     1       9.048   5.990  23.333  0.00  0.00    +0.001 A 
ATOM     13  C   UNL     1       7.733   5.581  23.123  0.00  0.00    +0.010 A 
ATOM     14  C   UNL     1       6.935   5.167  24.200  0.00  0.00    +0.000 A 
ATOM     15  C   UNL     1       5.612   4.752  24.010  0.00  0.00    +0.012 A 
ATOM     16  C   UNL     1       4.856   4.326  25.093  0.00  0.00    +0.033 A 
ATOM     17  C   UNL     1       5.450   4.330  26.346  0.00  0.00    +0.126 A 
ATOM     18  N   UNL     1       6.731   4.743  26.578  0.00  0.00    -0.242 NA
ATOM     19  C   UNL     1       7.456   5.158  25.519  0.00  0.00    +0.072 A 
ATOM     20  C   UNL     1       8.769   5.585  25.699  0.00  0.00    +0.028 A 
ATOM     21  C   UNL     1       9.565   5.997  24.623  0.00  0.00    +0.002 A 
ENDBRANCH   7  17
ENDBRANCH   6   8
BRANCH   6  22
ATOM     22  C   UNL     1       2.244   1.815  28.362  0.00  0.00    +0.127 C 
BRANCH  22  23
ATOM     23  C   UNL     1       1.796   1.318  27.008  0.00  0.00    +0.213 C 
ATOM     24  N   UNL     1       0.985   0.219  27.056  0.00  0.00    -0.329 N 
ATOM     25  H   UNL     1       0.629  -0.152  26.184  0.00  0.00    +0.145 HD
ATOM     26  H   UNL     1       0.632  -0.163  27.923  0.00  0.00    +0.145 HD
ATOM     27  O   UNL     1       2.104   1.824  25.936  0.00  0.00    -0.276 OA
ENDBRANCH  22  23
ENDBRANCH   6  22
ENDBRANCH   2   6
ENDBRANCH   1   3
BRANCH   1  28
ATOM     28  C   UNL     1       7.577  -0.811  27.086  0.00  0.00    +0.149 C 
BRANCH  28  29
ATOM     29  O   UNL     1       7.871   0.544  27.483  0.00  0.00    -0.389 OA
ATOM     30  H   UNL     1       8.832   0.673  27.408  0.00  0.00    +0.210 HD
ENDBRANCH  28  29
BRANCH  28  31
ATOM     31  C   UNL     1       7.955  -0.982  25.591  0.00  0.00    +0.118 C 
BRANCH  31  32
ATOM     32  N   UNL     1       6.929  -0.484  24.642  0.00  0.00    -0.289 NA
ATOM     33  C   UNL     1       7.114  -0.952  23.235  0.00  0.00    +0.143 C 
ATOM     34  C   UNL     1       8.107  -0.101  22.423  0.00  0.00    +0.032 C 
ATOM     35  C   UNL     1       7.789   1.394  22.464  0.00  0.00    -0.005 C 
ATOM     36  C   UNL     1       7.722   1.875  23.908  0.00  0.00    +0.006 C 
ATOM     37  C   UNL     1       9.098   2.057  24.581  0.00  0.00    +0.005 C 
ATOM     38  C   UNL     1      10.350   2.192  23.698  0.00  0.00    +0.000 C 
ATOM     39  C   UNL     1      10.205   2.063  22.185  0.00  0.00    +0.000 C 
ATOM     40  C   UNL     1       8.786   2.242  21.678  0.00  0.00    +0.004 C 
ATOM     41  C   UNL     1       6.718   0.980  24.678  0.00  0.00    +0.089 C 
BRANCH  33  42
ATOM     42  C   UNL     1       7.542  -2.439  23.105  0.00  0.00    +0.231 C 
ATOM     43  N   UNL     1       6.549  -3.375  23.315  0.00  0.00    -0.309 N 
ATOM     44  H   UNL     1       5.681  -3.026  23.709  0.00  0.00    +0.149 HD
ATOM     45  O   UNL     1       8.689  -2.753  22.790  0.00  0.00    -0.274 OA
BRANCH  43  46
ATOM     46  C   UNL     1       6.793  -4.829  23.272  0.00  0.00    +0.026 C 
ATOM     47  C   UNL     1       7.045  -5.289  21.826  0.00  0.00    +0.031 C 
ATOM     48  C   UNL     1       5.551  -5.566  23.804  0.00  0.00    +0.031 C 
ATOM     49  C   UNL     1       7.988  -5.231  24.156  0.00  0.00    +0.031 C 
ENDBRANCH  43  46
ENDBRANCH  33  42
ENDBRANCH  31  32
ENDBRANCH  28  31
ENDBRANCH   1  28
BRANCH   1  50
ATOM     50  C   UNL     1       5.500  -2.179  26.438  0.00  0.00    +0.060 C 
BRANCH  50  51
ATOM     51  C   UNL     1       5.360  -3.595  26.965  0.00  0.00    -0.046 A 
ATOM     52  C   UNL     1       6.526  -4.282  27.332  0.00  0.00    +0.004 A 
ATOM     53  C   UNL     1       6.481  -5.638  27.654  0.00  0.00    +0.000 A 
ATOM     54  C   UNL     1       5.270  -6.324  27.613  0.00  0.00    +0.000 A 
ATOM     55  C   UNL     1       4.098  -5.644  27.299  0.00  0.00    +0.000 A 
ATOM     56  C   UNL     1       4.139  -4.281  27.007  0.00  0.00    +0.004 A 
ENDBRANCH  50  51
ENDBRANCH   1  50
TORSDOF 14
ENDMDL
MODEL 9
REMARK VINA RESULT:      -6.4      3.603      6.597
REMARK  Name = 
REMARK  17 active torsions:
REMARK  status: ('A' for Active; 'I' for Inactive)
REMARK    1  A    between atoms: C_10  and  C_12
REMARK    2  A    between atoms: N_14  and  C_15
REMARK    3  A    between atoms: C_15  and  C_17
REMARK    4  A    between atoms: C_15  and  C_21
REMARK    5  A    between atoms: C_17  and  C_18
REMARK    6  A    between atoms: N_23  and  C_24
REMARK    7  A    between atoms: C_24  and  C_26
REMARK    8  A    between atoms: C_24  and  C_33
REMARK    9  A    between atoms: C_26  and  C_27
REMARK   10  A    between atoms: C_33  and  C_35
REMARK   11  A    between atoms: C_33  and  O_56
REMARK   12  A    between atoms: C_35  and  N_36
REMARK   13  A    between atoms: C_47  and  C_49
REMARK   14  A    between atoms: N_51  and  C_52
REMARK   15  A    between atoms: C_52  and  C_53
REMARK   16  A    between atoms: C_52  and  C_54
REMARK   17  A    between atoms: C_52  and  C_55
REMARK                            x       y       z     vdW  Elec       q    Type
REMARK                         _______ _______ _______ _____ _____    ______ ____
ROOT
ATOM      1  C   UNL     1       5.795  -1.757  25.629  0.00  0.00    +0.107 C 
ENDROOT
BRANCH   1   3
ATOM      2  C   UNL     1       5.688  -3.674  27.284  0.00  0.00    +0.234 C 
ATOM      3  N   UNL     1       5.106  -2.678  26.539  0.00  0.00    -0.308 N 
ATOM      4  H   UNL     1       4.092  -2.569  26.605  0.00  0.00    +0.149 HD
ATOM      5  O   UNL     1       6.880  -3.970  27.200  0.00  0.00    -0.274 OA
BRANCH   2   6
ATOM      6  C   UNL     1       4.749  -4.398  28.273  0.00  0.00    +0.168 C 
BRANCH   6   8
ATOM      7  C   UNL     1       2.601  -5.295  27.342  0.00  0.00    +0.263 C 
ATOM      8  N   UNL     1       3.968  -5.321  27.441  0.00  0.00    -0.298 N 
ATOM      9  H   UNL     1       4.476  -5.914  26.785  0.00  0.00    +0.150 HD
ATOM     10  O   UNL     1       1.900  -4.540  27.995  0.00  0.00    -0.269 OA
BRANCH   7  17
ATOM     11  H   UNL     1       0.242  -9.437  21.542  0.00  0.00    +0.062 HD
ATOM     12  C   UNL     1       0.596  -8.718  22.274  0.00  0.00    +0.001 A 
ATOM     13  C   UNL     1       0.604  -9.042  23.629  0.00  0.00    +0.010 A 
ATOM     14  C   UNL     1       1.064  -8.119  24.580  0.00  0.00    +0.000 A 
ATOM     15  C   UNL     1       1.081  -8.427  25.946  0.00  0.00    +0.012 A 
ATOM     16  C   UNL     1       1.564  -7.501  26.859  0.00  0.00    +0.033 A 
ATOM     17  C   UNL     1       2.018  -6.283  26.376  0.00  0.00    +0.126 A 
ATOM     18  N   UNL     1       2.004  -5.936  25.055  0.00  0.00    -0.242 NA
ATOM     19  C   UNL     1       1.528  -6.843  24.176  0.00  0.00    +0.072 A 
ATOM     20  C   UNL     1       1.496  -6.542  22.817  0.00  0.00    +0.028 A 
ATOM     21  C   UNL     1       1.037  -7.464  21.868  0.00  0.00    +0.002 A 
ENDBRANCH   7  17
ENDBRANCH   6   8
BRANCH   6  22
ATOM     22  C   UNL     1       5.486  -5.192  29.347  0.00  0.00    +0.127 C 
BRANCH  22  23
ATOM     23  C   UNL     1       5.200  -6.675  29.324  0.00  0.00    +0.213 C 
ATOM     24  N   UNL     1       4.291  -7.084  30.258  0.00  0.00    -0.329 N 
ATOM     25  H   UNL     1       4.036  -8.063  30.282  0.00  0.00    +0.145 HD
ATOM     26  H   UNL     1       3.779  -6.437  30.843  0.00  0.00    +0.145 HD
ATOM     27  O   UNL     1       5.712  -7.477  28.553  0.00  0.00    -0.276 OA
ENDBRANCH  22  23
ENDBRANCH   6  22
ENDBRANCH   2   6
ENDBRANCH   1   3
BRANCH   1  28
ATOM     28  C   UNL     1       5.499  -0.275  25.969  0.00  0.00    +0.149 C 
BRANCH  28  29
ATOM     29  O   UNL     1       4.121  -0.152  26.382  0.00  0.00    -0.389 OA
ATOM     30  H   UNL     1       3.570  -0.167  25.581  0.00  0.00    +0.210 HD
ENDBRANCH  28  29
BRANCH  28  31
ATOM     31  C   UNL     1       5.753   0.708  24.796  0.00  0.00    +0.118 C 
BRANCH  31  32
ATOM     32  N   UNL     1       6.749   1.766  25.091  0.00  0.00    -0.289 NA
ATOM     33  C   UNL     1       6.865   2.815  24.034  0.00  0.00    +0.143 C 
ATOM     34  C   UNL     1       7.798   2.425  22.873  0.00  0.00    +0.032 C 
ATOM     35  C   UNL     1       9.180   1.968  23.342  0.00  0.00    -0.005 C 
ATOM     36  C   UNL     1       9.041   0.818  24.332  0.00  0.00    +0.006 C 
ATOM     37  C   UNL     1       8.712  -0.542  23.683  0.00  0.00    +0.005 C 
ATOM     38  C   UNL     1       8.988  -0.741  22.183  0.00  0.00    +0.000 C 
ATOM     39  C   UNL     1       9.505   0.438  21.364  0.00  0.00    +0.000 C 
ATOM     40  C   UNL     1      10.100   1.559  22.194  0.00  0.00    +0.004 C 
ATOM     41  C   UNL     1       8.087   1.261  25.470  0.00  0.00    +0.089 C 
BRANCH  33  42
ATOM     42  C   UNL     1       5.509   3.264  23.425  0.00  0.00    +0.231 C 
ATOM     43  N   UNL     1       4.716   4.057  24.231  0.00  0.00    -0.309 N 
ATOM     44  H   UNL     1       4.998   4.129  25.204  0.00  0.00    +0.149 HD
ATOM     45  O   UNL     1       5.188   2.963  22.275  0.00  0.00    -0.274 OA
BRANCH  43  46
ATOM     46  C   UNL     1       3.382   4.535  23.825  0.00  0.00    +0.026 C 
ATOM     47  C   UNL     1       3.485   5.410  22.563  0.00  0.00    +0.031 C 
ATOM     48  C   UNL     1       2.786   5.391  24.958  0.00  0.00    +0.031 C 
ATOM     49  C   UNL     1       2.415   3.367  23.565  0.00  0.00    +0.031 C 
ENDBRANCH  43  46
ENDBRANCH  33  42
ENDBRANCH  31  32
ENDBRANCH  28  31
ENDBRANCH   1  28
BRANCH   1  50
ATOM     50  C   UNL     1       5.640  -2.047  24.114  0.00  0.00    +0.060 C 
BRANCH  50  51
ATOM     51  C   UNL     1       5.838  -3.480  23.658  0.00  0.00    -0.046 A 
ATOM     52  C   UNL     1       7.151  -3.958  23.535  0.00  0.00    +0.004 A 
ATOM     53  C   UNL     1       7.403  -5.201  22.955  0.00  0.00    +0.000 A 
ATOM     54  C   UNL     1       6.347  -5.982  22.492  0.00  0.00    +0.000 A 
ATOM     55  C   UNL     1       5.037  -5.542  22.654  0.00  0.00    +0.000 A 
ATOM     56  C   UNL     1       4.783  -4.313  23.262  0.00  0.00    +0.004 A 
ENDBRANCH  50  51
ENDBRANCH   1  50
TORSDOF 14
ENDMDL
