MODEL 1
REMARK VINA RESULT:      -6.6      0.000      0.000
REMARK  Name = 
REMARK  13 active torsions:
REMARK  status: ('A' for Active; 'I' for Inactive)
REMARK    1  A    between atoms: C_1  and  C_2
REMARK    2  A    between atoms: C_3  and  O_51
REMARK    3  A    between atoms: C_9  and  C_43
REMARK    4  A    between atoms: C_11  and  O_12
REMARK    5  A    between atoms: O_12  and  C_13
REMARK    6  A    between atoms: N_20  and  C_42
REMARK    7  A    between atoms: C_29  and  C_33
REMARK    8  A    between atoms: N_35  and  S_36
REMARK    9  A    between atoms: S_36  and  C_39
REMARK   10  A    between atoms: C_45  and  C_48
REMARK   11  A    between atoms: C_48  and  C_49
REMARK   12  A    between atoms: C_48  and  C_50
REMARK   13  A    between atoms: O_51  and  C_52
REMARK                            x       y       z     vdW  Elec       q    Type
REMARK                         _______ _______ _______ _____ _____    ______ ____
ROOT
ATOM      1  C   UNL     1       4.553   2.078  25.763  0.00  0.00    +0.175 C 
ATOM      2  C   UNL     1       3.456   2.947  26.425  0.00  0.00    +0.058 C 
ATOM      3  C   UNL     1       3.387   2.303  27.846  0.00  0.00    +0.091 C 
ATOM      4  C   UNL     1       4.664   2.776  28.611  0.00  0.00    +0.219 C 
ATOM      5  N   UNL     1       5.595   1.833  29.054  0.00  0.00    -0.304 N 
ATOM      6  C   UNL     1       5.841   1.951  30.485  0.00  0.00    +0.132 C 
ATOM      7  C   UNL     1       6.881   1.761  28.320  0.00  0.00    +0.107 C 
ATOM      8  C   UNL     1       7.538   0.382  28.406  0.00  0.00    +0.019 C 
ATOM      9  C   UNL     1       8.229  -0.032  27.093  0.00  0.00    +0.006 C 
ATOM     10  C   UNL     1       7.973  -1.499  26.721  0.00  0.00    +0.027 C 
ATOM     11  C   UNL     1       6.570  -1.807  26.238  0.00  0.00    -0.031 C 
ATOM     12  C   UNL     1       5.702  -2.456  27.020  0.00  0.00    -0.025 C 
ATOM     13  C   UNL     1       4.392  -3.084  26.727  0.00  0.00    +0.046 C 
ATOM     14  C   UNL     1       2.929  -2.705  27.036  0.00  0.00    +0.119 C 
ATOM     15  N   UNL     1       2.543  -1.330  27.140  0.00  0.00    -0.301 N 
ATOM     16  H   UNL     1       2.200  -0.962  26.252  0.00  0.00    +0.150 HD
ATOM     17  C   UNL     1       2.936  -0.383  28.085  0.00  0.00    +0.218 C 
ATOM     18  O   UNL     1       3.090  -0.560  29.279  0.00  0.00    -0.275 OA
ATOM     19  C   UNL     1       3.726  -3.453  28.053  0.00  0.00    +0.046 C 
ATOM     20  O   UNL     1       4.838   3.986  28.823  0.00  0.00    -0.275 OA
ATOM     21  C   UNL     1       3.156   0.900  27.328  0.00  0.00    +0.090 C 
ATOM     22  C   UNL     1       4.276   0.696  26.313  0.00  0.00    +0.058 C 
ENDROOT
BRANCH  14  23
ATOM     23  C   UNL     1       1.883  -3.517  26.282  0.00  0.00    +0.256 C 
ATOM     24  N   UNL     1       2.390  -4.615  25.590  0.00  0.00    -0.188 N 
ATOM     25  H   UNL     1       3.358  -4.901  25.697  0.00  0.00    +0.176 HD
ATOM     26  O   UNL     1       0.705  -3.204  26.327  0.00  0.00    -0.272 OA
BRANCH  24  27
ATOM     27  S   UNL     1       1.486  -5.605  24.619  0.00  0.00    +0.048 S 
ATOM     28  O   UNL     1       0.866  -4.780  23.609  0.00  0.00    -0.155 OA
ATOM     29  O   UNL     1       0.684  -6.393  25.530  0.00  0.00    -0.155 OA
BRANCH  27  30
ATOM     30  C   UNL     1       2.626  -6.724  23.758  0.00  0.00    +0.151 C 
ATOM     31  C   UNL     1       4.043  -6.753  24.258  0.00  0.00    +0.030 C 
ATOM     32  C   UNL     1       3.714  -6.014  22.990  0.00  0.00    +0.030 C 
ENDBRANCH  27  30
ENDBRANCH  24  27
ENDBRANCH  14  23
BRANCH   1  33
ATOM     33  O   UNL     1       4.672   1.956  24.347  0.00  0.00    -0.488 OA
BRANCH  33  40
ATOM     34  C   UNL     1      10.433   4.012  23.609  0.00  0.00    +0.050 C 
ATOM     35  C   UNL     1       8.941   4.198  23.765  0.00  0.00    +0.017 A 
ATOM     36  C   UNL     1       8.136   3.052  23.701  0.00  0.00    +0.082 A 
ATOM     37  N   UNL     1       8.726   1.849  23.478  0.00  0.00    -0.244 NA
ATOM     38  C   UNL     1       7.954   0.746  23.458  0.00  0.00    +0.100 A 
ATOM     39  C   UNL     1       6.605   0.800  23.684  0.00  0.00    +0.076 A 
ATOM     40  C   UNL     1       5.986   2.003  23.942  0.00  0.00    +0.132 A 
ATOM     41  C   UNL     1       6.741   3.189  23.912  0.00  0.00    +0.043 A 
ATOM     42  C   UNL     1       6.184   4.476  24.074  0.00  0.00    +0.017 A 
ATOM     43  C   UNL     1       7.001   5.610  24.106  0.00  0.00    +0.047 A 
ATOM     44  C   UNL     1       8.384   5.475  23.986  0.00  0.00    +0.125 A 
BRANCH  38  45
ATOM     45  C   UNL     1       8.519  -0.601  23.328  0.00  0.00    +0.127 A 
ATOM     46  S   UNL     1      10.148  -0.979  23.681  0.00  0.00    -0.074 S 
ATOM     47  C   UNL     1       9.785  -2.650  23.492  0.00  0.00    +0.070 A 
ATOM     48  C   UNL     1       8.456  -2.830  23.136  0.00  0.00    +0.052 A 
ATOM     49  N   UNL     1       7.765  -1.647  23.020  0.00  0.00    -0.242 NA
BRANCH  48  50
ATOM     50  C   UNL     1       7.740  -4.120  22.868  0.00  0.00    +0.032 C 
ATOM     51  C   UNL     1       6.532  -3.906  21.952  0.00  0.00    +0.014 C 
ATOM     52  C   UNL     1       7.293  -4.813  24.161  0.00  0.00    +0.014 C 
ENDBRANCH  48  50
ENDBRANCH  38  45
BRANCH  44  53
ATOM     53  O   UNL     1       9.276   6.512  24.063  0.00  0.00    -0.495 OA
ATOM     54  C   UNL     1       9.511   7.108  25.331  0.00  0.00    +0.277 C 
ENDBRANCH  44  53
ENDBRANCH  33  40
ENDBRANCH   1  33
TORSDOF 8
ENDMDL
MODEL 2
REMARK VINA RESULT:      -6.5      2.542      9.866
REMARK  Name = 
REMARK  13 active torsions:
REMARK  status: ('A' for Active; 'I' for Inactive)
REMARK    1  A    between atoms: C_1  and  C_2
REMARK    2  A    between atoms: C_3  and  O_51
REMARK    3  A    between atoms: C_9  and  C_43
REMARK    4  A    between atoms: C_11  and  O_12
REMARK    5  A    between atoms: O_12  and  C_13
REMARK    6  A    between atoms: N_20  and  C_42
REMARK    7  A    between atoms: C_29  and  C_33
REMARK    8  A    between atoms: N_35  and  S_36
REMARK    9  A    between atoms: S_36  and  C_39
REMARK   10  A    between atoms: C_45  and  C_48
REMARK   11  A    between atoms: C_48  and  C_49
REMARK   12  A    between atoms: C_48  and  C_50
REMARK   13  A    between atoms: O_51  and  C_52
REMARK                            x       y       z     vdW  Elec       q    Type
REMARK                         _______ _______ _______ _____ _____    ______ ____
ROOT
ATOM      1  C   UNL     1       4.959  -3.995  23.169  0.00  0.00    +0.175 C 
ATOM      2  C   UNL     1       5.719  -4.412  21.886  0.00  0.00    +0.058 C 
ATOM      3  C   UNL     1       7.189  -4.079  22.294  0.00  0.00    +0.091 C 
ATOM      4  C   UNL     1       7.636  -5.190  23.297  0.00  0.00    +0.219 C 
ATOM      5  N   UNL     1       7.993  -4.841  24.602  0.00  0.00    -0.304 N 
ATOM      6  C   UNL     1       9.327  -5.319  24.940  0.00  0.00    +0.132 C 
ATOM      7  C   UNL     1       7.038  -5.195  25.678  0.00  0.00    +0.107 C 
ATOM      8  C   UNL     1       7.148  -4.277  26.897  0.00  0.00    +0.019 C 
ATOM      9  C   UNL     1       5.781  -3.964  27.535  0.00  0.00    +0.006 C 
ATOM     10  C   UNL     1       5.632  -2.489  27.932  0.00  0.00    +0.027 C 
ATOM     11  C   UNL     1       5.466  -1.522  26.777  0.00  0.00    -0.031 C 
ATOM     12  C   UNL     1       6.469  -0.721  26.404  0.00  0.00    -0.025 C 
ATOM     13  C   UNL     1       6.507   0.452  25.500  0.00  0.00    +0.046 C 
ATOM     14  C   UNL     1       7.048   0.691  24.075  0.00  0.00    +0.119 C 
ATOM     15  N   UNL     1       7.071  -0.377  23.121  0.00  0.00    -0.301 N 
ATOM     16  H   UNL     1       6.230  -0.388  22.542  0.00  0.00    +0.150 HD
ATOM     17  C   UNL     1       7.810  -1.558  23.151  0.00  0.00    +0.218 C 
ATOM     18  O   UNL     1       8.964  -1.690  23.513  0.00  0.00    -0.275 OA
ATOM     19  C   UNL     1       7.969   0.818  25.243  0.00  0.00    +0.046 C 
ATOM     20  O   UNL     1       7.674  -6.373  22.925  0.00  0.00    -0.275 OA
ATOM     21  C   UNL     1       6.887  -2.644  22.666  0.00  0.00    +0.090 C 
ATOM     22  C   UNL     1       5.703  -2.757  23.623  0.00  0.00    +0.058 C 
ENDROOT
BRANCH  14  23
ATOM     23  C   UNL     1       6.606   1.999  23.431  0.00  0.00    +0.256 C 
ATOM     24  N   UNL     1       7.325   3.119  23.841  0.00  0.00    -0.188 N 
ATOM     25  H   UNL     1       8.151   3.027  24.424  0.00  0.00    +0.176 HD
ATOM     26  O   UNL     1       5.702   2.011  22.612  0.00  0.00    -0.272 OA
BRANCH  24  27
ATOM     27  S   UNL     1       6.989   4.670  23.367  0.00  0.00    +0.048 S 
ATOM     28  O   UNL     1       5.655   4.986  23.819  0.00  0.00    -0.155 OA
ATOM     29  O   UNL     1       7.327   4.713  21.960  0.00  0.00    -0.155 OA
BRANCH  27  30
ATOM     30  C   UNL     1       8.122   5.776  24.254  0.00  0.00    +0.151 C 
ATOM     31  C   UNL     1       9.228   6.392  23.444  0.00  0.00    +0.030 C 
ATOM     32  C   UNL     1       9.530   5.244  24.368  0.00  0.00    +0.030 C 
ENDBRANCH  27  30
ENDBRANCH  24  27
ENDBRANCH  14  23
BRANCH   1  33
ATOM     33  O   UNL     1       3.569  -3.674  23.156  0.00  0.00    -0.488 OA
BRANCH  33  40
ATOM     34  C   UNL     1       1.479  -7.847  27.179  0.00  0.00    +0.050 C 
ATOM     35  C   UNL     1       1.896  -7.389  25.800  0.00  0.00    +0.017 A 
ATOM     36  C   UNL     1       2.134  -6.019  25.616  0.00  0.00    +0.082 A 
ATOM     37  N   UNL     1       1.952  -5.177  26.667  0.00  0.00    -0.244 NA
ATOM     38  C   UNL     1       2.220  -3.868  26.497  0.00  0.00    +0.100 A 
ATOM     39  C   UNL     1       2.695  -3.371  25.314  0.00  0.00    +0.076 A 
ATOM     40  C   UNL     1       2.915  -4.209  24.242  0.00  0.00    +0.132 A 
ATOM     41  C   UNL     1       2.591  -5.572  24.351  0.00  0.00    +0.043 A 
ATOM     42  C   UNL     1       2.697  -6.490  23.285  0.00  0.00    +0.017 A 
ATOM     43  C   UNL     1       2.429  -7.848  23.480  0.00  0.00    +0.047 A 
ATOM     44  C   UNL     1       2.060  -8.310  24.744  0.00  0.00    +0.125 A 
BRANCH  38  45
ATOM     45  C   UNL     1       2.152  -2.907  27.603  0.00  0.00    +0.127 A 
ATOM     46  S   UNL     1       2.194  -3.361  29.250  0.00  0.00    -0.074 S 
ATOM     47  C   UNL     1       2.311  -1.701  29.688  0.00  0.00    +0.070 A 
ATOM     48  C   UNL     1       2.277  -0.889  28.563  0.00  0.00    +0.052 A 
ATOM     49  N   UNL     1       2.156  -1.599  27.392  0.00  0.00    -0.242 NA
BRANCH  48  50
ATOM     50  C   UNL     1       2.343   0.608  28.504  0.00  0.00    +0.032 C 
ATOM     51  C   UNL     1       2.339   1.108  27.057  0.00  0.00    +0.014 C 
ATOM     52  C   UNL     1       3.569   1.162  29.239  0.00  0.00    +0.014 C 
ENDBRANCH  48  50
ENDBRANCH  38  45
BRANCH  44  53
ATOM     53  O   UNL     1       1.833  -9.625  25.056  0.00  0.00    -0.495 OA
ATOM     54  C   UNL     1       0.601 -10.210  24.659  0.00  0.00    +0.277 C 
ENDBRANCH  44  53
ENDBRANCH  33  40
ENDBRANCH   1  33
TORSDOF 8
ENDMDL
MODEL 3
REMARK VINA RESULT:      -6.3      2.791      6.636
REMARK  Name = 
REMARK  13 active torsions:
REMARK  status: ('A' for Active; 'I' for Inactive)
REMARK    1  A    between atoms: C_1  and  C_2
REMARK    2  A    between atoms: C_3  and  O_51
REMARK    3  A    between atoms: C_9  and  C_43
REMARK    4  A    between atoms: C_11  and  O_12
REMARK    5  A    between atoms: O_12  and  C_13
REMARK    6  A    between atoms: N_20  and  C_42
REMARK    7  A    between atoms: C_29  and  C_33
REMARK    8  A    between atoms: N_35  and  S_36
REMARK    9  A    between atoms: S_36  and  C_39
REMARK   10  A    between atoms: C_45  and  C_48
REMARK   11  A    between atoms: C_48  and  C_49
REMARK   12  A    between atoms: C_48  and  C_50
REMARK   13  A    between atoms: O_51  and  C_52
REMARK                            x       y       z     vdW  Elec       q    Type
REMARK                         _______ _______ _______ _____ _____    ______ ____
ROOT
ATOM      1  C   UNL     1       7.038  -1.974  24.556  0.00  0.00    +0.175 C 
ATOM      2  C   UNL     1       8.338  -1.705  25.352  0.00  0.00    +0.058 C 
ATOM      3  C   UNL     1       8.623  -3.124  25.938  0.00  0.00    +0.091 C 
ATOM      4  C   UNL     1       9.154  -3.997  24.757  0.00  0.00    +0.219 C 
ATOM      5  N   UNL     1       8.443  -5.130  24.357  0.00  0.00    -0.304 N 
ATOM      6  C   UNL     1       9.279  -6.323  24.374  0.00  0.00    +0.132 C 
ATOM      7  C   UNL     1       7.703  -5.044  23.076  0.00  0.00    +0.107 C 
ATOM      8  C   UNL     1       6.501  -5.989  23.019  0.00  0.00    +0.019 C 
ATOM      9  C   UNL     1       5.292  -5.373  22.290  0.00  0.00    +0.006 C 
ATOM     10  C   UNL     1       3.961  -5.652  23.001  0.00  0.00    +0.027 C 
ATOM     11  C   UNL     1       3.745  -4.886  24.291  0.00  0.00    -0.031 C 
ATOM     12  C   UNL     1       3.843  -5.497  25.476  0.00  0.00    -0.025 C 
ATOM     13  C   UNL     1       3.456  -5.066  26.840  0.00  0.00    +0.046 C 
ATOM     14  C   UNL     1       4.245  -4.603  28.082  0.00  0.00    +0.119 C 
ATOM     15  N   UNL     1       5.491  -3.913  27.933  0.00  0.00    -0.301 N 
ATOM     16  H   UNL     1       5.367  -2.900  27.929  0.00  0.00    +0.150 HD
ATOM     17  C   UNL     1       6.693  -4.386  27.407  0.00  0.00    +0.218 C 
ATOM     18  O   UNL     1       7.179  -5.489  27.572  0.00  0.00    -0.275 OA
ATOM     19  C   UNL     1       4.037  -6.062  27.845  0.00  0.00    +0.046 C 
ATOM     20  O   UNL     1      10.208  -3.676  24.184  0.00  0.00    -0.275 OA
ATOM     21  C   UNL     1       7.257  -3.266  26.575  0.00  0.00    +0.090 C 
ATOM     22  C   UNL     1       6.290  -2.952  25.437  0.00  0.00    +0.058 C 
ENDROOT
BRANCH  14  23
ATOM     23  C   UNL     1       3.397  -3.981  29.185  0.00  0.00    +0.256 C 
ATOM     24  N   UNL     1       2.494  -3.014  28.747  0.00  0.00    -0.188 N 
ATOM     25  H   UNL     1       2.345  -2.846  27.757  0.00  0.00    +0.176 HD
ATOM     26  O   UNL     1       3.520  -4.348  30.341  0.00  0.00    -0.272 OA
BRANCH  24  27
ATOM     27  S   UNL     1       1.524  -2.122  29.748  0.00  0.00    +0.048 S 
ATOM     28  O   UNL     1       2.371  -1.215  30.485  0.00  0.00    -0.155 OA
ATOM     29  O   UNL     1       0.700  -3.094  30.436  0.00  0.00    -0.155 OA
BRANCH  27  30
ATOM     30  C   UNL     1       0.443  -1.103  28.705  0.00  0.00    +0.151 C 
ATOM     31  C   UNL     1       0.728  -1.118  27.229  0.00  0.00    +0.030 C 
ATOM     32  C   UNL     1       1.146   0.066  28.058  0.00  0.00    +0.030 C 
ENDBRANCH  27  30
ENDBRANCH  24  27
ENDBRANCH  14  23
BRANCH   1  33
ATOM     33  O   UNL     1       6.129  -0.930  24.214  0.00  0.00    -0.488 OA
BRANCH  33  40
ATOM     34  C   UNL     1       6.694   3.272  28.685  0.00  0.00    +0.050 C 
ATOM     35  C   UNL     1       5.997   2.127  27.986  0.00  0.00    +0.017 A 
ATOM     36  C   UNL     1       6.468   1.759  26.718  0.00  0.00    +0.082 A 
ATOM     37  N   UNL     1       7.497   2.460  26.173  0.00  0.00    -0.244 NA
ATOM     38  C   UNL     1       7.973   2.078  24.972  0.00  0.00    +0.100 A 
ATOM     39  C   UNL     1       7.471   0.994  24.304  0.00  0.00    +0.076 A 
ATOM     40  C   UNL     1       6.448   0.249  24.847  0.00  0.00    +0.132 A 
ATOM     41  C   UNL     1       5.877   0.646  26.069  0.00  0.00    +0.043 A 
ATOM     42  C   UNL     1       4.769   0.002  26.662  0.00  0.00    +0.017 A 
ATOM     43  C   UNL     1       4.297   0.401  27.915  0.00  0.00    +0.047 A 
ATOM     44  C   UNL     1       4.927   1.441  28.598  0.00  0.00    +0.125 A 
BRANCH  38  45
ATOM     45  C   UNL     1       9.145   2.711  24.360  0.00  0.00    +0.127 A 
ATOM     46  S   UNL     1      10.216   1.895  23.307  0.00  0.00    -0.074 S 
ATOM     47  C   UNL     1      10.999   3.388  22.970  0.00  0.00    +0.070 A 
ATOM     48  C   UNL     1      10.429   4.422  23.700  0.00  0.00    +0.052 A 
ATOM     49  N   UNL     1       9.396   4.004  24.506  0.00  0.00    -0.242 NA
BRANCH  48  50
ATOM     50  C   UNL     1      10.817   5.870  23.706  0.00  0.00    +0.032 C 
ATOM     51  C   UNL     1      12.291   6.050  24.078  0.00  0.00    +0.014 C 
ATOM     52  C   UNL     1       9.940   6.700  24.651  0.00  0.00    +0.014 C 
ENDBRANCH  48  50
ENDBRANCH  38  45
BRANCH  44  53
ATOM     53  O   UNL     1       4.581   1.870  29.853  0.00  0.00    -0.495 OA
ATOM     54  C   UNL     1       3.216   2.165  30.114  0.00  0.00    +0.277 C 
ENDBRANCH  44  53
ENDBRANCH  33  40
ENDBRANCH   1  33
TORSDOF 8
ENDMDL
MODEL 4
REMARK VINA RESULT:      -6.3      2.387      5.189
REMARK  Name = 
REMARK  13 active torsions:
REMARK  status: ('A' for Active; 'I' for Inactive)
REMARK    1  A    between atoms: C_1  and  C_2
REMARK    2  A    between atoms: C_3  and  O_51
REMARK    3  A    between atoms: C_9  and  C_43
REMARK    4  A    between atoms: C_11  and  O_12
REMARK    5  A    between atoms: O_12  and  C_13
REMARK    6  A    between atoms: N_20  and  C_42
REMARK    7  A    between atoms: C_29  and  C_33
REMARK    8  A    between atoms: N_35  and  S_36
REMARK    9  A    between atoms: S_36  and  C_39
REMARK   10  A    between atoms: C_45  and  C_48
REMARK   11  A    between atoms: C_48  and  C_49
REMARK   12  A    between atoms: C_48  and  C_50
REMARK   13  A    between atoms: O_51  and  C_52
REMARK                            x       y       z     vdW  Elec       q    Type
REMARK                         _______ _______ _______ _____ _____    ______ ____
ROOT
ATOM      1  C   UNL     1       3.828   2.907  25.025  0.00  0.00    +0.175 C 
ATOM      2  C   UNL     1       2.378   3.354  24.720  0.00  0.00    +0.058 C 
ATOM      3  C   UNL     1       1.777   3.407  26.161  0.00  0.00    +0.091 C 
ATOM      4  C   UNL     1       2.362   4.686  26.841  0.00  0.00    +0.219 C 
ATOM      5  N   UNL     1       3.149   4.562  27.988  0.00  0.00    -0.304 N 
ATOM      6  C   UNL     1       2.627   5.362  29.088  0.00  0.00    +0.132 C 
ATOM      7  C   UNL     1       4.604   4.796  27.834  0.00  0.00    +0.107 C 
ATOM      8  C   UNL     1       5.440   4.055  28.880  0.00  0.00    +0.019 C 
ATOM      9  C   UNL     1       6.761   3.506  28.308  0.00  0.00    +0.006 C 
ATOM     10  C   UNL     1       7.075   2.084  28.792  0.00  0.00    +0.027 C 
ATOM     11  C   UNL     1       6.207   0.993  28.198  0.00  0.00    -0.031 C 
ATOM     12  C   UNL     1       5.249   0.407  28.923  0.00  0.00    -0.025 C 
ATOM     13  C   UNL     1       4.441  -0.812  28.685  0.00  0.00    +0.046 C 
ATOM     14  C   UNL     1       2.973  -1.065  28.287  0.00  0.00    +0.119 C 
ATOM     15  N   UNL     1       2.273  -0.122  27.467  0.00  0.00    -0.301 N 
ATOM     16  H   UNL     1       2.333  -0.361  26.476  0.00  0.00    +0.150 HD
ATOM     17  C   UNL     1       1.916   1.194  27.759  0.00  0.00    +0.218 C 
ATOM     18  O   UNL     1       1.502   1.621  28.821  0.00  0.00    -0.275 OA
ATOM     19  C   UNL     1       3.320  -0.860  29.724  0.00  0.00    +0.046 C 
ATOM     20  O   UNL     1       2.118   5.803  26.358  0.00  0.00    -0.275 OA
ATOM     21  C   UNL     1       2.167   1.986  26.504  0.00  0.00    +0.090 C 
ATOM     22  C   UNL     1       3.653   1.924  26.163  0.00  0.00    +0.058 C 
ENDROOT
BRANCH  14  23
ATOM     23  C   UNL     1       2.657  -2.497  27.876  0.00  0.00    +0.256 C 
ATOM     24  N   UNL     1       3.253  -2.904  26.685  0.00  0.00    -0.188 N 
ATOM     25  H   UNL     1       3.937  -2.319  26.215  0.00  0.00    +0.176 HD
ATOM     26  O   UNL     1       1.950  -3.201  28.578  0.00  0.00    -0.272 OA
BRANCH  24  27
ATOM     27  S   UNL     1       3.001  -4.375  25.969  0.00  0.00    +0.048 S 
ATOM     28  O   UNL     1       1.598  -4.467  25.641  0.00  0.00    -0.155 OA
ATOM     29  O   UNL     1       3.620  -5.336  26.857  0.00  0.00    -0.155 OA
BRANCH  27  30
ATOM     30  C   UNL     1       3.911  -4.389  24.399  0.00  0.00    +0.151 C 
ATOM     31  C   UNL     1       3.447  -5.375  23.364  0.00  0.00    +0.030 C 
ATOM     32  C   UNL     1       4.692  -5.658  24.158  0.00  0.00    +0.030 C 
ENDBRANCH  27  30
ENDBRANCH  24  27
ENDBRANCH  14  23
BRANCH   1  33
ATOM     33  O   UNL     1       4.650   2.279  24.043  0.00  0.00    -0.488 OA
BRANCH  33  40
ATOM     34  C   UNL     1      10.370   0.150  24.884  0.00  0.00    +0.050 C 
ATOM     35  C   UNL     1       8.872  -0.011  24.759  0.00  0.00    +0.017 A 
ATOM     36  C   UNL     1       8.094   1.155  24.739  0.00  0.00    +0.082 A 
ATOM     37  N   UNL     1       8.715   2.357  24.861  0.00  0.00    -0.244 NA
ATOM     38  C   UNL     1       7.969   3.477  24.802  0.00  0.00    +0.100 A 
ATOM     39  C   UNL     1       6.616   3.438  24.594  0.00  0.00    +0.076 A 
ATOM     40  C   UNL     1       5.967   2.233  24.438  0.00  0.00    +0.132 A 
ATOM     41  C   UNL     1       6.694   1.036  24.554  0.00  0.00    +0.043 A 
ATOM     42  C   UNL     1       6.106  -0.247  24.500  0.00  0.00    +0.017 A 
ATOM     43  C   UNL     1       6.896  -1.399  24.548  0.00  0.00    +0.047 A 
ATOM     44  C   UNL     1       8.283  -1.288  24.644  0.00  0.00    +0.125 A 
BRANCH  38  45
ATOM     45  C   UNL     1       8.566   4.816  24.820  0.00  0.00    +0.127 A 
ATOM     46  S   UNL     1       7.731   6.215  25.335  0.00  0.00    -0.074 S 
ATOM     47  C   UNL     1       9.198   7.107  25.241  0.00  0.00    +0.070 A 
ATOM     48  C   UNL     1      10.237   6.305  24.790  0.00  0.00    +0.052 A 
ATOM     49  N   UNL     1       9.844   5.013  24.529  0.00  0.00    -0.242 NA
BRANCH  48  50
ATOM     50  C   UNL     1      11.668   6.691  24.559  0.00  0.00    +0.032 C 
ATOM     51  C   UNL     1      12.427   5.592  23.811  0.00  0.00    +0.014 C 
ATOM     52  C   UNL     1      12.395   7.024  25.867  0.00  0.00    +0.014 C 
ENDBRANCH  48  50
ENDBRANCH  38  45
BRANCH  44  53
ATOM     53  O   UNL     1       9.150  -2.350  24.641  0.00  0.00    -0.495 OA
ATOM     54  C   UNL     1       8.781  -3.525  25.347  0.00  0.00    +0.277 C 
ENDBRANCH  44  53
ENDBRANCH  33  40
ENDBRANCH   1  33
TORSDOF 8
ENDMDL
MODEL 5
REMARK VINA RESULT:      -5.8      3.538      8.529
REMARK  Name = 
REMARK  13 active torsions:
REMARK  status: ('A' for Active; 'I' for Inactive)
REMARK    1  A    between atoms: C_1  and  C_2
REMARK    2  A    between atoms: C_3  and  O_51
REMARK    3  A    between atoms: C_9  and  C_43
REMARK    4  A    between atoms: C_11  and  O_12
REMARK    5  A    between atoms: O_12  and  C_13
REMARK    6  A    between atoms: N_20  and  C_42
REMARK    7  A    between atoms: C_29  and  C_33
REMARK    8  A    between atoms: N_35  and  S_36
REMARK    9  A    between atoms: S_36  and  C_39
REMARK   10  A    between atoms: C_45  and  C_48
REMARK   11  A    between atoms: C_48  and  C_49
REMARK   12  A    between atoms: C_48  and  C_50
REMARK   13  A    between atoms: O_51  and  C_52
REMARK                            x       y       z     vdW  Elec       q    Type
REMARK                         _______ _______ _______ _____ _____    ______ ____
ROOT
ATOM      1  C   UNL     1       6.074  -1.898  23.904  0.00  0.00    +0.175 C 
ATOM      2  C   UNL     1       7.013  -2.107  22.690  0.00  0.00    +0.058 C 
ATOM      3  C   UNL     1       7.958  -0.872  22.833  0.00  0.00    +0.091 C 
ATOM      4  C   UNL     1       8.918  -1.182  24.026  0.00  0.00    +0.219 C 
ATOM      5  N   UNL     1       8.910  -0.357  25.154  0.00  0.00    -0.304 N 
ATOM      6  C   UNL     1      10.239   0.163  25.448  0.00  0.00    +0.132 C 
ATOM      7  C   UNL     1       8.293  -0.905  26.384  0.00  0.00    +0.107 C 
ATOM      8  C   UNL     1       7.752   0.184  27.313  0.00  0.00    +0.019 C 
ATOM      9  C   UNL     1       6.434  -0.219  28.002  0.00  0.00    +0.006 C 
ATOM     10  C   UNL     1       5.404   0.918  28.031  0.00  0.00    +0.027 C 
ATOM     11  C   UNL     1       4.764   1.245  26.697  0.00  0.00    -0.031 C 
ATOM     12  C   UNL     1       5.106   2.348  26.024  0.00  0.00    -0.025 C 
ATOM     13  C   UNL     1       4.489   3.020  24.856  0.00  0.00    +0.046 C 
ATOM     14  C   UNL     1       4.867   3.142  23.366  0.00  0.00    +0.119 C 
ATOM     15  N   UNL     1       5.587   2.089  22.713  0.00  0.00    -0.301 N 
ATOM     16  H   UNL     1       4.961   1.428  22.254  0.00  0.00    +0.150 HD
ATOM     17  C   UNL     1       6.885   1.639  22.955  0.00  0.00    +0.218 C 
ATOM     18  O   UNL     1       7.861   2.320  23.207  0.00  0.00    -0.275 OA
ATOM     19  C   UNL     1       5.451   4.097  24.354  0.00  0.00    +0.046 C 
ATOM     20  O   UNL     1       9.682  -2.157  23.961  0.00  0.00    -0.275 OA
ATOM     21  C   UNL     1       6.831   0.137  22.866  0.00  0.00    +0.090 C 
ATOM     22  C   UNL     1       5.895  -0.395  23.947  0.00  0.00    +0.058 C 
ENDROOT
BRANCH  14  23
ATOM     23  C   UNL     1       3.770   3.700  22.469  0.00  0.00    +0.256 C 
ATOM     24  N   UNL     1       2.869   2.749  21.994  0.00  0.00    -0.188 N 
ATOM     25  H   UNL     1       2.890   1.792  22.333  0.00  0.00    +0.176 HD
ATOM     26  O   UNL     1       3.713   4.895  22.231  0.00  0.00    -0.272 OA
BRANCH  24  27
ATOM     27  S   UNL     1       1.642   3.073  20.931  0.00  0.00    +0.048 S 
ATOM     28  O   UNL     1       0.690   3.921  21.608  0.00  0.00    -0.155 OA
ATOM     29  O   UNL     1       1.248   1.782  20.409  0.00  0.00    -0.155 OA
BRANCH  27  30
ATOM     30  C   UNL     1       2.337   4.047  19.566  0.00  0.00    +0.151 C 
ATOM     31  C   UNL     1       1.687   5.374  19.291  0.00  0.00    +0.030 C 
ATOM     32  C   UNL     1       1.402   4.203  18.391  0.00  0.00    +0.030 C 
ENDBRANCH  27  30
ENDBRANCH  24  27
ENDBRANCH  14  23
BRANCH   1  33
ATOM     33  O   UNL     1       4.775  -2.483  23.968  0.00  0.00    -0.488 OA
BRANCH  33  40
ATOM     34  C   UNL     1       5.185  -4.658  29.718  0.00  0.00    +0.050 C 
ATOM     35  C   UNL     1       5.496  -4.679  28.238  0.00  0.00    +0.017 A 
ATOM     36  C   UNL     1       4.776  -3.806  27.412  0.00  0.00    +0.082 A 
ATOM     37  N   UNL     1       3.825  -3.012  27.970  0.00  0.00    -0.244 NA
ATOM     38  C   UNL     1       3.164  -2.145  27.179  0.00  0.00    +0.100 A 
ATOM     39  C   UNL     1       3.442  -2.023  25.844  0.00  0.00    +0.076 A 
ATOM     40  C   UNL     1       4.422  -2.795  25.260  0.00  0.00    +0.132 A 
ATOM     41  C   UNL     1       5.096  -3.757  26.031  0.00  0.00    +0.043 A 
ATOM     42  C   UNL     1       6.050  -4.655  25.506  0.00  0.00    +0.017 A 
ATOM     43  C   UNL     1       6.738  -5.538  26.342  0.00  0.00    +0.047 A 
ATOM     44  C   UNL     1       6.490  -5.533  27.714  0.00  0.00    +0.125 A 
BRANCH  38  45
ATOM     45  C   UNL     1       2.198  -1.181  27.714  0.00  0.00    +0.127 A 
ATOM     46  S   UNL     1       1.399  -1.378  29.212  0.00  0.00    -0.074 S 
ATOM     47  C   UNL     1       0.766   0.215  29.066  0.00  0.00    +0.070 A 
ATOM     48  C   UNL     1       1.166   0.799  27.872  0.00  0.00    +0.052 A 
ATOM     49  N   UNL     1       1.955  -0.027  27.108  0.00  0.00    -0.242 NA
BRANCH  48  50
ATOM     50  C   UNL     1       0.829   2.167  27.356  0.00  0.00    +0.032 C 
ATOM     51  C   UNL     1       0.840   2.202  25.826  0.00  0.00    +0.014 C 
ATOM     52  C   UNL     1       1.774   3.241  27.906  0.00  0.00    +0.014 C 
ENDBRANCH  48  50
ENDBRANCH  38  45
BRANCH  44  53
ATOM     53  O   UNL     1       7.150  -6.315  28.627  0.00  0.00    -0.495 OA
ATOM     54  C   UNL     1       6.413  -7.315  29.317  0.00  0.00    +0.277 C 
ENDBRANCH  44  53
ENDBRANCH  33  40
ENDBRANCH   1  33
TORSDOF 8
ENDMDL
MODEL 6
REMARK VINA RESULT:      -5.6      2.663      7.714
REMARK  Name = 
REMARK  13 active torsions:
REMARK  status: ('A' for Active; 'I' for Inactive)
REMARK    1  A    between atoms: C_1  and  C_2
REMARK    2  A    between atoms: C_3  and  O_51
REMARK    3  A    between atoms: C_9  and  C_43
REMARK    4  A    between atoms: C_11  and  O_12
REMARK    5  A    between atoms: O_12  and  C_13
REMARK    6  A    between atoms: N_20  and  C_42
REMARK    7  A    between atoms: C_29  and  C_33
REMARK    8  A    between atoms: N_35  and  S_36
REMARK    9  A    between atoms: S_36  and  C_39
REMARK   10  A    between atoms: C_45  and  C_48
REMARK   11  A    between atoms: C_48  and  C_49
REMARK   12  A    between atoms: C_48  and  C_50
REMARK   13  A    between atoms: O_51  and  C_52
REMARK                            x       y       z     vdW  Elec       q    Type
REMARK                         _______ _______ _______ _____ _____    ______ ____
ROOT
ATOM      1  C   UNL     1       4.163   1.764  27.309  0.00  0.00    +0.175 C 
ATOM      2  C   UNL     1       4.805   1.443  28.681  0.00  0.00    +0.058 C 
ATOM      3  C   UNL     1       5.461   2.817  29.028  0.00  0.00    +0.091 C 
ATOM      4  C   UNL     1       4.299   3.774  29.443  0.00  0.00    +0.219 C 
ATOM      5  N   UNL     1       4.054   4.931  28.701  0.00  0.00    -0.304 N 
ATOM      6  C   UNL     1       4.074   6.122  29.539  0.00  0.00    +0.132 C 
ATOM      7  C   UNL     1       2.849   4.935  27.838  0.00  0.00    +0.107 C 
ATOM      8  C   UNL     1       2.979   5.877  26.640  0.00  0.00    +0.019 C 
ATOM      9  C   UNL     1       2.330   5.311  25.362  0.00  0.00    +0.006 C 
ATOM     10  C   UNL     1       3.188   5.534  24.109  0.00  0.00    +0.027 C 
ATOM     11  C   UNL     1       4.434   4.677  24.018  0.00  0.00    -0.031 C 
ATOM     12  C   UNL     1       5.644   5.201  24.235  0.00  0.00    -0.025 C 
ATOM     13  C   UNL     1       7.005   4.671  23.982  0.00  0.00    +0.046 C 
ATOM     14  C   UNL     1       8.127   4.122  24.887  0.00  0.00    +0.119 C 
ATOM     15  N   UNL     1       7.806   3.450  26.110  0.00  0.00    -0.301 N 
ATOM     16  H   UNL     1       7.741   2.439  25.983  0.00  0.00    +0.150 HD
ATOM     17  C   UNL     1       7.200   3.963  27.256  0.00  0.00    +0.218 C 
ATOM     18  O   UNL     1       7.395   5.053  27.761  0.00  0.00    -0.275 OA
ATOM     19  C   UNL     1       8.017   5.594  24.663  0.00  0.00    +0.046 C 
ATOM     20  O   UNL     1       3.604   3.499  30.434  0.00  0.00    -0.275 OA
ATOM     21  C   UNL     1       6.238   2.908  27.732  0.00  0.00    +0.090 C 
ATOM     22  C   UNL     1       5.181   2.673  26.656  0.00  0.00    +0.058 C 
ENDROOT
BRANCH  14  23
ATOM     23  C   UNL     1       9.260   3.420  24.150  0.00  0.00    +0.256 C 
ATOM     24  N   UNL     1       9.078   2.050  23.977  0.00  0.00    -0.188 N 
ATOM     25  H   UNL     1       8.199   1.603  24.219  0.00  0.00    +0.176 HD
ATOM     26  O   UNL     1      10.220   4.053  23.744  0.00  0.00    -0.272 OA
BRANCH  24  27
ATOM     27  S   UNL     1      10.195   1.038  23.294  0.00  0.00    +0.048 S 
ATOM     28  O   UNL     1      11.344   1.002  24.167  0.00  0.00    -0.155 OA
ATOM     29  O   UNL     1      10.318   1.487  21.923  0.00  0.00    -0.155 OA
BRANCH  27  30
ATOM     30  C   UNL     1       9.491  -0.635  23.280  0.00  0.00    +0.151 C 
ATOM     31  C   UNL     1       9.553  -1.377  21.974  0.00  0.00    +0.030 C 
ATOM     32  C   UNL     1       8.254  -0.768  22.426  0.00  0.00    +0.030 C 
ENDBRANCH  27  30
ENDBRANCH  24  27
ENDBRANCH  14  23
BRANCH   1  33
ATOM     33  O   UNL     1       3.837   0.744  26.367  0.00  0.00    -0.488 OA
BRANCH  33  40
ATOM     34  C   UNL     1       3.638  -4.838  28.968  0.00  0.00    +0.050 C 
ATOM     35  C   UNL     1       3.241  -3.384  28.856  0.00  0.00    +0.017 A 
ATOM     36  C   UNL     1       3.960  -2.583  27.958  0.00  0.00    +0.082 A 
ATOM     37  N   UNL     1       4.986  -3.140  27.262  0.00  0.00    -0.244 NA
ATOM     38  C   UNL     1       5.649  -2.377  26.371  0.00  0.00    +0.100 A 
ATOM     39  C   UNL     1       5.301  -1.076  26.128  0.00  0.00    +0.076 A 
ATOM     40  C   UNL     1       4.247  -0.496  26.799  0.00  0.00    +0.132 A 
ATOM     41  C   UNL     1       3.565  -1.233  27.783  0.00  0.00    +0.043 A 
ATOM     42  C   UNL     1       2.533  -0.700  28.585  0.00  0.00    +0.017 A 
ATOM     43  C   UNL     1       1.845  -1.508  29.495  0.00  0.00    +0.047 A 
ATOM     44  C   UNL     1       2.171  -2.859  29.612  0.00  0.00    +0.125 A 
BRANCH  38  45
ATOM     45  C   UNL     1       6.697  -2.923  25.504  0.00  0.00    +0.127 A 
ATOM     46  S   UNL     1       8.289  -3.245  26.036  0.00  0.00    -0.074 S 
ATOM     47  C   UNL     1       8.620  -4.014  24.533  0.00  0.00    +0.070 A 
ATOM     48  C   UNL     1       7.516  -3.954  23.694  0.00  0.00    +0.052 A 
ATOM     49  N   UNL     1       6.446  -3.302  24.259  0.00  0.00    -0.242 NA
BRANCH  48  50
ATOM     50  C   UNL     1       7.388  -4.493  22.300  0.00  0.00    +0.032 C 
ATOM     51  C   UNL     1       6.223  -3.835  21.555  0.00  0.00    +0.014 C 
ATOM     52  C   UNL     1       7.221  -6.016  22.281  0.00  0.00    +0.014 C 
ENDBRANCH  48  50
ENDBRANCH  38  45
BRANCH  44  53
ATOM     53  O   UNL     1       1.522  -3.749  30.428  0.00  0.00    -0.495 OA
ATOM     54  C   UNL     1       0.443  -4.497  29.888  0.00  0.00    +0.277 C 
ENDBRANCH  44  53
ENDBRANCH  33  40
ENDBRANCH   1  33
TORSDOF 8
ENDMDL
MODEL 7
REMARK VINA RESULT:      -5.6      3.540      7.229
REMARK  Name = 
REMARK  13 active torsions:
REMARK  status: ('A' for Active; 'I' for Inactive)
REMARK    1  A    between atoms: C_1  and  C_2
REMARK    2  A    between atoms: C_3  and  O_51
REMARK    3  A    between atoms: C_9  and  C_43
REMARK    4  A    between atoms: C_11  and  O_12
REMARK    5  A    between atoms: O_12  and  C_13
REMARK    6  A    between atoms: N_20  and  C_42
REMARK    7  A    between atoms: C_29  and  C_33
REMARK    8  A    between atoms: N_35  and  S_36
REMARK    9  A    between atoms: S_36  and  C_39
REMARK   10  A    between atoms: C_45  and  C_48
REMARK   11  A    between atoms: C_48  and  C_49
REMARK   12  A    between atoms: C_48  and  C_50
REMARK   13  A    between atoms: O_51  and  C_52
REMARK                            x       y       z     vdW  Elec       q    Type
REMARK                         _______ _______ _______ _____ _____    ______ ____
ROOT
ATOM      1  C   UNL     1       7.772  -0.034  23.153  0.00  0.00    +0.175 C 
ATOM      2  C   UNL     1       9.313   0.112  23.110  0.00  0.00    +0.058 C 
ATOM      3  C   UNL     1       9.723  -0.717  24.368  0.00  0.00    +0.091 C 
ATOM      4  C   UNL     1       9.539  -2.222  23.990  0.00  0.00    +0.219 C 
ATOM      5  N   UNL     1       8.630  -3.009  24.700  0.00  0.00    -0.304 N 
ATOM      6  C   UNL     1       9.264  -4.198  25.252  0.00  0.00    +0.132 C 
ATOM      7  C   UNL     1       7.373  -3.377  24.006  0.00  0.00    +0.107 C 
ATOM      8  C   UNL     1       6.217  -3.646  24.971  0.00  0.00    +0.019 C 
ATOM      9  C   UNL     1       4.864  -3.136  24.439  0.00  0.00    +0.006 C 
ATOM     10  C   UNL     1       4.025  -2.438  25.518  0.00  0.00    +0.027 C 
ATOM     11  C   UNL     1       4.526  -1.072  25.942  0.00  0.00    -0.031 C 
ATOM     12  C   UNL     1       5.131  -0.900  27.121  0.00  0.00    -0.025 C 
ATOM     13  C   UNL     1       5.490   0.326  27.873  0.00  0.00    +0.046 C 
ATOM     14  C   UNL     1       6.818   1.059  28.157  0.00  0.00    +0.119 C 
ATOM     15  N   UNL     1       7.890   1.008  27.210  0.00  0.00    -0.301 N 
ATOM     16  H   UNL     1       7.868   1.800  26.567  0.00  0.00    +0.150 HD
ATOM     17  C   UNL     1       8.642  -0.092  26.801  0.00  0.00    +0.218 C 
ATOM     18  O   UNL     1       9.051  -1.000  27.501  0.00  0.00    -0.275 OA
ATOM     19  C   UNL     1       6.397  -0.070  29.039  0.00  0.00    +0.046 C 
ATOM     20  O   UNL     1      10.208  -2.706  23.064  0.00  0.00    -0.275 OA
ATOM     21  C   UNL     1       8.828   0.055  25.315  0.00  0.00    +0.090 C 
ATOM     22  C   UNL     1       7.463   0.021  24.634  0.00  0.00    +0.058 C 
ENDROOT
BRANCH  14  23
ATOM     23  C   UNL     1       6.666   2.455  28.747  0.00  0.00    +0.256 C 
ATOM     24  N   UNL     1       5.529   3.142  28.326  0.00  0.00    -0.188 N 
ATOM     25  H   UNL     1       4.814   2.682  27.771  0.00  0.00    +0.176 HD
ATOM     26  O   UNL     1       7.488   2.886  29.538  0.00  0.00    -0.272 OA
BRANCH  24  27
ATOM     27  S   UNL     1       5.175   4.705  28.741  0.00  0.00    +0.048 S 
ATOM     28  O   UNL     1       6.193   5.552  28.168  0.00  0.00    -0.155 OA
ATOM     29  O   UNL     1       4.955   4.671  30.172  0.00  0.00    -0.155 OA
BRANCH  27  30
ATOM     30  C   UNL     1       3.608   5.148  27.940  0.00  0.00    +0.151 C 
ATOM     31  C   UNL     1       3.658   6.280  26.952  0.00  0.00    +0.030 C 
ATOM     32  C   UNL     1       3.090   6.512  28.326  0.00  0.00    +0.030 C 
ENDBRANCH  27  30
ENDBRANCH  24  27
ENDBRANCH  14  23
BRANCH   1  33
ATOM     33  O   UNL     1       6.904   0.893  22.504  0.00  0.00    -0.488 OA
BRANCH  33  40
ATOM     34  C   UNL     1       6.885   6.537  24.973  0.00  0.00    +0.050 C 
ATOM     35  C   UNL     1       7.549   5.360  24.297  0.00  0.00    +0.017 A 
ATOM     36  C   UNL     1       6.811   4.173  24.190  0.00  0.00    +0.082 A 
ATOM     37  N   UNL     1       5.560   4.131  24.719  0.00  0.00    -0.244 NA
ATOM     38  C   UNL     1       4.839   3.002  24.579  0.00  0.00    +0.100 A 
ATOM     39  C   UNL     1       5.317   1.914  23.899  0.00  0.00    +0.076 A 
ATOM     40  C   UNL     1       6.571   1.942  23.329  0.00  0.00    +0.132 A 
ATOM     41  C   UNL     1       7.384   3.074  23.501  0.00  0.00    +0.043 A 
ATOM     42  C   UNL     1       8.713   3.163  23.033  0.00  0.00    +0.017 A 
ATOM     43  C   UNL     1       9.443   4.347  23.174  0.00  0.00    +0.047 A 
ATOM     44  C   UNL     1       8.856   5.460  23.775  0.00  0.00    +0.125 A 
BRANCH  38  45
ATOM     45  C   UNL     1       3.446   2.905  25.026  0.00  0.00    +0.127 A 
ATOM     46  S   UNL     1       2.122   3.503  24.125  0.00  0.00    -0.074 S 
ATOM     47  C   UNL     1       1.045   2.755  25.239  0.00  0.00    +0.070 A 
ATOM     48  C   UNL     1       1.747   2.121  26.255  0.00  0.00    +0.052 A 
ATOM     49  N   UNL     1       3.110   2.247  26.127  0.00  0.00    -0.242 NA
BRANCH  48  50
ATOM     50  C   UNL     1       1.193   1.362  27.424  0.00  0.00    +0.032 C 
ATOM     51  C   UNL     1       2.058   1.554  28.673  0.00  0.00    +0.014 C 
ATOM     52  C   UNL     1       1.042  -0.134  27.124  0.00  0.00    +0.014 C 
ENDBRANCH  48  50
ENDBRANCH  38  45
BRANCH  44  53
ATOM     53  O   UNL     1       9.462   6.682  23.909  0.00  0.00    -0.495 OA
ATOM     54  C   UNL     1      10.559   6.798  24.804  0.00  0.00    +0.277 C 
ENDBRANCH  44  53
ENDBRANCH  33  40
ENDBRANCH   1  33
TORSDOF 8
ENDMDL
MODEL 8
REMARK VINA RESULT:      -5.3      1.956      2.778
REMARK  Name = 
REMARK  13 active torsions:
REMARK  status: ('A' for Active; 'I' for Inactive)
REMARK    1  A    between atoms: C_1  and  C_2
REMARK    2  A    between atoms: C_3  and  O_51
REMARK    3  A    between atoms: C_9  and  C_43
REMARK    4  A    between atoms: C_11  and  O_12
REMARK    5  A    between atoms: O_12  and  C_13
REMARK    6  A    between atoms: N_20  and  C_42
REMARK    7  A    between atoms: C_29  and  C_33
REMARK    8  A    between atoms: N_35  and  S_36
REMARK    9  A    between atoms: S_36  and  C_39
REMARK   10  A    between atoms: C_45  and  C_48
REMARK   11  A    between atoms: C_48  and  C_49
REMARK   12  A    between atoms: C_48  and  C_50
REMARK   13  A    between atoms: O_51  and  C_52
REMARK                            x       y       z     vdW  Elec       q    Type
REMARK                         _______ _______ _______ _____ _____    ______ ____
ROOT
ATOM      1  C   UNL     1       4.181   3.622  23.608  0.00  0.00    +0.175 C 
ATOM      2  C   UNL     1       2.894   4.472  23.468  0.00  0.00    +0.058 C 
ATOM      3  C   UNL     1       2.534   4.711  24.968  0.00  0.00    +0.091 C 
ATOM      4  C   UNL     1       3.549   5.769  25.508  0.00  0.00    +0.219 C 
ATOM      5  N   UNL     1       4.414   5.430  26.551  0.00  0.00    -0.304 N 
ATOM      6  C   UNL     1       4.298   6.357  27.668  0.00  0.00    +0.132 C 
ATOM      7  C   UNL     1       5.840   5.226  26.204  0.00  0.00    +0.107 C 
ATOM      8  C   UNL     1       6.559   4.282  27.170  0.00  0.00    +0.019 C 
ATOM      9  C   UNL     1       7.575   3.365  26.463  0.00  0.00    +0.006 C 
ATOM     10  C   UNL     1       7.527   1.918  26.971  0.00  0.00    +0.027 C 
ATOM     11  C   UNL     1       6.309   1.123  26.544  0.00  0.00    -0.031 C 
ATOM     12  C   UNL     1       5.330   0.850  27.411  0.00  0.00    -0.025 C 
ATOM     13  C   UNL     1       4.180  -0.081  27.335  0.00  0.00    +0.046 C 
ATOM     14  C   UNL     1       2.661   0.104  27.137  0.00  0.00    +0.119 C 
ATOM     15  N   UNL     1       2.159   1.203  26.368  0.00  0.00    -0.301 N 
ATOM     16  H   UNL     1       2.014   0.948  25.391  0.00  0.00    +0.150 HD
ATOM     17  C   UNL     1       2.241   2.568  26.640  0.00  0.00    +0.218 C 
ATOM     18  O   UNL     1       2.115   3.107  27.724  0.00  0.00    -0.275 OA
ATOM     19  C   UNL     1       3.243   0.210  28.508  0.00  0.00    +0.046 C 
ATOM     20  O   UNL     1       3.576   6.904  25.007  0.00  0.00    -0.275 OA
ATOM     21  C   UNL     1       2.540   3.241  25.327  0.00  0.00    +0.090 C 
ATOM     22  C   UNL     1       3.884   2.743  24.805  0.00  0.00    +0.058 C 
ENDROOT
BRANCH  14  23
ATOM     23  C   UNL     1       1.892  -1.177  26.839  0.00  0.00    +0.256 C 
ATOM     24  N   UNL     1       2.575  -2.350  27.153  0.00  0.00    -0.188 N 
ATOM     25  H   UNL     1       3.458  -2.324  27.653  0.00  0.00    +0.176 HD
ATOM     26  O   UNL     1       0.762  -1.129  26.381  0.00  0.00    -0.272 OA
BRANCH  24  27
ATOM     27  S   UNL     1       2.006  -3.873  26.843  0.00  0.00    +0.048 S 
ATOM     28  O   UNL     1       1.666  -3.937  25.441  0.00  0.00    -0.155 OA
ATOM     29  O   UNL     1       1.006  -4.114  27.862  0.00  0.00    -0.155 OA
BRANCH  27  30
ATOM     30  C   UNL     1       3.373  -5.038  27.107  0.00  0.00    +0.151 C 
ATOM     31  C   UNL     1       4.731  -4.435  27.337  0.00  0.00    +0.030 C 
ATOM     32  C   UNL     1       4.397  -5.037  25.999  0.00  0.00    +0.030 C 
ENDBRANCH  27  30
ENDBRANCH  24  27
ENDBRANCH  14  23
BRANCH   1  33
ATOM     33  O   UNL     1       4.647   2.773  22.562  0.00  0.00    -0.488 OA
BRANCH  33  40
ATOM     34  C   UNL     1      10.597   3.855  23.737  0.00  0.00    +0.050 C 
ATOM     35  C   UNL     1       9.196   4.275  23.356  0.00  0.00    +0.017 A 
ATOM     36  C   UNL     1       8.266   3.262  23.088  0.00  0.00    +0.082 A 
ATOM     37  N   UNL     1       8.671   1.967  23.155  0.00  0.00    -0.244 NA
ATOM     38  C   UNL     1       7.764   0.995  22.937  0.00  0.00    +0.100 A 
ATOM     39  C   UNL     1       6.450   1.274  22.679  0.00  0.00    +0.076 A 
ATOM     40  C   UNL     1       6.007   2.577  22.634  0.00  0.00    +0.132 A 
ATOM     41  C   UNL     1       6.928   3.627  22.794  0.00  0.00    +0.043 A 
ATOM     42  C   UNL     1       6.589   4.992  22.676  0.00  0.00    +0.017 A 
ATOM     43  C   UNL     1       7.538   5.989  22.920  0.00  0.00    +0.047 A 
ATOM     44  C   UNL     1       8.835   5.638  23.293  0.00  0.00    +0.125 A 
BRANCH  38  45
ATOM     45  C   UNL     1       8.090  -0.426  23.091  0.00  0.00    +0.127 A 
ATOM     46  S   UNL     1       9.637  -0.996  23.541  0.00  0.00    -0.074 S 
ATOM     47  C   UNL     1       8.993  -2.584  23.688  0.00  0.00    +0.070 A 
ATOM     48  C   UNL     1       7.646  -2.604  23.354  0.00  0.00    +0.052 A 
ATOM     49  N   UNL     1       7.164  -1.369  22.989  0.00  0.00    -0.242 NA
BRANCH  48  50
ATOM     50  C   UNL     1       6.716  -3.781  23.341  0.00  0.00    +0.032 C 
ATOM     51  C   UNL     1       7.288  -4.931  22.508  0.00  0.00    +0.014 C 
ATOM     52  C   UNL     1       5.321  -3.410  22.824  0.00  0.00    +0.014 C 
ENDBRANCH  48  50
ENDBRANCH  38  45
BRANCH  44  53
ATOM     53  O   UNL     1       9.822   6.534  23.611  0.00  0.00    -0.495 OA
ATOM     54  C   UNL     1       9.840   7.083  24.921  0.00  0.00    +0.277 C 
ENDBRANCH  44  53
ENDBRANCH  33  40
ENDBRANCH   1  33
TORSDOF 8
ENDMDL
MODEL 9
REMARK VINA RESULT:      -5.2      2.864      8.496
REMARK  Name = 
REMARK  13 active torsions:
REMARK  status: ('A' for Active; 'I' for Inactive)
REMARK    1  A    between atoms: C_1  and  C_2
REMARK    2  A    between atoms: C_3  and  O_51
REMARK    3  A    between atoms: C_9  and  C_43
REMARK    4  A    between atoms: C_11  and  O_12
REMARK    5  A    between atoms: O_12  and  C_13
REMARK    6  A    between atoms: N_20  and  C_42
REMARK    7  A    between atoms: C_29  and  C_33
REMARK    8  A    between atoms: N_35  and  S_36
REMARK    9  A    between atoms: S_36  and  C_39
REMARK   10  A    between atoms: C_45  and  C_48
REMARK   11  A    between atoms: C_48  and  C_49
REMARK   12  A    between atoms: C_48  and  C_50
REMARK   13  A    between atoms: O_51  and  C_52
REMARK                            x       y       z     vdW  Elec       q    Type
REMARK                         _______ _______ _______ _____ _____    ______ ____
ROOT
ATOM      1  C   UNL     1       5.148  -3.164  23.730  0.00  0.00    +0.175 C 
ATOM      2  C   UNL     1       4.948  -3.605  22.260  0.00  0.00    +0.058 C 
ATOM      3  C   UNL     1       6.422  -3.904  21.839  0.00  0.00    +0.091 C 
ATOM      4  C   UNL     1       6.814  -5.254  22.520  0.00  0.00    +0.219 C 
ATOM      5  N   UNL     1       7.866  -5.287  23.439  0.00  0.00    -0.304 N 
ATOM      6  C   UNL     1       8.876  -6.267  23.065  0.00  0.00    +0.132 C 
ATOM      7  C   UNL     1       7.505  -5.447  24.868  0.00  0.00    +0.107 C 
ATOM      8  C   UNL     1       8.550  -4.853  25.814  0.00  0.00    +0.019 C 
ATOM      9  C   UNL     1       7.923  -4.177  27.049  0.00  0.00    +0.006 C 
ATOM     10  C   UNL     1       8.589  -2.840  27.400  0.00  0.00    +0.027 C 
ATOM     11  C   UNL     1       8.284  -1.698  26.452  0.00  0.00    -0.031 C 
ATOM     12  C   UNL     1       9.201  -1.266  25.581  0.00  0.00    -0.025 C 
ATOM     13  C   UNL     1       9.259  -0.051  24.734  0.00  0.00    +0.046 C 
ATOM     14  C   UNL     1       9.082   0.213  23.225  0.00  0.00    +0.119 C 
ATOM     15  N   UNL     1       8.210  -0.611  22.443  0.00  0.00    -0.301 N 
ATOM     16  H   UNL     1       7.270  -0.217  22.379  0.00  0.00    +0.150 HD
ATOM     17  C   UNL     1       8.327  -1.967  22.142  0.00  0.00    +0.218 C 
ATOM     18  O   UNL     1       9.348  -2.570  21.866  0.00  0.00    -0.275 OA
ATOM     19  C   UNL     1      10.417  -0.204  23.747  0.00  0.00    +0.046 C 
ATOM     20  O   UNL     1       6.191  -6.289  22.234  0.00  0.00    -0.275 OA
ATOM     21  C   UNL     1       6.941  -2.543  22.250  0.00  0.00    +0.090 C 
ATOM     22  C   UNL     1       6.441  -2.379  23.682  0.00  0.00    +0.058 C 
ENDROOT
BRANCH  14  23
ATOM     23  C   UNL     1       8.947   1.681  22.842  0.00  0.00    +0.256 C 
ATOM     24  N   UNL     1       7.981   2.382  23.561  0.00  0.00    -0.188 N 
ATOM     25  H   UNL     1       7.508   1.958  24.353  0.00  0.00    +0.176 HD
ATOM     26  O   UNL     1       9.665   2.166  21.983  0.00  0.00    -0.272 OA
BRANCH  24  27
ATOM     27  S   UNL     1       7.569   3.960  23.280  0.00  0.00    +0.048 S 
ATOM     28  O   UNL     1       6.547   4.322  24.232  0.00  0.00    -0.155 OA
ATOM     29  O   UNL     1       7.318   4.034  21.856  0.00  0.00    -0.155 OA
BRANCH  27  30
ATOM     30  C   UNL     1       9.021   4.984  23.651  0.00  0.00    +0.151 C 
ATOM     31  C   UNL     1       8.869   5.983  24.764  0.00  0.00    +0.030 C 
ATOM     32  C   UNL     1       8.832   6.448  23.334  0.00  0.00    +0.030 C 
ENDBRANCH  27  30
ENDBRANCH  24  27
ENDBRANCH  14  23
BRANCH   1  33
ATOM     33  O   UNL     1       4.189  -2.363  24.419  0.00  0.00    -0.488 OA
BRANCH  33  40
ATOM     34  C   UNL     1       4.875  -0.040  30.084  0.00  0.00    +0.050 C 
ATOM     35  C   UNL     1       4.934   0.035  28.575  0.00  0.00    +0.017 A 
ATOM     36  C   UNL     1       4.755  -1.156  27.859  0.00  0.00    +0.082 A 
ATOM     37  N   UNL     1       4.569  -2.312  28.548  0.00  0.00    -0.244 NA
ATOM     38  C   UNL     1       4.357  -3.448  27.856  0.00  0.00    +0.100 A 
ATOM     39  C   UNL     1       4.297  -3.465  26.489  0.00  0.00    +0.076 A 
ATOM     40  C   UNL     1       4.453  -2.302  25.767  0.00  0.00    +0.132 A 
ATOM     41  C   UNL     1       4.737  -1.102  26.442  0.00  0.00    +0.043 A 
ATOM     42  C   UNL     1       5.002   0.121  25.789  0.00  0.00    +0.017 A 
ATOM     43  C   UNL     1       5.205   1.294  26.521  0.00  0.00    +0.047 A 
ATOM     44  C   UNL     1       5.139   1.265  27.914  0.00  0.00    +0.125 A 
BRANCH  38  45
ATOM     45  C   UNL     1       4.045  -4.719  28.518  0.00  0.00    +0.127 A 
ATOM     46  S   UNL     1       4.975  -5.373  29.793  0.00  0.00    -0.074 S 
ATOM     47  C   UNL     1       3.781  -6.589  30.022  0.00  0.00    +0.070 A 
ATOM     48  C   UNL     1       2.755  -6.455  29.095  0.00  0.00    +0.052 A 
ATOM     49  N   UNL     1       2.945  -5.402  28.232  0.00  0.00    -0.242 NA
BRANCH  48  50
ATOM     50  C   UNL     1       1.532  -7.310  28.944  0.00  0.00    +0.032 C 
ATOM     51  C   UNL     1       1.651  -8.600  29.759  0.00  0.00    +0.014 C 
ATOM     52  C   UNL     1       1.242  -7.648  27.477  0.00  0.00    +0.014 C 
ENDBRANCH  48  50
ENDBRANCH  38  45
BRANCH  44  53
ATOM     53  O   UNL     1       5.265   2.365  28.722  0.00  0.00    -0.495 OA
ATOM     54  C   UNL     1       4.503   3.522  28.410  0.00  0.00    +0.277 C 
ENDBRANCH  44  53
ENDBRANCH  33  40
ENDBRANCH   1  33
TORSDOF 8
ENDMDL
