MODEL 1
REMARK VINA RESULT:      -5.9      0.000      0.000
REMARK  Name = 
REMARK  3 active torsions:
REMARK  status: ('A' for Active; 'I' for Inactive)
REMARK    1  A    between atoms: C_2  and  N_9
REMARK    2  A    between atoms: C_4  and  C_7
REMARK    3  A    between atoms: C_7  and  O_8
REMARK                            x       y       z     vdW  Elec       q    Type
REMARK                         _______ _______ _______ _____ _____    ______ ____
ROOT
ATOM      1  N   UNL     1       8.367  -1.515  22.532  0.00  0.00    -0.269 N 
ATOM      2  C   UNL     1       9.653  -1.086  22.154  0.00  0.00    +0.352 A 
ATOM      3  O   UNL     1      10.582  -1.886  22.071  0.00  0.00    -0.244 OA
ATOM      4  N   UNL     1       9.857   0.252  21.887  0.00  0.00    -0.175 NA
ATOM      5  C   UNL     1       8.898   1.108  22.080  0.00  0.00    +0.159 A 
ATOM      6  N   UNL     1       9.152   2.424  21.792  0.00  0.00    -0.341 N 
ATOM      7  H   UNL     1      10.139   2.647  21.734  0.00  0.00    +0.144 HD
ATOM      8  H   UNL     1       8.589   3.117  22.273  0.00  0.00    +0.144 HD
ATOM      9  C   UNL     1       7.582   0.705  22.613  0.00  0.00    +0.179 A 
ATOM     10  F   UNL     1       6.666   1.657  22.854  0.00  0.00    -0.200 F 
ATOM     11  C   UNL     1       7.385  -0.591  22.828  0.00  0.00    +0.135 A 
ENDROOT
BRANCH   1  16
ATOM     12  C   UNL     1       6.823  -3.369  23.380  0.00  0.00    +0.126 C 
ATOM     13  S   UNL     1       7.031  -3.073  25.145  0.00  0.00    -0.123 S 
ATOM     14  C   UNL     1       8.825  -3.266  25.016  0.00  0.00    +0.203 C 
ATOM     15  O   UNL     1       9.196  -3.478  23.641  0.00  0.00    -0.340 OA
ATOM     16  C   UNL     1       8.172  -2.954  22.768  0.00  0.00    +0.235 C 
BRANCH  14  17
ATOM     17  C   UNL     1       9.326  -4.436  25.874  0.00  0.00    +0.198 C 
BRANCH  17  18
ATOM     18  O   UNL     1      10.265  -5.259  25.177  0.00  0.00    -0.392 OA
ATOM     19  H   UNL     1      10.881  -4.651  24.728  0.00  0.00    +0.210 HD
ENDBRANCH  17  18
ENDBRANCH  14  17
ENDBRANCH   1  16
TORSDOF 3
ENDMDL
MODEL 2
REMARK VINA RESULT:      -5.8      2.774      5.099
REMARK  Name = 
REMARK  3 active torsions:
REMARK  status: ('A' for Active; 'I' for Inactive)
REMARK    1  A    between atoms: C_2  and  N_9
REMARK    2  A    between atoms: C_4  and  C_7
REMARK    3  A    between atoms: C_7  and  O_8
REMARK                            x       y       z     vdW  Elec       q    Type
REMARK                         _______ _______ _______ _____ _____    ______ ____
ROOT
ATOM      1  N   UNL     1       8.702  -2.903  23.340  0.00  0.00    -0.269 N 
ATOM      2  C   UNL     1       8.706  -4.128  24.030  0.00  0.00    +0.352 A 
ATOM      3  O   UNL     1       9.644  -4.432  24.764  0.00  0.00    -0.244 OA
ATOM      4  N   UNL     1       7.641  -4.989  23.864  0.00  0.00    -0.175 NA
ATOM      5  C   UNL     1       6.705  -4.710  23.006  0.00  0.00    +0.159 A 
ATOM      6  N   UNL     1       5.667  -5.595  22.886  0.00  0.00    -0.341 N 
ATOM      7  H   UNL     1       5.869  -6.516  23.259  0.00  0.00    +0.144 HD
ATOM      8  H   UNL     1       5.163  -5.597  22.005  0.00  0.00    +0.144 HD
ATOM      9  C   UNL     1       6.750  -3.499  22.163  0.00  0.00    +0.179 A 
ATOM     10  F   UNL     1       5.785  -3.315  21.249  0.00  0.00    -0.200 F 
ATOM     11  C   UNL     1       7.760  -2.658  22.361  0.00  0.00    +0.135 A 
ENDROOT
BRANCH   1  16
ATOM     12  C   UNL     1       9.706  -1.037  24.773  0.00  0.00    +0.126 C 
ATOM     13  S   UNL     1       8.690   0.318  24.158  0.00  0.00    -0.123 S 
ATOM     14  C   UNL     1       9.207  -0.002  22.454  0.00  0.00    +0.203 C 
ATOM     15  O   UNL     1      10.068  -1.156  22.414  0.00  0.00    -0.340 OA
ATOM     16  C   UNL     1       9.831  -1.987  23.571  0.00  0.00    +0.235 C 
BRANCH  14  17
ATOM     17  C   UNL     1       9.933   1.208  21.852  0.00  0.00    +0.198 C 
BRANCH  17  18
ATOM     18  O   UNL     1       9.026   2.214  21.394  0.00  0.00    -0.392 OA
ATOM     19  H   UNL     1       9.257   3.030  21.874  0.00  0.00    +0.210 HD
ENDBRANCH  17  18
ENDBRANCH  14  17
ENDBRANCH   1  16
TORSDOF 3
ENDMDL
MODEL 3
REMARK VINA RESULT:      -5.8      3.803      5.923
REMARK  Name = 
REMARK  3 active torsions:
REMARK  status: ('A' for Active; 'I' for Inactive)
REMARK    1  A    between atoms: C_2  and  N_9
REMARK    2  A    between atoms: C_4  and  C_7
REMARK    3  A    between atoms: C_7  and  O_8
REMARK                            x       y       z     vdW  Elec       q    Type
REMARK                         _______ _______ _______ _____ _____    ______ ____
ROOT
ATOM      1  N   UNL     1       7.417  -4.933  24.794  0.00  0.00    -0.269 N 
ATOM      2  C   UNL     1       6.672  -5.649  25.748  0.00  0.00    +0.352 A 
ATOM      3  O   UNL     1       7.049  -5.716  26.917  0.00  0.00    -0.244 OA
ATOM      4  N   UNL     1       5.514  -6.282  25.350  0.00  0.00    -0.175 NA
ATOM      5  C   UNL     1       5.178  -6.297  24.094  0.00  0.00    +0.159 A 
ATOM      6  N   UNL     1       4.014  -6.934  23.753  0.00  0.00    -0.341 N 
ATOM      7  H   UNL     1       3.678  -7.577  24.461  0.00  0.00    +0.144 HD
ATOM      8  H   UNL     1       3.937  -7.275  22.801  0.00  0.00    +0.144 HD
ATOM      9  C   UNL     1       6.018  -5.676  23.051  0.00  0.00    +0.179 A 
ATOM     10  F   UNL     1       5.642  -5.794  21.767  0.00  0.00    -0.200 F 
ATOM     11  C   UNL     1       7.109  -5.035  23.452  0.00  0.00    +0.135 A 
ENDROOT
BRANCH   1  16
ATOM     12  C   UNL     1       8.400  -2.945  26.069  0.00  0.00    +0.126 C 
ATOM     13  S   UNL     1       8.110  -1.683  24.816  0.00  0.00    -0.123 S 
ATOM     14  C   UNL     1       9.043  -2.621  23.583  0.00  0.00    +0.203 C 
ATOM     15  O   UNL     1       9.475  -3.874  24.147  0.00  0.00    -0.340 OA
ATOM     16  C   UNL     1       8.625  -4.232  25.259  0.00  0.00    +0.235 C 
BRANCH  14  17
ATOM     17  C   UNL     1      10.259  -1.832  23.081  0.00  0.00    +0.198 C 
BRANCH  17  18
ATOM     18  O   UNL     1      10.242  -1.651  21.662  0.00  0.00    -0.392 OA
ATOM     19  H   UNL     1       9.668  -0.882  21.491  0.00  0.00    +0.210 HD
ENDBRANCH  17  18
ENDBRANCH  14  17
ENDBRANCH   1  16
TORSDOF 3
ENDMDL
MODEL 4
REMARK VINA RESULT:      -5.6      3.060      5.280
REMARK  Name = 
REMARK  3 active torsions:
REMARK  status: ('A' for Active; 'I' for Inactive)
REMARK    1  A    between atoms: C_2  and  N_9
REMARK    2  A    between atoms: C_4  and  C_7
REMARK    3  A    between atoms: C_7  and  O_8
REMARK                            x       y       z     vdW  Elec       q    Type
REMARK                         _______ _______ _______ _____ _____    ______ ____
ROOT
ATOM      1  N   UNL     1       9.474  -1.526  24.703  0.00  0.00    -0.269 N 
ATOM      2  C   UNL     1       9.868  -2.644  23.945  0.00  0.00    +0.352 A 
ATOM      3  O   UNL     1      10.561  -2.506  22.939  0.00  0.00    -0.244 OA
ATOM      4  N   UNL     1       9.456  -3.898  24.344  0.00  0.00    -0.175 NA
ATOM      5  C   UNL     1       8.637  -4.027  25.345  0.00  0.00    +0.159 A 
ATOM      6  N   UNL     1       8.266  -5.296  25.705  0.00  0.00    -0.341 N 
ATOM      7  H   UNL     1       8.430  -5.990  24.984  0.00  0.00    +0.144 HD
ATOM      8  H   UNL     1       7.383  -5.396  26.195  0.00  0.00    +0.144 HD
ATOM      9  C   UNL     1       8.094  -2.861  26.069  0.00  0.00    +0.179 A 
ATOM     10  F   UNL     1       7.197  -3.071  27.046  0.00  0.00    -0.200 F 
ATOM     11  C   UNL     1       8.529  -1.661  25.701  0.00  0.00    +0.135 A 
ENDROOT
BRANCH   1  16
ATOM     12  C   UNL     1       9.402   1.009  25.033  0.00  0.00    +0.126 C 
ATOM     13  S   UNL     1       7.806   1.313  24.253  0.00  0.00    -0.123 S 
ATOM     14  C   UNL     1       8.354   0.534  22.715  0.00  0.00    +0.203 C 
ATOM     15  O   UNL     1       9.689   0.019  22.877  0.00  0.00    -0.340 OA
ATOM     16  C   UNL     1       9.964  -0.206  24.277  0.00  0.00    +0.235 C 
BRANCH  14  17
ATOM     17  C   UNL     1       8.318   1.523  21.542  0.00  0.00    +0.198 C 
BRANCH  17  18
ATOM     18  O   UNL     1       9.564   2.201  21.364  0.00  0.00    -0.392 OA
ATOM     19  H   UNL     1       9.354   3.152  21.320  0.00  0.00    +0.210 HD
ENDBRANCH  17  18
ENDBRANCH  14  17
ENDBRANCH   1  16
TORSDOF 3
ENDMDL
MODEL 5
REMARK VINA RESULT:      -5.5      3.249      5.462
REMARK  Name = 
REMARK  3 active torsions:
REMARK  status: ('A' for Active; 'I' for Inactive)
REMARK    1  A    between atoms: C_2  and  N_9
REMARK    2  A    between atoms: C_4  and  C_7
REMARK    3  A    between atoms: C_7  and  O_8
REMARK                            x       y       z     vdW  Elec       q    Type
REMARK                         _______ _______ _______ _____ _____    ______ ____
ROOT
ATOM      1  N   UNL     1       8.582  -3.098  23.415  0.00  0.00    -0.269 N 
ATOM      2  C   UNL     1       7.495  -3.943  23.131  0.00  0.00    +0.352 A 
ATOM      3  O   UNL     1       6.929  -3.893  22.040  0.00  0.00    -0.244 OA
ATOM      4  N   UNL     1       7.067  -4.826  24.100  0.00  0.00    -0.175 NA
ATOM      5  C   UNL     1       7.599  -4.800  25.286  0.00  0.00    +0.159 A 
ATOM      6  N   UNL     1       7.142  -5.704  26.209  0.00  0.00    -0.341 N 
ATOM      7  H   UNL     1       6.242  -6.106  25.976  0.00  0.00    +0.144 HD
ATOM      8  H   UNL     1       7.255  -5.459  27.187  0.00  0.00    +0.144 HD
ATOM      9  C   UNL     1       8.644  -3.825  25.655  0.00  0.00    +0.179 A 
ATOM     10  F   UNL     1       9.094  -3.812  26.919  0.00  0.00    -0.200 F 
ATOM     11  C   UNL     1       9.076  -3.007  24.701  0.00  0.00    +0.135 A 
ENDROOT
BRANCH   1  16
ATOM     12  C   UNL     1      10.404  -1.516  22.564  0.00  0.00    +0.126 C 
ATOM     13  S   UNL     1      10.026  -0.112  23.629  0.00  0.00    -0.123 S 
ATOM     14  C   UNL     1       8.318  -0.059  23.035  0.00  0.00    +0.203 C 
ATOM     15  O   UNL     1       8.087  -1.140  22.113  0.00  0.00    -0.340 OA
ATOM     16  C   UNL     1       9.043  -2.198  22.346  0.00  0.00    +0.235 C 
BRANCH  14  17
ATOM     17  C   UNL     1       8.003   1.280  22.354  0.00  0.00    +0.198 C 
BRANCH  17  18
ATOM     18  O   UNL     1       8.717   1.446  21.126  0.00  0.00    -0.392 OA
ATOM     19  H   UNL     1       8.269   2.166  20.645  0.00  0.00    +0.210 HD
ENDBRANCH  17  18
ENDBRANCH  14  17
ENDBRANCH   1  16
TORSDOF 3
ENDMDL
MODEL 6
REMARK VINA RESULT:      -5.5      1.967      2.590
REMARK  Name = 
REMARK  3 active torsions:
REMARK  status: ('A' for Active; 'I' for Inactive)
REMARK    1  A    between atoms: C_2  and  N_9
REMARK    2  A    between atoms: C_4  and  C_7
REMARK    3  A    between atoms: C_7  and  O_8
REMARK                            x       y       z     vdW  Elec       q    Type
REMARK                         _______ _______ _______ _____ _____    ______ ____
ROOT
ATOM      1  N   UNL     1       9.731   0.673  22.818  0.00  0.00    -0.269 N 
ATOM      2  C   UNL     1      10.401   1.488  23.748  0.00  0.00    +0.352 A 
ATOM      3  O   UNL     1      11.274   1.020  24.477  0.00  0.00    -0.244 OA
ATOM      4  N   UNL     1      10.057   2.820  23.836  0.00  0.00    -0.175 NA
ATOM      5  C   UNL     1       9.062   3.283  23.139  0.00  0.00    +0.159 A 
ATOM      6  N   UNL     1       8.767   4.616  23.258  0.00  0.00    -0.341 N 
ATOM      7  H   UNL     1       9.158   5.049  24.087  0.00  0.00    +0.144 HD
ATOM      8  H   UNL     1       7.816   4.898  23.043  0.00  0.00    +0.144 HD
ATOM      9  C   UNL     1       8.248   2.418  22.263  0.00  0.00    +0.179 A 
ATOM     10  F   UNL     1       7.192   2.953  21.631  0.00  0.00    -0.200 F 
ATOM     11  C   UNL     1       8.615   1.146  22.156  0.00  0.00    +0.135 A 
ENDROOT
BRANCH   1  16
ATOM     12  C   UNL     1       9.338  -1.623  21.761  0.00  0.00    +0.126 C 
ATOM     13  S   UNL     1       7.886  -2.090  22.719  0.00  0.00    -0.123 S 
ATOM     14  C   UNL     1       8.778  -1.861  24.276  0.00  0.00    +0.203 C 
ATOM     15  O   UNL     1      10.109  -1.379  24.010  0.00  0.00    -0.340 OA
ATOM     16  C   UNL     1      10.150  -0.734  22.718  0.00  0.00    +0.235 C 
BRANCH  14  17
ATOM     17  C   UNL     1       8.850  -3.167  25.078  0.00  0.00    +0.198 C 
BRANCH  17  18
ATOM     18  O   UNL     1       9.794  -4.090  24.529  0.00  0.00    -0.392 OA
ATOM     19  H   UNL     1       9.273  -4.771  24.064  0.00  0.00    +0.210 HD
ENDBRANCH  17  18
ENDBRANCH  14  17
ENDBRANCH   1  16
TORSDOF 3
ENDMDL
MODEL 7
REMARK VINA RESULT:      -5.5      2.839      5.058
REMARK  Name = 
REMARK  3 active torsions:
REMARK  status: ('A' for Active; 'I' for Inactive)
REMARK    1  A    between atoms: C_2  and  N_9
REMARK    2  A    between atoms: C_4  and  C_7
REMARK    3  A    between atoms: C_7  and  O_8
REMARK                            x       y       z     vdW  Elec       q    Type
REMARK                         _______ _______ _______ _____ _____    ______ ____
ROOT
ATOM      1  N   UNL     1       7.977  -2.422  23.885  0.00  0.00    -0.269 N 
ATOM      2  C   UNL     1       8.761  -3.590  23.895  0.00  0.00    +0.352 A 
ATOM      3  O   UNL     1       9.937  -3.553  24.250  0.00  0.00    -0.244 OA
ATOM      4  N   UNL     1       8.190  -4.779  23.491  0.00  0.00    -0.175 NA
ATOM      5  C   UNL     1       6.980  -4.792  23.016  0.00  0.00    +0.159 A 
ATOM      6  N   UNL     1       6.458  -6.001  22.636  0.00  0.00    -0.341 N 
ATOM      7  H   UNL     1       7.157  -6.720  22.489  0.00  0.00    +0.144 HD
ATOM      8  H   UNL     1       5.716  -5.985  21.945  0.00  0.00    +0.144 HD
ATOM      9  C   UNL     1       6.185  -3.558  22.860  0.00  0.00    +0.179 A 
ATOM     10  F   UNL     1       4.970  -3.642  22.295  0.00  0.00    -0.200 F 
ATOM     11  C   UNL     1       6.731  -2.426  23.290  0.00  0.00    +0.135 A 
ENDROOT
BRANCH   1  16
ATOM     12  C   UNL     1       7.660   0.015  24.595  0.00  0.00    +0.126 C 
ATOM     13  S   UNL     1       7.430   0.720  22.954  0.00  0.00    -0.123 S 
ATOM     14  C   UNL     1       9.016   0.056  22.391  0.00  0.00    +0.203 C 
ATOM     15  O   UNL     1       9.618  -0.724  23.441  0.00  0.00    -0.340 OA
ATOM     16  C   UNL     1       8.602  -1.178  24.362  0.00  0.00    +0.235 C 
BRANCH  14  17
ATOM     17  C   UNL     1       9.973   1.177  21.964  0.00  0.00    +0.198 C 
BRANCH  17  18
ATOM     18  O   UNL     1       9.279   2.322  21.462  0.00  0.00    -0.392 OA
ATOM     19  H   UNL     1       8.940   2.073  20.582  0.00  0.00    +0.210 HD
ENDBRANCH  17  18
ENDBRANCH  14  17
ENDBRANCH   1  16
TORSDOF 3
ENDMDL
MODEL 8
REMARK VINA RESULT:      -5.5      3.831      5.725
REMARK  Name = 
REMARK  3 active torsions:
REMARK  status: ('A' for Active; 'I' for Inactive)
REMARK    1  A    between atoms: C_2  and  N_9
REMARK    2  A    between atoms: C_4  and  C_7
REMARK    3  A    between atoms: C_7  and  O_8
REMARK                            x       y       z     vdW  Elec       q    Type
REMARK                         _______ _______ _______ _____ _____    ______ ____
ROOT
ATOM      1  N   UNL     1       7.886  -2.793  24.676  0.00  0.00    -0.269 N 
ATOM      2  C   UNL     1       7.184  -2.713  25.892  0.00  0.00    +0.352 A 
ATOM      3  O   UNL     1       6.596  -1.682  26.211  0.00  0.00    -0.244 OA
ATOM      4  N   UNL     1       7.172  -3.811  26.727  0.00  0.00    -0.175 NA
ATOM      5  C   UNL     1       7.882  -4.860  26.435  0.00  0.00    +0.159 A 
ATOM      6  N   UNL     1       7.828  -5.925  27.295  0.00  0.00    -0.341 N 
ATOM      7  H   UNL     1       7.476  -5.690  28.216  0.00  0.00    +0.144 HD
ATOM      8  H   UNL     1       8.622  -6.557  27.295  0.00  0.00    +0.144 HD
ATOM      9  C   UNL     1       8.742  -4.915  25.236  0.00  0.00    +0.179 A 
ATOM     10  F   UNL     1       9.501  -6.004  25.039  0.00  0.00    -0.200 F 
ATOM     11  C   UNL     1       8.713  -3.868  24.420  0.00  0.00    +0.135 A 
ENDROOT
BRANCH   1  16
ATOM     12  C   UNL     1       8.498  -1.787  22.405  0.00  0.00    +0.126 C 
ATOM     13  S   UNL     1      10.253  -1.530  22.716  0.00  0.00    -0.123 S 
ATOM     14  C   UNL     1       9.898  -0.523  24.177  0.00  0.00    +0.203 C 
ATOM     15  O   UNL     1       8.477  -0.480  24.406  0.00  0.00    -0.340 OA
ATOM     16  C   UNL     1       7.844  -1.621  23.787  0.00  0.00    +0.235 C 
BRANCH  14  17
ATOM     17  C   UNL     1      10.442   0.903  24.020  0.00  0.00    +0.198 C 
BRANCH  17  18
ATOM     18  O   UNL     1       9.760   1.840  24.858  0.00  0.00    -0.392 OA
ATOM     19  H   UNL     1      10.322   1.962  25.645  0.00  0.00    +0.210 HD
ENDBRANCH  17  18
ENDBRANCH  14  17
ENDBRANCH   1  16
TORSDOF 3
ENDMDL
MODEL 9
REMARK VINA RESULT:      -5.5      1.985      2.611
REMARK  Name = 
REMARK  3 active torsions:
REMARK  status: ('A' for Active; 'I' for Inactive)
REMARK    1  A    between atoms: C_2  and  N_9
REMARK    2  A    between atoms: C_4  and  C_7
REMARK    3  A    between atoms: C_7  and  O_8
REMARK                            x       y       z     vdW  Elec       q    Type
REMARK                         _______ _______ _______ _____ _____    ______ ____
ROOT
ATOM      1  N   UNL     1       8.376  -1.326  22.990  0.00  0.00    -0.269 N 
ATOM      2  C   UNL     1       9.688  -1.165  22.510  0.00  0.00    +0.352 A 
ATOM      3  O   UNL     1      10.493  -2.092  22.561  0.00  0.00    -0.244 OA
ATOM      4  N   UNL     1      10.060   0.056  21.987  0.00  0.00    -0.175 NA
ATOM      5  C   UNL     1       9.239   1.062  22.034  0.00  0.00    +0.159 A 
ATOM      6  N   UNL     1       9.657   2.251  21.494  0.00  0.00    -0.341 N 
ATOM      7  H   UNL     1      10.661   2.315  21.374  0.00  0.00    +0.144 HD
ATOM      8  H   UNL     1       9.219   3.096  21.846  0.00  0.00    +0.144 HD
ATOM      9  C   UNL     1       7.908   0.959  22.663  0.00  0.00    +0.179 A 
ATOM     10  F   UNL     1       7.144   2.061  22.738  0.00  0.00    -0.200 F 
ATOM     11  C   UNL     1       7.546  -0.232  23.126  0.00  0.00    +0.135 A 
ENDROOT
BRANCH   1  16
ATOM     12  C   UNL     1       7.551  -3.688  22.455  0.00  0.00    +0.126 C 
ATOM     13  S   UNL     1       5.826  -3.279  22.139  0.00  0.00    -0.123 S 
ATOM     14  C   UNL     1       5.654  -2.521  23.773  0.00  0.00    +0.203 C 
ATOM     15  O   UNL     1       6.920  -2.549  24.459  0.00  0.00    -0.340 OA
ATOM     16  C   UNL     1       7.996  -2.653  23.502  0.00  0.00    +0.235 C 
BRANCH  14  17
ATOM     17  C   UNL     1       4.592  -3.241  24.616  0.00  0.00    +0.198 C 
BRANCH  17  18
ATOM     18  O   UNL     1       3.831  -2.336  25.419  0.00  0.00    -0.392 OA
ATOM     19  H   UNL     1       3.371  -2.881  26.084  0.00  0.00    +0.210 HD
ENDBRANCH  17  18
ENDBRANCH  14  17
ENDBRANCH   1  16
TORSDOF 3
ENDMDL
