MODEL 1
REMARK VINA RESULT:      -5.8      0.000      0.000
REMARK  Name = 
REMARK  27 active torsions:
REMARK  status: ('A' for Active; 'I' for Inactive)
REMARK    1  A    between atoms: C_1  and  C_2
REMARK    2  A    between atoms: C_2  and  C_3
REMARK    3  A    between atoms: C_2  and  C_4
REMARK    4  A    between atoms: C_2  and  C_5
REMARK    5  A    between atoms: C_5  and  C_7
REMARK    6  A    between atoms: C_5  and  N_50
REMARK    7  A    between atoms: N_9  and  C_10
REMARK    8  A    between atoms: C_10  and  C_11
REMARK    9  A    between atoms: C_10  and  C_18
REMARK   10  A    between atoms: C_11  and  C_12
REMARK   11  A    between atoms: C_18  and  C_20
REMARK   12  A    between atoms: C_18  and  O_49
REMARK   13  A    between atoms: C_20  and  N_21
REMARK   14  A    between atoms: N_21  and  C_22
REMARK   15  A    between atoms: N_21  and  N_35
REMARK   16  A    between atoms: C_22  and  C_23
REMARK   17  A    between atoms: C_26  and  C_29
REMARK   18  A    between atoms: C_36  and  C_38
REMARK   19  A    between atoms: C_38  and  C_40
REMARK   20  A    between atoms: C_38  and  N_44
REMARK   21  A    between atoms: C_40  and  C_41
REMARK   22  A    between atoms: C_40  and  C_42
REMARK   23  A    between atoms: C_40  and  C_43
REMARK   24  A    between atoms: C_45  and  O_47
REMARK   25  A    between atoms: O_47  and  C_48
REMARK   26  A    between atoms: C_51  and  O_53
REMARK   27  A    between atoms: O_53  and  C_54
REMARK                            x       y       z     vdW  Elec       q    Type
REMARK                         _______ _______ _______ _____ _____    ______ ____
ROOT
ATOM      1  N   UNL     1       8.872  -2.297  23.013  0.00  0.00    -0.220 NA
ENDROOT
BRANCH   1   2
ATOM      2  N   UNL     1       8.449  -0.921  23.244  0.00  0.00    -0.246 N 
ATOM      3  H   UNL     1       8.293  -0.674  24.219  0.00  0.00    +0.169 HD
ATOM      4  C   UNL     1       8.803   0.168  22.430  0.00  0.00    +0.248 C 
ATOM      5  O   UNL     1       9.396   0.072  21.356  0.00  0.00    -0.272 OA
BRANCH   4   6
ATOM      6  C   UNL     1       8.367   1.587  22.994  0.00  0.00    +0.169 C 
BRANCH   6   7
ATOM      7  C   UNL     1       9.344   2.212  24.060  0.00  0.00    -0.011 C 
ATOM      8  C   UNL     1      10.085   1.124  24.883  0.00  0.00    +0.013 C 
ATOM      9  C   UNL     1       8.585   3.065  25.095  0.00  0.00    +0.013 C 
ATOM     10  C   UNL     1      10.407   3.080  23.364  0.00  0.00    +0.013 C 
ENDBRANCH   6   7
BRANCH   6  11
ATOM     11  N   UNL     1       7.015   1.446  23.562  0.00  0.00    -0.269 N 
ATOM     12  H   UNL     1       6.882   0.809  24.337  0.00  0.00    +0.153 HD
ATOM     13  C   UNL     1       5.931   2.172  23.169  0.00  0.00    +0.401 C 
ATOM     14  O   UNL     1       5.918   2.950  22.229  0.00  0.00    -0.226 OA
BRANCH  13  15
ATOM     15  O   UNL     1       4.892   1.938  24.010  0.00  0.00    -0.454 OA
ATOM     16  C   UNL     1       4.704   2.944  25.010  0.00  0.00    +0.282 C 
ENDBRANCH  13  15
ENDBRANCH   6  11
ENDBRANCH   4   6
ENDBRANCH   1   2
BRANCH   1  17
ATOM     17  C   UNL     1       9.188  -3.009  24.277  0.00  0.00    +0.139 C 
BRANCH  17  18
ATOM     18  C   UNL     1       8.548  -2.686  25.708  0.00  0.00    +0.151 C 
BRANCH  18  19
ATOM     19  O   UNL     1       9.016  -3.739  26.591  0.00  0.00    -0.389 OA
ATOM     20  H   UNL     1       8.828  -4.587  26.146  0.00  0.00    +0.210 HD
ENDBRANCH  18  19
BRANCH  18  21
ATOM     21  C   UNL     1       6.965  -2.576  25.888  0.00  0.00    +0.107 C 
BRANCH  21  23
ATOM     22  C   UNL     1       6.329  -0.413  27.116  0.00  0.00    +0.234 C 
ATOM     23  N   UNL     1       6.520  -1.775  27.111  0.00  0.00    -0.308 N 
ATOM     24  H   UNL     1       6.226  -2.277  27.949  0.00  0.00    +0.149 HD
ATOM     25  O   UNL     1       6.709   0.241  26.134  0.00  0.00    -0.274 OA
BRANCH  22  26
ATOM     26  C   UNL     1       5.745   0.376  28.363  0.00  0.00    +0.167 C 
BRANCH  26  28
ATOM     27  C   UNL     1       3.885  -1.088  29.278  0.00  0.00    +0.013 C 
ATOM     28  C   UNL     1       4.188   0.243  28.556  0.00  0.00    -0.011 C 
ATOM     29  C   UNL     1       3.594   1.368  29.447  0.00  0.00    +0.013 C 
ATOM     30  C   UNL     1       3.441   0.299  27.213  0.00  0.00    +0.013 C 
ENDBRANCH  26  28
BRANCH  26  31
ATOM     31  N   UNL     1       6.226   1.759  28.533  0.00  0.00    -0.269 N 
ATOM     32  H   UNL     1       5.777   2.531  28.067  0.00  0.00    +0.153 HD
ATOM     33  C   UNL     1       7.251   2.088  29.388  0.00  0.00    +0.401 C 
ATOM     34  O   UNL     1       7.918   1.291  30.035  0.00  0.00    -0.226 OA
BRANCH  33  35
ATOM     35  O   UNL     1       7.405   3.436  29.436  0.00  0.00    -0.454 OA
ATOM     36  C   UNL     1       6.372   4.215  28.807  0.00  0.00    +0.282 C 
ENDBRANCH  33  35
ENDBRANCH  26  31
ENDBRANCH  22  26
ENDBRANCH  21  23
BRANCH  21  37
ATOM     37  C   UNL     1       6.240  -3.957  25.913  0.00  0.00    +0.060 C 
BRANCH  37  38
ATOM     38  C   UNL     1       4.776  -3.861  26.338  0.00  0.00    -0.046 A 
ATOM     39  C   UNL     1       3.845  -3.084  25.628  0.00  0.00    +0.004 A 
ATOM     40  C   UNL     1       2.502  -3.035  26.024  0.00  0.00    +0.000 A 
ATOM     41  C   UNL     1       2.070  -3.754  27.138  0.00  0.00    +0.000 A 
ATOM     42  C   UNL     1       2.983  -4.501  27.866  0.00  0.00    +0.000 A 
ATOM     43  C   UNL     1       4.328  -4.546  27.478  0.00  0.00    +0.004 A 
ENDBRANCH  37  38
ENDBRANCH  21  37
ENDBRANCH  18  21
ENDBRANCH  17  18
ENDBRANCH   1  17
BRANCH   1  44
ATOM     44  C   UNL     1       8.167  -3.069  21.947  0.00  0.00    +0.140 C 
BRANCH  44  45
ATOM     45  C   UNL     1       6.993  -4.050  22.117  0.00  0.00    -0.032 A 
ATOM     46  C   UNL     1       5.695  -3.476  22.202  0.00  0.00    +0.005 A 
ATOM     47  C   UNL     1       4.543  -4.199  22.607  0.00  0.00    +0.010 A 
ATOM     48  C   UNL     1       4.625  -5.552  22.949  0.00  0.00    +0.000 A 
ATOM     49  C   UNL     1       5.889  -6.152  22.700  0.00  0.00    +0.010 A 
ATOM     50  C   UNL     1       7.044  -5.428  22.309  0.00  0.00    +0.005 A 
BRANCH  48  51
ATOM     51  C   UNL     1       3.571  -6.307  23.712  0.00  0.00    +0.071 A 
ATOM     52  N   UNL     1       2.399  -6.470  23.037  0.00  0.00    -0.255 NA
ATOM     53  C   UNL     1       1.563  -7.465  23.408  0.00  0.00    +0.111 A 
ATOM     54  C   UNL     1       1.815  -8.331  24.451  0.00  0.00    +0.020 A 
ATOM     55  C   UNL     1       2.934  -8.082  25.231  0.00  0.00    +0.004 A 
ATOM     56  C   UNL     1       3.809  -7.041  24.881  0.00  0.00    +0.028 A 
ENDBRANCH  48  51
ENDBRANCH  44  45
ENDBRANCH   1  44
TORSDOF 19
ENDMDL
MODEL 2
REMARK VINA RESULT:      -5.7      2.188      6.249
REMARK  Name = 
REMARK  27 active torsions:
REMARK  status: ('A' for Active; 'I' for Inactive)
REMARK    1  A    between atoms: C_1  and  C_2
REMARK    2  A    between atoms: C_2  and  C_3
REMARK    3  A    between atoms: C_2  and  C_4
REMARK    4  A    between atoms: C_2  and  C_5
REMARK    5  A    between atoms: C_5  and  C_7
REMARK    6  A    between atoms: C_5  and  N_50
REMARK    7  A    between atoms: N_9  and  C_10
REMARK    8  A    between atoms: C_10  and  C_11
REMARK    9  A    between atoms: C_10  and  C_18
REMARK   10  A    between atoms: C_11  and  C_12
REMARK   11  A    between atoms: C_18  and  C_20
REMARK   12  A    between atoms: C_18  and  O_49
REMARK   13  A    between atoms: C_20  and  N_21
REMARK   14  A    between atoms: N_21  and  C_22
REMARK   15  A    between atoms: N_21  and  N_35
REMARK   16  A    between atoms: C_22  and  C_23
REMARK   17  A    between atoms: C_26  and  C_29
REMARK   18  A    between atoms: C_36  and  C_38
REMARK   19  A    between atoms: C_38  and  C_40
REMARK   20  A    between atoms: C_38  and  N_44
REMARK   21  A    between atoms: C_40  and  C_41
REMARK   22  A    between atoms: C_40  and  C_42
REMARK   23  A    between atoms: C_40  and  C_43
REMARK   24  A    between atoms: C_45  and  O_47
REMARK   25  A    between atoms: O_47  and  C_48
REMARK   26  A    between atoms: C_51  and  O_53
REMARK   27  A    between atoms: O_53  and  C_54
REMARK                            x       y       z     vdW  Elec       q    Type
REMARK                         _______ _______ _______ _____ _____    ______ ____
ROOT
ATOM      1  N   UNL     1       5.390   0.424  26.647  0.00  0.00    -0.220 NA
ENDROOT
BRANCH   1   2
ATOM      2  N   UNL     1       5.114   1.564  25.782  0.00  0.00    -0.246 N 
ATOM      3  H   UNL     1       5.018   2.457  26.260  0.00  0.00    +0.169 HD
ATOM      4  C   UNL     1       5.543   1.675  24.449  0.00  0.00    +0.248 C 
ATOM      5  O   UNL     1       6.086   0.771  23.814  0.00  0.00    -0.272 OA
BRANCH   4   6
ATOM      6  C   UNL     1       5.271   3.089  23.779  0.00  0.00    +0.169 C 
BRANCH   6   7
ATOM      7  C   UNL     1       6.495   4.080  23.785  0.00  0.00    -0.011 C 
ATOM      8  C   UNL     1       7.201   4.145  22.404  0.00  0.00    +0.013 C 
ATOM      9  C   UNL     1       7.581   3.635  24.783  0.00  0.00    +0.013 C 
ATOM     10  C   UNL     1       6.027   5.502  24.141  0.00  0.00    +0.013 C 
ENDBRANCH   6   7
BRANCH   6  11
ATOM     11  N   UNL     1       4.120   3.696  24.470  0.00  0.00    -0.269 N 
ATOM     12  H   UNL     1       4.297   4.300  25.263  0.00  0.00    +0.153 HD
ATOM     13  C   UNL     1       2.823   3.566  24.075  0.00  0.00    +0.401 C 
ATOM     14  O   UNL     1       2.441   2.846  23.167  0.00  0.00    -0.226 OA
BRANCH  13  15
ATOM     15  O   UNL     1       2.034   4.393  24.807  0.00  0.00    -0.454 OA
ATOM     16  C   UNL     1       1.198   3.724  25.756  0.00  0.00    +0.282 C 
ENDBRANCH  13  15
ENDBRANCH   6  11
ENDBRANCH   4   6
ENDBRANCH   1   2
BRANCH   1  17
ATOM     17  C   UNL     1       6.792   0.414  27.136  0.00  0.00    +0.139 C 
BRANCH  17  18
ATOM     18  C   UNL     1       7.837  -0.781  26.929  0.00  0.00    +0.151 C 
BRANCH  18  19
ATOM     19  O   UNL     1       9.041  -0.371  27.627  0.00  0.00    -0.389 OA
ATOM     20  H   UNL     1       9.130   0.592  27.499  0.00  0.00    +0.210 HD
ENDBRANCH  18  19
BRANCH  18  21
ATOM     21  C   UNL     1       8.266  -1.244  25.461  0.00  0.00    +0.107 C 
BRANCH  21  23
ATOM     22  C   UNL     1       6.817  -3.254  24.790  0.00  0.00    +0.234 C 
ATOM     23  N   UNL     1       8.029  -2.724  25.169  0.00  0.00    -0.308 N 
ATOM     24  H   UNL     1       8.831  -3.354  25.129  0.00  0.00    +0.149 HD
ATOM     25  O   UNL     1       5.809  -2.535  24.862  0.00  0.00    -0.274 OA
BRANCH  22  26
ATOM     26  C   UNL     1       6.628  -4.772  24.369  0.00  0.00    +0.167 C 
BRANCH  26  28
ATOM     27  C   UNL     1       4.892  -5.449  22.647  0.00  0.00    +0.013 C 
ATOM     28  C   UNL     1       6.358  -5.002  22.835  0.00  0.00    -0.011 C 
ATOM     29  C   UNL     1       6.531  -3.707  21.994  0.00  0.00    +0.013 C 
ATOM     30  C   UNL     1       7.312  -6.050  22.239  0.00  0.00    +0.013 C 
ENDBRANCH  26  28
BRANCH  26  31
ATOM     31  N   UNL     1       5.741  -5.573  25.232  0.00  0.00    -0.269 N 
ATOM     32  H   UNL     1       4.807  -5.817  24.942  0.00  0.00    +0.153 HD
ATOM     33  C   UNL     1       6.151  -6.099  26.434  0.00  0.00    +0.401 C 
ATOM     34  O   UNL     1       7.244  -5.910  26.955  0.00  0.00    -0.226 OA
BRANCH  33  35
ATOM     35  O   UNL     1       5.178  -6.887  26.957  0.00  0.00    -0.454 OA
ATOM     36  C   UNL     1       5.138  -6.977  28.393  0.00  0.00    +0.282 C 
ENDBRANCH  33  35
ENDBRANCH  26  31
ENDBRANCH  22  26
ENDBRANCH  21  23
BRANCH  21  37
ATOM     37  C   UNL     1       9.746  -0.902  25.105  0.00  0.00    +0.060 C 
BRANCH  37  38
ATOM     38  C   UNL     1       9.873   0.176  24.030  0.00  0.00    -0.046 A 
ATOM     39  C   UNL     1      10.498   1.409  24.283  0.00  0.00    +0.004 A 
ATOM     40  C   UNL     1      10.625   2.370  23.271  0.00  0.00    +0.000 A 
ATOM     41  C   UNL     1      10.123   2.118  21.995  0.00  0.00    +0.000 A 
ATOM     42  C   UNL     1       9.476   0.918  21.738  0.00  0.00    +0.000 A 
ATOM     43  C   UNL     1       9.340  -0.041  22.750  0.00  0.00    +0.004 A 
ENDBRANCH  37  38
ENDBRANCH  21  37
ENDBRANCH  18  21
ENDBRANCH  17  18
ENDBRANCH   1  17
BRANCH   1  44
ATOM     44  C   UNL     1       4.325   0.009  27.607  0.00  0.00    +0.140 C 
BRANCH  44  45
ATOM     45  C   UNL     1       3.516  -1.301  27.605  0.00  0.00    -0.032 A 
ATOM     46  C   UNL     1       4.226  -2.484  27.950  0.00  0.00    +0.005 A 
ATOM     47  C   UNL     1       3.712  -3.792  27.757  0.00  0.00    +0.010 A 
ATOM     48  C   UNL     1       2.442  -3.993  27.207  0.00  0.00    +0.000 A 
ATOM     49  C   UNL     1       1.680  -2.807  27.024  0.00  0.00    +0.010 A 
ATOM     50  C   UNL     1       2.198  -1.499  27.203  0.00  0.00    +0.005 A 
BRANCH  48  51
ATOM     51  C   UNL     1       1.950  -5.297  26.642  0.00  0.00    +0.071 A 
ATOM     52  N   UNL     1       2.387  -5.562  25.379  0.00  0.00    -0.255 NA
ATOM     53  C   UNL     1       2.388  -6.839  24.941  0.00  0.00    +0.111 A 
ATOM     54  C   UNL     1       1.953  -7.910  25.694  0.00  0.00    +0.020 A 
ATOM     55  C   UNL     1       1.374  -7.633  26.923  0.00  0.00    +0.004 A 
ATOM     56  C   UNL     1       1.342  -6.311  27.395  0.00  0.00    +0.028 A 
ENDBRANCH  48  51
ENDBRANCH  44  45
ENDBRANCH   1  44
TORSDOF 19
ENDMDL
MODEL 3
REMARK VINA RESULT:      -5.7      2.046      6.229
REMARK  Name = 
REMARK  27 active torsions:
REMARK  status: ('A' for Active; 'I' for Inactive)
REMARK    1  A    between atoms: C_1  and  C_2
REMARK    2  A    between atoms: C_2  and  C_3
REMARK    3  A    between atoms: C_2  and  C_4
REMARK    4  A    between atoms: C_2  and  C_5
REMARK    5  A    between atoms: C_5  and  C_7
REMARK    6  A    between atoms: C_5  and  N_50
REMARK    7  A    between atoms: N_9  and  C_10
REMARK    8  A    between atoms: C_10  and  C_11
REMARK    9  A    between atoms: C_10  and  C_18
REMARK   10  A    between atoms: C_11  and  C_12
REMARK   11  A    between atoms: C_18  and  C_20
REMARK   12  A    between atoms: C_18  and  O_49
REMARK   13  A    between atoms: C_20  and  N_21
REMARK   14  A    between atoms: N_21  and  C_22
REMARK   15  A    between atoms: N_21  and  N_35
REMARK   16  A    between atoms: C_22  and  C_23
REMARK   17  A    between atoms: C_26  and  C_29
REMARK   18  A    between atoms: C_36  and  C_38
REMARK   19  A    between atoms: C_38  and  C_40
REMARK   20  A    between atoms: C_38  and  N_44
REMARK   21  A    between atoms: C_40  and  C_41
REMARK   22  A    between atoms: C_40  and  C_42
REMARK   23  A    between atoms: C_40  and  C_43
REMARK   24  A    between atoms: C_45  and  O_47
REMARK   25  A    between atoms: O_47  and  C_48
REMARK   26  A    between atoms: C_51  and  O_53
REMARK   27  A    between atoms: O_53  and  C_54
REMARK                            x       y       z     vdW  Elec       q    Type
REMARK                         _______ _______ _______ _____ _____    ______ ____
ROOT
ATOM      1  N   UNL     1       5.605   0.833  27.068  0.00  0.00    -0.220 NA
ENDROOT
BRANCH   1   2
ATOM      2  N   UNL     1       5.551   2.107  26.364  0.00  0.00    -0.246 N 
ATOM      3  H   UNL     1       5.539   2.931  26.962  0.00  0.00    +0.169 HD
ATOM      4  C   UNL     1       6.092   2.337  25.088  0.00  0.00    +0.248 C 
ATOM      5  O   UNL     1       6.555   1.459  24.359  0.00  0.00    -0.272 OA
BRANCH   4   6
ATOM      6  C   UNL     1       6.064   3.853  24.618  0.00  0.00    +0.169 C 
BRANCH   6   7
ATOM      7  C   UNL     1       5.579   4.086  23.138  0.00  0.00    -0.011 C 
ATOM      8  C   UNL     1       5.191   5.566  22.875  0.00  0.00    +0.013 C 
ATOM      9  C   UNL     1       4.314   3.266  22.819  0.00  0.00    +0.013 C 
ATOM     10  C   UNL     1       6.694   3.709  22.146  0.00  0.00    +0.013 C 
ENDBRANCH   6   7
BRANCH   6  11
ATOM     11  N   UNL     1       7.418   4.404  24.803  0.00  0.00    -0.269 N 
ATOM     12  H   UNL     1       7.980   4.588  23.981  0.00  0.00    +0.153 HD
ATOM     13  C   UNL     1       7.952   4.757  26.005  0.00  0.00    +0.401 C 
ATOM     14  O   UNL     1       7.421   4.564  27.086  0.00  0.00    -0.226 OA
BRANCH  13  15
ATOM     15  O   UNL     1       9.132   5.399  25.813  0.00  0.00    -0.454 OA
ATOM     16  C   UNL     1       9.416   5.717  24.447  0.00  0.00    +0.282 C 
ENDBRANCH  13  15
ENDBRANCH   6  11
ENDBRANCH   4   6
ENDBRANCH   1   2
BRANCH   1  17
ATOM     17  C   UNL     1       6.896   0.631  27.774  0.00  0.00    +0.139 C 
BRANCH  17  18
ATOM     18  C   UNL     1       7.966  -0.511  27.440  0.00  0.00    +0.151 C 
BRANCH  18  19
ATOM     19  O   UNL     1       9.195  -0.096  28.091  0.00  0.00    -0.389 OA
ATOM     20  H   UNL     1       8.989   0.710  28.600  0.00  0.00    +0.210 HD
ENDBRANCH  18  19
BRANCH  18  21
ATOM     21  C   UNL     1       8.324  -0.877  25.927  0.00  0.00    +0.107 C 
BRANCH  21  23
ATOM     22  C   UNL     1       6.971  -2.853  25.002  0.00  0.00    +0.234 C 
ATOM     23  N   UNL     1       8.120  -2.347  25.564  0.00  0.00    -0.308 N 
ATOM     24  H   UNL     1       8.915  -2.985  25.623  0.00  0.00    +0.149 HD
ATOM     25  O   UNL     1       5.969  -2.125  24.947  0.00  0.00    -0.274 OA
BRANCH  22  26
ATOM     26  C   UNL     1       6.833  -4.359  24.519  0.00  0.00    +0.167 C 
BRANCH  26  28
ATOM     27  C   UNL     1       6.856  -3.571  22.108  0.00  0.00    +0.013 C 
ATOM     28  C   UNL     1       6.173  -4.537  23.100  0.00  0.00    -0.011 C 
ATOM     29  C   UNL     1       6.367  -5.966  22.523  0.00  0.00    +0.013 C 
ATOM     30  C   UNL     1       4.659  -4.275  23.139  0.00  0.00    +0.013 C 
ENDBRANCH  26  28
BRANCH  26  31
ATOM     31  N   UNL     1       6.308  -5.309  25.516  0.00  0.00    -0.269 N 
ATOM     32  H   UNL     1       5.491  -5.868  25.329  0.00  0.00    +0.153 HD
ATOM     33  C   UNL     1       6.937  -5.547  26.716  0.00  0.00    +0.401 C 
ATOM     34  O   UNL     1       7.935  -4.966  27.122  0.00  0.00    -0.226 OA
BRANCH  33  35
ATOM     35  O   UNL     1       6.307  -6.549  27.383  0.00  0.00    -0.454 OA
ATOM     36  C   UNL     1       6.154  -6.366  28.802  0.00  0.00    +0.282 C 
ENDBRANCH  33  35
ENDBRANCH  26  31
ENDBRANCH  22  26
ENDBRANCH  21  23
BRANCH  21  37
ATOM     37  C   UNL     1       9.768  -0.461  25.507  0.00  0.00    +0.060 C 
BRANCH  37  38
ATOM     38  C   UNL     1       9.815   0.300  24.183  0.00  0.00    -0.046 A 
ATOM     39  C   UNL     1       9.576  -0.334  22.952  0.00  0.00    +0.004 A 
ATOM     40  C   UNL     1       9.599   0.392  21.754  0.00  0.00    +0.000 A 
ATOM     41  C   UNL     1       9.868   1.761  21.768  0.00  0.00    +0.000 A 
ATOM     42  C   UNL     1      10.136   2.395  22.972  0.00  0.00    +0.000 A 
ATOM     43  C   UNL     1      10.122   1.669  24.170  0.00  0.00    +0.004 A 
ENDBRANCH  37  38
ENDBRANCH  21  37
ENDBRANCH  18  21
ENDBRANCH  17  18
ENDBRANCH   1  17
BRANCH   1  44
ATOM     44  C   UNL     1       4.365   0.370  27.759  0.00  0.00    +0.140 C 
BRANCH  44  45
ATOM     45  C   UNL     1       3.643  -0.979  27.593  0.00  0.00    -0.032 A 
ATOM     46  C   UNL     1       4.396  -2.144  27.910  0.00  0.00    +0.005 A 
ATOM     47  C   UNL     1       3.983  -3.459  27.579  0.00  0.00    +0.010 A 
ATOM     48  C   UNL     1       2.777  -3.688  26.909  0.00  0.00    +0.000 A 
ATOM     49  C   UNL     1       1.959  -2.537  26.749  0.00  0.00    +0.010 A 
ATOM     50  C   UNL     1       2.378  -1.219  27.066  0.00  0.00    +0.005 A 
BRANCH  48  51
ATOM     51  C   UNL     1       2.416  -4.971  26.211  0.00  0.00    +0.071 A 
ATOM     52  N   UNL     1       1.558  -4.816  25.163  0.00  0.00    -0.255 NA
ATOM     53  C   UNL     1       1.503  -5.777  24.216  0.00  0.00    +0.111 A 
ATOM     54  C   UNL     1       2.258  -6.931  24.247  0.00  0.00    +0.020 A 
ATOM     55  C   UNL     1       3.024  -7.162  25.379  0.00  0.00    +0.004 A 
ATOM     56  C   UNL     1       3.084  -6.189  26.390  0.00  0.00    +0.028 A 
ENDBRANCH  48  51
ENDBRANCH  44  45
ENDBRANCH   1  44
TORSDOF 19
ENDMDL
MODEL 4
REMARK VINA RESULT:      -5.6      2.670      8.804
REMARK  Name = 
REMARK  27 active torsions:
REMARK  status: ('A' for Active; 'I' for Inactive)
REMARK    1  A    between atoms: C_1  and  C_2
REMARK    2  A    between atoms: C_2  and  C_3
REMARK    3  A    between atoms: C_2  and  C_4
REMARK    4  A    between atoms: C_2  and  C_5
REMARK    5  A    between atoms: C_5  and  C_7
REMARK    6  A    between atoms: C_5  and  N_50
REMARK    7  A    between atoms: N_9  and  C_10
REMARK    8  A    between atoms: C_10  and  C_11
REMARK    9  A    between atoms: C_10  and  C_18
REMARK   10  A    between atoms: C_11  and  C_12
REMARK   11  A    between atoms: C_18  and  C_20
REMARK   12  A    between atoms: C_18  and  O_49
REMARK   13  A    between atoms: C_20  and  N_21
REMARK   14  A    between atoms: N_21  and  C_22
REMARK   15  A    between atoms: N_21  and  N_35
REMARK   16  A    between atoms: C_22  and  C_23
REMARK   17  A    between atoms: C_26  and  C_29
REMARK   18  A    between atoms: C_36  and  C_38
REMARK   19  A    between atoms: C_38  and  C_40
REMARK   20  A    between atoms: C_38  and  N_44
REMARK   21  A    between atoms: C_40  and  C_41
REMARK   22  A    between atoms: C_40  and  C_42
REMARK   23  A    between atoms: C_40  and  C_43
REMARK   24  A    between atoms: C_45  and  O_47
REMARK   25  A    between atoms: O_47  and  C_48
REMARK   26  A    between atoms: C_51  and  O_53
REMARK   27  A    between atoms: O_53  and  C_54
REMARK                            x       y       z     vdW  Elec       q    Type
REMARK                         _______ _______ _______ _____ _____    ______ ____
ROOT
ATOM      1  N   UNL     1       7.350  -1.746  23.186  0.00  0.00    -0.220 NA
ENDROOT
BRANCH   1   2
ATOM      2  N   UNL     1       6.946  -2.928  23.936  0.00  0.00    -0.246 N 
ATOM      3  H   UNL     1       6.260  -2.761  24.669  0.00  0.00    +0.169 HD
ATOM      4  C   UNL     1       6.916  -4.231  23.413  0.00  0.00    +0.248 C 
ATOM      5  O   UNL     1       7.354  -4.549  22.307  0.00  0.00    -0.272 OA
BRANCH   4   6
ATOM      6  C   UNL     1       6.267  -5.317  24.373  0.00  0.00    +0.169 C 
BRANCH   6   7
ATOM      7  C   UNL     1       4.756  -5.650  24.082  0.00  0.00    -0.011 C 
ATOM      8  C   UNL     1       4.517  -6.033  22.596  0.00  0.00    +0.013 C 
ATOM      9  C   UNL     1       3.845  -4.436  24.346  0.00  0.00    +0.013 C 
ATOM     10  C   UNL     1       4.293  -6.833  24.952  0.00  0.00    +0.013 C 
ENDBRANCH   6   7
BRANCH   6  11
ATOM     11  N   UNL     1       6.426  -4.841  25.758  0.00  0.00    -0.269 N 
ATOM     12  H   UNL     1       5.739  -4.197  26.129  0.00  0.00    +0.153 HD
ATOM     13  C   UNL     1       7.399  -5.263  26.615  0.00  0.00    +0.401 C 
ATOM     14  O   UNL     1       8.320  -6.003  26.311  0.00  0.00    -0.226 OA
BRANCH  13  15
ATOM     15  O   UNL     1       7.157  -4.779  27.859  0.00  0.00    -0.454 OA
ATOM     16  C   UNL     1       6.068  -5.412  28.537  0.00  0.00    +0.282 C 
ENDBRANCH  13  15
ENDBRANCH   6  11
ENDBRANCH   4   6
ENDBRANCH   1   2
BRANCH   1  17
ATOM     17  C   UNL     1       6.565  -0.543  23.562  0.00  0.00    +0.139 C 
BRANCH  17  18
ATOM     18  C   UNL     1       6.203  -0.103  25.058  0.00  0.00    +0.151 C 
BRANCH  18  19
ATOM     19  O   UNL     1       4.898  -0.677  25.328  0.00  0.00    -0.389 OA
ATOM     20  H   UNL     1       4.610  -1.125  24.511  0.00  0.00    +0.210 HD
ENDBRANCH  18  19
BRANCH  18  21
ATOM     21  C   UNL     1       6.141   1.442  25.461  0.00  0.00    +0.107 C 
BRANCH  21  23
ATOM     22  C   UNL     1       4.889   3.252  24.139  0.00  0.00    +0.234 C 
ATOM     23  N   UNL     1       5.957   2.398  24.283  0.00  0.00    -0.308 N 
ATOM     24  H   UNL     1       6.721   2.510  23.615  0.00  0.00    +0.149 HD
ATOM     25  O   UNL     1       3.922   3.123  24.904  0.00  0.00    -0.274 OA
BRANCH  22  26
ATOM     26  C   UNL     1       4.786   4.323  22.973  0.00  0.00    +0.167 C 
BRANCH  26  28
ATOM     27  C   UNL     1       7.079   5.073  22.187  0.00  0.00    +0.013 C 
ATOM     28  C   UNL     1       5.858   5.475  23.041  0.00  0.00    -0.011 C 
ATOM     29  C   UNL     1       5.337   6.816  22.454  0.00  0.00    +0.013 C 
ATOM     30  C   UNL     1       6.294   5.762  24.488  0.00  0.00    +0.013 C 
ENDBRANCH  26  28
BRANCH  26  31
ATOM     31  N   UNL     1       3.432   4.820  22.672  0.00  0.00    -0.269 N 
ATOM     32  H   UNL     1       3.079   5.666  23.089  0.00  0.00    +0.153 HD
ATOM     33  C   UNL     1       2.605   4.213  21.757  0.00  0.00    +0.401 C 
ATOM     34  O   UNL     1       2.855   3.177  21.153  0.00  0.00    -0.226 OA
BRANCH  33  35
ATOM     35  O   UNL     1       1.473   4.944  21.591  0.00  0.00    -0.454 OA
ATOM     36  C   UNL     1       0.445   4.346  20.782  0.00  0.00    +0.282 C 
ENDBRANCH  33  35
ENDBRANCH  26  31
ENDBRANCH  22  26
ENDBRANCH  21  23
BRANCH  21  37
ATOM     37  C   UNL     1       7.368   1.921  26.297  0.00  0.00    +0.060 C 
BRANCH  37  38
ATOM     38  C   UNL     1       6.975   2.602  27.607  0.00  0.00    -0.046 A 
ATOM     39  C   UNL     1       6.795   3.993  27.697  0.00  0.00    +0.004 A 
ATOM     40  C   UNL     1       6.409   4.590  28.904  0.00  0.00    +0.000 A 
ATOM     41  C   UNL     1       6.203   3.809  30.040  0.00  0.00    +0.000 A 
ATOM     42  C   UNL     1       6.406   2.438  29.975  0.00  0.00    +0.000 A 
ATOM     43  C   UNL     1       6.801   1.840  28.772  0.00  0.00    +0.004 A 
ENDBRANCH  37  38
ENDBRANCH  21  37
ENDBRANCH  18  21
ENDBRANCH  17  18
ENDBRANCH   1  17
BRANCH   1  44
ATOM     44  C   UNL     1       8.808  -1.559  22.920  0.00  0.00    +0.140 C 
BRANCH  44  45
ATOM     45  C   UNL     1       9.584  -0.233  22.829  0.00  0.00    -0.032 A 
ATOM     46  C   UNL     1      10.264   0.184  24.006  0.00  0.00    +0.005 A 
ATOM     47  C   UNL     1      10.810   1.482  24.178  0.00  0.00    +0.010 A 
ATOM     48  C   UNL     1      10.711   2.445  23.170  0.00  0.00    +0.000 A 
ATOM     49  C   UNL     1      10.180   1.965  21.942  0.00  0.00    +0.010 A 
ATOM     50  C   UNL     1       9.621   0.673  21.773  0.00  0.00    +0.005 A 
BRANCH  48  51
ATOM     51  C   UNL     1      10.930   3.920  23.369  0.00  0.00    +0.071 A 
ATOM     52  N   UNL     1       9.859   4.580  23.891  0.00  0.00    -0.255 NA
ATOM     53  C   UNL     1      10.058   5.765  24.509  0.00  0.00    +0.111 A 
ATOM     54  C   UNL     1      11.292   6.368  24.634  0.00  0.00    +0.020 A 
ATOM     55  C   UNL     1      12.362   5.774  23.982  0.00  0.00    +0.004 A 
ATOM     56  C   UNL     1      12.179   4.552  23.315  0.00  0.00    +0.028 A 
ENDBRANCH  48  51
ENDBRANCH  44  45
ENDBRANCH   1  44
TORSDOF 19
ENDMDL
MODEL 5
REMARK VINA RESULT:      -5.6      1.446      5.339
REMARK  Name = 
REMARK  27 active torsions:
REMARK  status: ('A' for Active; 'I' for Inactive)
REMARK    1  A    between atoms: C_1  and  C_2
REMARK    2  A    between atoms: C_2  and  C_3
REMARK    3  A    between atoms: C_2  and  C_4
REMARK    4  A    between atoms: C_2  and  C_5
REMARK    5  A    between atoms: C_5  and  C_7
REMARK    6  A    between atoms: C_5  and  N_50
REMARK    7  A    between atoms: N_9  and  C_10
REMARK    8  A    between atoms: C_10  and  C_11
REMARK    9  A    between atoms: C_10  and  C_18
REMARK   10  A    between atoms: C_11  and  C_12
REMARK   11  A    between atoms: C_18  and  C_20
REMARK   12  A    between atoms: C_18  and  O_49
REMARK   13  A    between atoms: C_20  and  N_21
REMARK   14  A    between atoms: N_21  and  C_22
REMARK   15  A    between atoms: N_21  and  N_35
REMARK   16  A    between atoms: C_22  and  C_23
REMARK   17  A    between atoms: C_26  and  C_29
REMARK   18  A    between atoms: C_36  and  C_38
REMARK   19  A    between atoms: C_38  and  C_40
REMARK   20  A    between atoms: C_38  and  N_44
REMARK   21  A    between atoms: C_40  and  C_41
REMARK   22  A    between atoms: C_40  and  C_42
REMARK   23  A    between atoms: C_40  and  C_43
REMARK   24  A    between atoms: C_45  and  O_47
REMARK   25  A    between atoms: O_47  and  C_48
REMARK   26  A    between atoms: C_51  and  O_53
REMARK   27  A    between atoms: O_53  and  C_54
REMARK                            x       y       z     vdW  Elec       q    Type
REMARK                         _______ _______ _______ _____ _____    ______ ____
ROOT
ATOM      1  N   UNL     1       7.246  -2.372  26.120  0.00  0.00    -0.220 NA
ENDROOT
BRANCH   1   2
ATOM      2  N   UNL     1       6.897  -1.215  26.935  0.00  0.00    -0.246 N 
ATOM      3  H   UNL     1       7.674  -0.788  27.434  0.00  0.00    +0.169 HD
ATOM      4  C   UNL     1       5.847  -0.328  26.649  0.00  0.00    +0.248 C 
ATOM      5  O   UNL     1       5.015  -0.495  25.758  0.00  0.00    -0.272 OA
BRANCH   4   6
ATOM      6  C   UNL     1       5.786   0.953  27.587  0.00  0.00    +0.169 C 
BRANCH   6   7
ATOM      7  C   UNL     1       4.615   0.957  28.640  0.00  0.00    -0.011 C 
ATOM      8  C   UNL     1       3.324   1.608  28.076  0.00  0.00    +0.013 C 
ATOM      9  C   UNL     1       4.979   1.780  29.890  0.00  0.00    +0.013 C 
ATOM     10  C   UNL     1       4.271  -0.483  29.059  0.00  0.00    +0.013 C 
ENDBRANCH   6   7
BRANCH   6  11
ATOM     11  N   UNL     1       5.694   2.139  26.717  0.00  0.00    -0.269 N 
ATOM     12  H   UNL     1       5.013   2.136  25.968  0.00  0.00    +0.153 HD
ATOM     13  C   UNL     1       6.412   3.284  26.891  0.00  0.00    +0.401 C 
ATOM     14  O   UNL     1       7.295   3.432  27.719  0.00  0.00    -0.226 OA
BRANCH  13  15
ATOM     15  O   UNL     1       5.961   4.242  26.043  0.00  0.00    -0.454 OA
ATOM     16  C   UNL     1       4.817   4.959  26.518  0.00  0.00    +0.282 C 
ENDBRANCH  13  15
ENDBRANCH   6  11
ENDBRANCH   4   6
ENDBRANCH   1   2
BRANCH   1  17
ATOM     17  C   UNL     1       8.536  -2.193  25.407  0.00  0.00    +0.139 C 
BRANCH  17  18
ATOM     18  C   UNL     1       8.762  -2.396  23.836  0.00  0.00    +0.151 C 
BRANCH  18  19
ATOM     19  O   UNL     1      10.145  -2.031  23.590  0.00  0.00    -0.389 OA
ATOM     20  H   UNL     1      10.565  -2.791  23.145  0.00  0.00    +0.210 HD
ENDBRANCH  18  19
BRANCH  18  21
ATOM     21  C   UNL     1       7.862  -1.612  22.774  0.00  0.00    +0.107 C 
BRANCH  21  23
ATOM     22  C   UNL     1       8.700   0.741  22.179  0.00  0.00    +0.234 C 
ATOM     23  N   UNL     1       7.892  -0.091  22.918  0.00  0.00    -0.308 N 
ATOM     24  H   UNL     1       7.192   0.362  23.507  0.00  0.00    +0.149 HD
ATOM     25  O   UNL     1       9.591   0.233  21.481  0.00  0.00    -0.274 OA
BRANCH  22  26
ATOM     26  C   UNL     1       8.620   2.324  22.259  0.00  0.00    +0.167 C 
BRANCH  26  28
ATOM     27  C   UNL     1      10.821   3.139  23.222  0.00  0.00    +0.013 C 
ATOM     28  C   UNL     1       9.317   2.955  23.522  0.00  0.00    -0.011 C 
ATOM     29  C   UNL     1       8.766   4.365  23.871  0.00  0.00    +0.013 C 
ATOM     30  C   UNL     1       9.129   2.082  24.773  0.00  0.00    +0.013 C 
ENDBRANCH  26  28
BRANCH  26  31
ATOM     31  N   UNL     1       7.299   2.916  21.980  0.00  0.00    -0.269 N 
ATOM     32  H   UNL     1       7.154   3.527  21.193  0.00  0.00    +0.153 HD
ATOM     33  C   UNL     1       6.179   2.614  22.719  0.00  0.00    +0.401 C 
ATOM     34  O   UNL     1       6.157   1.897  23.712  0.00  0.00    -0.226 OA
BRANCH  33  35
ATOM     35  O   UNL     1       5.085   3.202  22.172  0.00  0.00    -0.454 OA
ATOM     36  C   UNL     1       3.945   3.348  23.038  0.00  0.00    +0.282 C 
ENDBRANCH  33  35
ENDBRANCH  26  31
ENDBRANCH  22  26
ENDBRANCH  21  23
BRANCH  21  37
ATOM     37  C   UNL     1       6.373  -2.076  22.751  0.00  0.00    +0.060 C 
BRANCH  37  38
ATOM     38  C   UNL     1       6.215  -3.582  22.548  0.00  0.00    -0.046 A 
ATOM     39  C   UNL     1       7.252  -4.375  22.028  0.00  0.00    +0.004 A 
ATOM     40  C   UNL     1       7.090  -5.759  21.877  0.00  0.00    +0.000 A 
ATOM     41  C   UNL     1       5.888  -6.369  22.235  0.00  0.00    +0.000 A 
ATOM     42  C   UNL     1       4.844  -5.595  22.720  0.00  0.00    +0.000 A 
ATOM     43  C   UNL     1       5.001  -4.210  22.865  0.00  0.00    +0.004 A 
ENDBRANCH  37  38
ENDBRANCH  21  37
ENDBRANCH  18  21
ENDBRANCH  17  18
ENDBRANCH   1  17
BRANCH   1  44
ATOM     44  C   UNL     1       6.952  -3.726  26.678  0.00  0.00    +0.140 C 
BRANCH  44  45
ATOM     45  C   UNL     1       5.635  -4.517  26.583  0.00  0.00    -0.032 A 
ATOM     46  C   UNL     1       5.752  -5.926  26.429  0.00  0.00    +0.005 A 
ATOM     47  C   UNL     1       4.667  -6.769  26.076  0.00  0.00    +0.010 A 
ATOM     48  C   UNL     1       3.389  -6.245  25.860  0.00  0.00    +0.000 A 
ATOM     49  C   UNL     1       3.250  -4.868  26.179  0.00  0.00    +0.010 A 
ATOM     50  C   UNL     1       4.336  -4.021  26.518  0.00  0.00    +0.005 A 
BRANCH  48  51
ATOM     51  C   UNL     1       2.275  -6.970  25.155  0.00  0.00    +0.071 A 
ATOM     52  N   UNL     1       1.539  -6.188  24.317  0.00  0.00    -0.255 NA
ATOM     53  C   UNL     1       0.826  -6.775  23.331  0.00  0.00    +0.111 A 
ATOM     54  C   UNL     1       0.781  -8.137  23.122  0.00  0.00    +0.020 A 
ATOM     55  C   UNL     1       1.409  -8.947  24.056  0.00  0.00    +0.004 A 
ATOM     56  C   UNL     1       2.140  -8.364  25.103  0.00  0.00    +0.028 A 
ENDBRANCH  48  51
ENDBRANCH  44  45
ENDBRANCH   1  44
TORSDOF 19
ENDMDL
MODEL 6
REMARK VINA RESULT:      -5.6      2.758      7.185
REMARK  Name = 
REMARK  27 active torsions:
REMARK  status: ('A' for Active; 'I' for Inactive)
REMARK    1  A    between atoms: C_1  and  C_2
REMARK    2  A    between atoms: C_2  and  C_3
REMARK    3  A    between atoms: C_2  and  C_4
REMARK    4  A    between atoms: C_2  and  C_5
REMARK    5  A    between atoms: C_5  and  C_7
REMARK    6  A    between atoms: C_5  and  N_50
REMARK    7  A    between atoms: N_9  and  C_10
REMARK    8  A    between atoms: C_10  and  C_11
REMARK    9  A    between atoms: C_10  and  C_18
REMARK   10  A    between atoms: C_11  and  C_12
REMARK   11  A    between atoms: C_18  and  C_20
REMARK   12  A    between atoms: C_18  and  O_49
REMARK   13  A    between atoms: C_20  and  N_21
REMARK   14  A    between atoms: N_21  and  C_22
REMARK   15  A    between atoms: N_21  and  N_35
REMARK   16  A    between atoms: C_22  and  C_23
REMARK   17  A    between atoms: C_26  and  C_29
REMARK   18  A    between atoms: C_36  and  C_38
REMARK   19  A    between atoms: C_38  and  C_40
REMARK   20  A    between atoms: C_38  and  N_44
REMARK   21  A    between atoms: C_40  and  C_41
REMARK   22  A    between atoms: C_40  and  C_42
REMARK   23  A    between atoms: C_40  and  C_43
REMARK   24  A    between atoms: C_45  and  O_47
REMARK   25  A    between atoms: O_47  and  C_48
REMARK   26  A    between atoms: C_51  and  O_53
REMARK   27  A    between atoms: O_53  and  C_54
REMARK                            x       y       z     vdW  Elec       q    Type
REMARK                         _______ _______ _______ _____ _____    ______ ____
ROOT
ATOM      1  N   UNL     1       5.828   1.683  23.424  0.00  0.00    -0.220 NA
ENDROOT
BRANCH   1   2
ATOM      2  N   UNL     1       5.179   2.950  23.114  0.00  0.00    -0.246 N 
ATOM      3  H   UNL     1       5.456   3.373  22.230  0.00  0.00    +0.169 HD
ATOM      4  C   UNL     1       3.889   3.309  23.538  0.00  0.00    +0.248 C 
ATOM      5  O   UNL     1       3.209   2.658  24.330  0.00  0.00    -0.272 OA
BRANCH   4   6
ATOM      6  C   UNL     1       3.340   4.665  22.918  0.00  0.00    +0.169 C 
BRANCH   6   7
ATOM      7  C   UNL     1       2.153   4.500  21.896  0.00  0.00    -0.011 C 
ATOM      8  C   UNL     1       0.771   4.477  22.602  0.00  0.00    +0.013 C 
ATOM      9  C   UNL     1       2.245   3.168  21.127  0.00  0.00    +0.013 C 
ATOM     10  C   UNL     1       2.148   5.668  20.893  0.00  0.00    +0.013 C 
ENDBRANCH   6   7
BRANCH   6  11
ATOM     11  N   UNL     1       4.473   5.354  22.278  0.00  0.00    -0.269 N 
ATOM     12  H   UNL     1       4.789   5.026  21.374  0.00  0.00    +0.153 HD
ATOM     13  C   UNL     1       5.089   6.461  22.779  0.00  0.00    +0.401 C 
ATOM     14  O   UNL     1       4.852   6.955  23.869  0.00  0.00    -0.226 OA
BRANCH  13  15
ATOM     15  O   UNL     1       5.961   6.956  21.865  0.00  0.00    -0.454 OA
ATOM     16  C   UNL     1       7.220   6.277  21.822  0.00  0.00    +0.282 C 
ENDBRANCH  13  15
ENDBRANCH   6  11
ENDBRANCH   4   6
ENDBRANCH   1   2
BRANCH   1  17
ATOM     17  C   UNL     1       6.730   1.229  22.336  0.00  0.00    +0.139 C 
BRANCH  17  18
ATOM     18  C   UNL     1       8.311   1.476  22.279  0.00  0.00    +0.151 C 
BRANCH  18  19
ATOM     19  O   UNL     1       8.673   1.360  20.878  0.00  0.00    -0.389 OA
ATOM     20  H   UNL     1       7.883   1.601  20.359  0.00  0.00    +0.210 HD
ENDBRANCH  18  19
BRANCH  18  21
ATOM     21  C   UNL     1       9.311   0.550  23.112  0.00  0.00    +0.107 C 
BRANCH  21  23
ATOM     22  C   UNL     1       8.704  -1.923  22.781  0.00  0.00    +0.234 C 
ATOM     23  N   UNL     1       8.718  -0.785  23.556  0.00  0.00    -0.308 N 
ATOM     24  H   UNL     1       8.418  -0.894  24.526  0.00  0.00    +0.149 HD
ATOM     25  O   UNL     1       9.023  -1.828  21.587  0.00  0.00    -0.274 OA
BRANCH  22  26
ATOM     26  C   UNL     1       8.197  -3.328  23.315  0.00  0.00    +0.167 C 
BRANCH  26  28
ATOM     27  C   UNL     1       6.844  -4.830  21.781  0.00  0.00    +0.013 C 
ATOM     28  C   UNL     1       6.744  -3.722  22.852  0.00  0.00    -0.011 C 
ATOM     29  C   UNL     1       5.884  -4.307  24.006  0.00  0.00    +0.013 C 
ATOM     30  C   UNL     1       5.976  -2.513  22.294  0.00  0.00    +0.013 C 
ENDBRANCH  26  28
BRANCH  26  31
ATOM     31  N   UNL     1       8.435  -3.598  24.744  0.00  0.00    -0.269 N 
ATOM     32  H   UNL     1       8.090  -2.978  25.459  0.00  0.00    +0.153 HD
ATOM     33  C   UNL     1       9.064  -4.737  25.189  0.00  0.00    +0.401 C 
ATOM     34  O   UNL     1       9.553  -5.603  24.475  0.00  0.00    -0.226 OA
BRANCH  33  35
ATOM     35  O   UNL     1       9.041  -4.784  26.546  0.00  0.00    -0.454 OA
ATOM     36  C   UNL     1       7.792  -5.171  27.146  0.00  0.00    +0.282 C 
ENDBRANCH  33  35
ENDBRANCH  26  31
ENDBRANCH  22  26
ENDBRANCH  21  23
BRANCH  21  37
ATOM     37  C   UNL     1       9.925   1.257  24.360  0.00  0.00    +0.060 C 
BRANCH  37  38
ATOM     38  C   UNL     1      10.099   2.763  24.175  0.00  0.00    -0.046 A 
ATOM     39  C   UNL     1       9.132   3.683  24.616  0.00  0.00    +0.004 A 
ATOM     40  C   UNL     1       9.327   5.061  24.458  0.00  0.00    +0.000 A 
ATOM     41  C   UNL     1      10.487   5.541  23.850  0.00  0.00    +0.000 A 
ATOM     42  C   UNL     1      11.436   4.645  23.382  0.00  0.00    +0.000 A 
ATOM     43  C   UNL     1      11.239   3.266  23.531  0.00  0.00    +0.004 A 
ENDBRANCH  37  38
ENDBRANCH  21  37
ENDBRANCH  18  21
ENDBRANCH  17  18
ENDBRANCH   1  17
BRANCH   1  44
ATOM     44  C   UNL     1       6.283   1.463  24.829  0.00  0.00    +0.140 C 
BRANCH  44  45
ATOM     45  C   UNL     1       5.764   0.417  25.832  0.00  0.00    -0.032 A 
ATOM     46  C   UNL     1       6.603  -0.708  26.065  0.00  0.00    +0.005 A 
ATOM     47  C   UNL     1       6.179  -1.874  26.753  0.00  0.00    +0.010 A 
ATOM     48  C   UNL     1       4.879  -1.980  27.256  0.00  0.00    +0.000 A 
ATOM     49  C   UNL     1       4.107  -0.790  27.164  0.00  0.00    +0.010 A 
ATOM     50  C   UNL     1       4.525   0.371  26.464  0.00  0.00    +0.005 A 
BRANCH  48  51
ATOM     51  C   UNL     1       4.226  -3.269  27.676  0.00  0.00    +0.071 A 
ATOM     52  N   UNL     1       3.484  -3.865  26.701  0.00  0.00    -0.255 NA
ATOM     53  C   UNL     1       3.221  -5.187  26.795  0.00  0.00    +0.111 A 
ATOM     54  C   UNL     1       3.648  -5.983  27.837  0.00  0.00    +0.020 A 
ATOM     55  C   UNL     1       4.278  -5.357  28.901  0.00  0.00    +0.004 A 
ATOM     56  C   UNL     1       4.546  -3.980  28.840  0.00  0.00    +0.028 A 
ENDBRANCH  48  51
ENDBRANCH  44  45
ENDBRANCH   1  44
TORSDOF 19
ENDMDL
MODEL 7
REMARK VINA RESULT:      -5.6      2.495      7.767
REMARK  Name = 
REMARK  27 active torsions:
REMARK  status: ('A' for Active; 'I' for Inactive)
REMARK    1  A    between atoms: C_1  and  C_2
REMARK    2  A    between atoms: C_2  and  C_3
REMARK    3  A    between atoms: C_2  and  C_4
REMARK    4  A    between atoms: C_2  and  C_5
REMARK    5  A    between atoms: C_5  and  C_7
REMARK    6  A    between atoms: C_5  and  N_50
REMARK    7  A    between atoms: N_9  and  C_10
REMARK    8  A    between atoms: C_10  and  C_11
REMARK    9  A    between atoms: C_10  and  C_18
REMARK   10  A    between atoms: C_11  and  C_12
REMARK   11  A    between atoms: C_18  and  C_20
REMARK   12  A    between atoms: C_18  and  O_49
REMARK   13  A    between atoms: C_20  and  N_21
REMARK   14  A    between atoms: N_21  and  C_22
REMARK   15  A    between atoms: N_21  and  N_35
REMARK   16  A    between atoms: C_22  and  C_23
REMARK   17  A    between atoms: C_26  and  C_29
REMARK   18  A    between atoms: C_36  and  C_38
REMARK   19  A    between atoms: C_38  and  C_40
REMARK   20  A    between atoms: C_38  and  N_44
REMARK   21  A    between atoms: C_40  and  C_41
REMARK   22  A    between atoms: C_40  and  C_42
REMARK   23  A    between atoms: C_40  and  C_43
REMARK   24  A    between atoms: C_45  and  O_47
REMARK   25  A    between atoms: O_47  and  C_48
REMARK   26  A    between atoms: C_51  and  O_53
REMARK   27  A    between atoms: O_53  and  C_54
REMARK                            x       y       z     vdW  Elec       q    Type
REMARK                         _______ _______ _______ _____ _____    ______ ____
ROOT
ATOM      1  N   UNL     1       7.346  -2.153  22.521  0.00  0.00    -0.220 NA
ENDROOT
BRANCH   1   2
ATOM      2  N   UNL     1       7.088  -3.418  23.197  0.00  0.00    -0.246 N 
ATOM      3  H   UNL     1       7.360  -3.448  24.177  0.00  0.00    +0.169 HD
ATOM      4  C   UNL     1       6.044  -4.298  22.869  0.00  0.00    +0.248 C 
ATOM      5  O   UNL     1       5.308  -4.173  21.890  0.00  0.00    -0.272 OA
BRANCH   4   6
ATOM      6  C   UNL     1       5.865  -5.519  23.869  0.00  0.00    +0.169 C 
BRANCH   6   7
ATOM      7  C   UNL     1       4.384  -5.798  24.326  0.00  0.00    -0.011 C 
ATOM      8  C   UNL     1       4.316  -6.814  25.498  0.00  0.00    +0.013 C 
ATOM      9  C   UNL     1       3.546  -6.420  23.193  0.00  0.00    +0.013 C 
ATOM     10  C   UNL     1       3.717  -4.493  24.797  0.00  0.00    +0.013 C 
ENDBRANCH   6   7
BRANCH   6  11
ATOM     11  N   UNL     1       6.721  -5.266  25.040  0.00  0.00    -0.269 N 
ATOM     12  H   UNL     1       6.279  -5.017  25.916  0.00  0.00    +0.153 HD
ATOM     13  C   UNL     1       8.076  -5.413  25.055  0.00  0.00    +0.401 C 
ATOM     14  O   UNL     1       8.759  -5.668  24.077  0.00  0.00    -0.226 OA
BRANCH  13  15
ATOM     15  O   UNL     1       8.538  -5.285  26.325  0.00  0.00    -0.454 OA
ATOM     16  C   UNL     1       7.520  -5.309  27.329  0.00  0.00    +0.282 C 
ENDBRANCH  13  15
ENDBRANCH   6  11
ENDBRANCH   4   6
ENDBRANCH   1   2
BRANCH   1  17
ATOM     17  C   UNL     1       6.504  -1.049  23.049  0.00  0.00    +0.139 C 
BRANCH  17  18
ATOM     18  C   UNL     1       6.633  -0.401  24.506  0.00  0.00    +0.151 C 
BRANCH  18  19
ATOM     19  O   UNL     1       7.240  -1.425  25.336  0.00  0.00    -0.389 OA
ATOM     20  H   UNL     1       8.118  -1.092  25.602  0.00  0.00    +0.210 HD
ENDBRANCH  18  19
BRANCH  18  21
ATOM     21  C   UNL     1       5.341   0.138  25.276  0.00  0.00    +0.107 C 
BRANCH  21  23
ATOM     22  C   UNL     1       5.940   2.627  25.070  0.00  0.00    +0.234 C 
ATOM     23  N   UNL     1       5.016   1.608  25.017  0.00  0.00    -0.308 N 
ATOM     24  H   UNL     1       4.091   1.854  24.663  0.00  0.00    +0.149 HD
ATOM     25  O   UNL     1       7.064   2.381  25.531  0.00  0.00    -0.274 OA
BRANCH  22  26
ATOM     26  C   UNL     1       5.602   4.125  24.672  0.00  0.00    +0.167 C 
BRANCH  26  28
ATOM     27  C   UNL     1       6.183   5.825  22.881  0.00  0.00    +0.013 C 
ATOM     28  C   UNL     1       5.609   4.413  23.124  0.00  0.00    -0.011 C 
ATOM     29  C   UNL     1       6.517   3.430  22.334  0.00  0.00    +0.013 C 
ATOM     30  C   UNL     1       4.200   4.301  22.518  0.00  0.00    +0.013 C 
ENDBRANCH  26  28
BRANCH  26  31
ATOM     31  N   UNL     1       6.293   5.169  25.450  0.00  0.00    -0.269 N 
ATOM     32  H   UNL     1       7.141   5.597  25.116  0.00  0.00    +0.153 HD
ATOM     33  C   UNL     1       5.789   5.674  26.626  0.00  0.00    +0.401 C 
ATOM     34  O   UNL     1       4.776   5.280  27.190  0.00  0.00    -0.226 OA
BRANCH  33  35
ATOM     35  O   UNL     1       6.562   6.700  27.063  0.00  0.00    -0.454 OA
ATOM     36  C   UNL     1       7.967   6.421  27.201  0.00  0.00    +0.282 C 
ENDBRANCH  33  35
ENDBRANCH  26  31
ENDBRANCH  22  26
ENDBRANCH  21  23
BRANCH  21  37
ATOM     37  C   UNL     1       5.391  -0.091  26.818  0.00  0.00    +0.060 C 
BRANCH  37  38
ATOM     38  C   UNL     1       4.433  -1.181  27.296  0.00  0.00    -0.046 A 
ATOM     39  C   UNL     1       4.895  -2.417  27.780  0.00  0.00    +0.004 A 
ATOM     40  C   UNL     1       3.997  -3.390  28.237  0.00  0.00    +0.000 A 
ATOM     41  C   UNL     1       2.624  -3.147  28.211  0.00  0.00    +0.000 A 
ATOM     42  C   UNL     1       2.151  -1.944  27.708  0.00  0.00    +0.000 A 
ATOM     43  C   UNL     1       3.047  -0.973  27.242  0.00  0.00    +0.004 A 
ENDBRANCH  37  38
ENDBRANCH  21  37
ENDBRANCH  18  21
ENDBRANCH  17  18
ENDBRANCH   1  17
BRANCH   1  44
ATOM     44  C   UNL     1       8.761  -1.830  22.171  0.00  0.00    +0.140 C 
BRANCH  44  45
ATOM     45  C   UNL     1       9.485  -0.481  22.332  0.00  0.00    -0.032 A 
ATOM     46  C   UNL     1      10.189  -0.282  23.552  0.00  0.00    +0.005 A 
ATOM     47  C   UNL     1      10.692   0.977  23.969  0.00  0.00    +0.010 A 
ATOM     48  C   UNL     1      10.524   2.119  23.180  0.00  0.00    +0.000 A 
ATOM     49  C   UNL     1       9.970   1.874  21.894  0.00  0.00    +0.010 A 
ATOM     50  C   UNL     1       9.453   0.620  21.481  0.00  0.00    +0.005 A 
BRANCH  48  51
ATOM     51  C   UNL     1      10.695   3.531  23.669  0.00  0.00    +0.071 A 
ATOM     52  N   UNL     1      11.918   4.070  23.407  0.00  0.00    -0.255 NA
ATOM     53  C   UNL     1      12.051   5.414  23.393  0.00  0.00    +0.111 A 
ATOM     54  C   UNL     1      11.018   6.291  23.646  0.00  0.00    +0.020 A 
ATOM     55  C   UNL     1       9.808   5.751  24.055  0.00  0.00    +0.004 A 
ATOM     56  C   UNL     1       9.648   4.357  24.098  0.00  0.00    +0.028 A 
ENDBRANCH  48  51
ENDBRANCH  44  45
ENDBRANCH   1  44
TORSDOF 19
ENDMDL
MODEL 8
REMARK VINA RESULT:      -5.5      2.403      8.274
REMARK  Name = 
REMARK  27 active torsions:
REMARK  status: ('A' for Active; 'I' for Inactive)
REMARK    1  A    between atoms: C_1  and  C_2
REMARK    2  A    between atoms: C_2  and  C_3
REMARK    3  A    between atoms: C_2  and  C_4
REMARK    4  A    between atoms: C_2  and  C_5
REMARK    5  A    between atoms: C_5  and  C_7
REMARK    6  A    between atoms: C_5  and  N_50
REMARK    7  A    between atoms: N_9  and  C_10
REMARK    8  A    between atoms: C_10  and  C_11
REMARK    9  A    between atoms: C_10  and  C_18
REMARK   10  A    between atoms: C_11  and  C_12
REMARK   11  A    between atoms: C_18  and  C_20
REMARK   12  A    between atoms: C_18  and  O_49
REMARK   13  A    between atoms: C_20  and  N_21
REMARK   14  A    between atoms: N_21  and  C_22
REMARK   15  A    between atoms: N_21  and  N_35
REMARK   16  A    between atoms: C_22  and  C_23
REMARK   17  A    between atoms: C_26  and  C_29
REMARK   18  A    between atoms: C_36  and  C_38
REMARK   19  A    between atoms: C_38  and  C_40
REMARK   20  A    between atoms: C_38  and  N_44
REMARK   21  A    between atoms: C_40  and  C_41
REMARK   22  A    between atoms: C_40  and  C_42
REMARK   23  A    between atoms: C_40  and  C_43
REMARK   24  A    between atoms: C_45  and  O_47
REMARK   25  A    between atoms: O_47  and  C_48
REMARK   26  A    between atoms: C_51  and  O_53
REMARK   27  A    between atoms: O_53  and  C_54
REMARK                            x       y       z     vdW  Elec       q    Type
REMARK                         _______ _______ _______ _____ _____    ______ ____
ROOT
ATOM      1  N   UNL     1       7.293  -1.834  23.557  0.00  0.00    -0.220 NA
ENDROOT
BRANCH   1   2
ATOM      2  N   UNL     1       6.926  -3.104  24.168  0.00  0.00    -0.246 N 
ATOM      3  H   UNL     1       6.431  -3.030  25.055  0.00  0.00    +0.169 HD
ATOM      4  C   UNL     1       6.642  -4.280  23.454  0.00  0.00    +0.248 C 
ATOM      5  O   UNL     1       6.800  -4.414  22.241  0.00  0.00    -0.272 OA
BRANCH   4   6
ATOM      6  C   UNL     1       6.092  -5.478  24.340  0.00  0.00    +0.169 C 
BRANCH   6   7
ATOM      7  C   UNL     1       4.529  -5.669  24.311  0.00  0.00    -0.011 C 
ATOM      8  C   UNL     1       3.824  -4.894  25.457  0.00  0.00    +0.013 C 
ATOM      9  C   UNL     1       4.132  -7.145  24.507  0.00  0.00    +0.013 C 
ATOM     10  C   UNL     1       3.954  -5.160  22.977  0.00  0.00    +0.013 C 
ENDBRANCH   6   7
BRANCH   6  11
ATOM     11  N   UNL     1       6.553  -5.261  25.722  0.00  0.00    -0.269 N 
ATOM     12  H   UNL     1       5.865  -5.039  26.431  0.00  0.00    +0.153 HD
ATOM     13  C   UNL     1       7.841  -5.410  26.140  0.00  0.00    +0.401 C 
ATOM     14  O   UNL     1       8.789  -5.637  25.407  0.00  0.00    -0.226 OA
BRANCH  13  15
ATOM     15  O   UNL     1       7.898  -5.321  27.493  0.00  0.00    -0.454 OA
ATOM     16  C   UNL     1       6.667  -5.623  28.157  0.00  0.00    +0.282 C 
ENDBRANCH  13  15
ENDBRANCH   6  11
ENDBRANCH   4   6
ENDBRANCH   1   2
BRANCH   1  17
ATOM     17  C   UNL     1       6.644  -0.677  24.224  0.00  0.00    +0.139 C 
BRANCH  17  18
ATOM     18  C   UNL     1       5.992  -0.696  25.685  0.00  0.00    +0.151 C 
BRANCH  18  19
ATOM     19  O   UNL     1       4.687  -1.310  25.522  0.00  0.00    -0.389 OA
ATOM     20  H   UNL     1       4.430  -1.187  24.589  0.00  0.00    +0.210 HD
ENDBRANCH  18  19
BRANCH  18  21
ATOM     21  C   UNL     1       5.786   0.659  26.505  0.00  0.00    +0.107 C 
BRANCH  21  23
ATOM     22  C   UNL     1       5.213   2.705  25.063  0.00  0.00    +0.234 C 
ATOM     23  N   UNL     1       6.134   1.928  25.728  0.00  0.00    -0.308 N 
ATOM     24  H   UNL     1       7.080   2.305  25.796  0.00  0.00    +0.149 HD
ATOM     25  O   UNL     1       4.062   2.267  24.922  0.00  0.00    -0.274 OA
BRANCH  22  26
ATOM     26  C   UNL     1       5.582   4.085  24.372  0.00  0.00    +0.167 C 
BRANCH  26  28
ATOM     27  C   UNL     1       4.454   4.000  22.101  0.00  0.00    +0.013 C 
ATOM     28  C   UNL     1       5.822   4.000  22.818  0.00  0.00    -0.011 C 
ATOM     29  C   UNL     1       6.606   5.222  22.263  0.00  0.00    +0.013 C 
ATOM     30  C   UNL     1       6.623   2.745  22.433  0.00  0.00    +0.013 C 
ENDBRANCH  26  28
BRANCH  26  31
ATOM     31  N   UNL     1       6.598   4.900  25.063  0.00  0.00    -0.269 N 
ATOM     32  H   UNL     1       7.582   4.746  24.916  0.00  0.00    +0.153 HD
ATOM     33  C   UNL     1       6.271   5.957  25.879  0.00  0.00    +0.401 C 
ATOM     34  O   UNL     1       5.134   6.295  26.182  0.00  0.00    -0.226 OA
BRANCH  33  35
ATOM     35  O   UNL     1       7.396   6.599  26.285  0.00  0.00    -0.454 OA
ATOM     36  C   UNL     1       7.697   6.524  27.690  0.00  0.00    +0.282 C 
ENDBRANCH  33  35
ENDBRANCH  26  31
ENDBRANCH  22  26
ENDBRANCH  21  23
BRANCH  21  37
ATOM     37  C   UNL     1       6.548   0.690  27.866  0.00  0.00    +0.060 C 
BRANCH  37  38
ATOM     38  C   UNL     1       6.075   1.805  28.796  0.00  0.00    -0.046 A 
ATOM     39  C   UNL     1       6.888   2.908  29.109  0.00  0.00    +0.004 A 
ATOM     40  C   UNL     1       6.420   3.931  29.944  0.00  0.00    +0.000 A 
ATOM     41  C   UNL     1       5.136   3.865  30.485  0.00  0.00    +0.000 A 
ATOM     42  C   UNL     1       4.333   2.768  30.210  0.00  0.00    +0.000 A 
ATOM     43  C   UNL     1       4.802   1.739  29.382  0.00  0.00    +0.004 A 
ENDBRANCH  37  38
ENDBRANCH  21  37
ENDBRANCH  18  21
ENDBRANCH  17  18
ENDBRANCH   1  17
BRANCH   1  44
ATOM     44  C   UNL     1       8.707  -1.663  23.109  0.00  0.00    +0.140 C 
BRANCH  44  45
ATOM     45  C   UNL     1       9.498  -0.350  22.973  0.00  0.00    -0.032 A 
ATOM     46  C   UNL     1      10.138   0.129  24.150  0.00  0.00    +0.005 A 
ATOM     47  C   UNL     1      10.688   1.431  24.268  0.00  0.00    +0.010 A 
ATOM     48  C   UNL     1      10.635   2.336  23.204  0.00  0.00    +0.000 A 
ATOM     49  C   UNL     1      10.146   1.790  21.986  0.00  0.00    +0.010 A 
ATOM     50  C   UNL     1       9.582   0.494  21.870  0.00  0.00    +0.005 A 
BRANCH  48  51
ATOM     51  C   UNL     1      10.859   3.818  23.327  0.00  0.00    +0.071 A 
ATOM     52  N   UNL     1       9.768   4.517  23.749  0.00  0.00    -0.255 NA
ATOM     53  C   UNL     1       9.947   5.735  24.305  0.00  0.00    +0.111 A 
ATOM     54  C   UNL     1      11.178   6.334  24.463  0.00  0.00    +0.020 A 
ATOM     55  C   UNL     1      12.276   5.694  23.907  0.00  0.00    +0.004 A 
ATOM     56  C   UNL     1      12.116   4.436  23.305  0.00  0.00    +0.028 A 
ENDBRANCH  48  51
ENDBRANCH  44  45
ENDBRANCH   1  44
TORSDOF 19
ENDMDL
MODEL 9
REMARK VINA RESULT:      -5.5      1.830      2.871
REMARK  Name = 
REMARK  27 active torsions:
REMARK  status: ('A' for Active; 'I' for Inactive)
REMARK    1  A    between atoms: C_1  and  C_2
REMARK    2  A    between atoms: C_2  and  C_3
REMARK    3  A    between atoms: C_2  and  C_4
REMARK    4  A    between atoms: C_2  and  C_5
REMARK    5  A    between atoms: C_5  and  C_7
REMARK    6  A    between atoms: C_5  and  N_50
REMARK    7  A    between atoms: N_9  and  C_10
REMARK    8  A    between atoms: C_10  and  C_11
REMARK    9  A    between atoms: C_10  and  C_18
REMARK   10  A    between atoms: C_11  and  C_12
REMARK   11  A    between atoms: C_18  and  C_20
REMARK   12  A    between atoms: C_18  and  O_49
REMARK   13  A    between atoms: C_20  and  N_21
REMARK   14  A    between atoms: N_21  and  C_22
REMARK   15  A    between atoms: N_21  and  N_35
REMARK   16  A    between atoms: C_22  and  C_23
REMARK   17  A    between atoms: C_26  and  C_29
REMARK   18  A    between atoms: C_36  and  C_38
REMARK   19  A    between atoms: C_38  and  C_40
REMARK   20  A    between atoms: C_38  and  N_44
REMARK   21  A    between atoms: C_40  and  C_41
REMARK   22  A    between atoms: C_40  and  C_42
REMARK   23  A    between atoms: C_40  and  C_43
REMARK   24  A    between atoms: C_45  and  O_47
REMARK   25  A    between atoms: O_47  and  C_48
REMARK   26  A    between atoms: C_51  and  O_53
REMARK   27  A    between atoms: O_53  and  C_54
REMARK                            x       y       z     vdW  Elec       q    Type
REMARK                         _______ _______ _______ _____ _____    ______ ____
ROOT
ATOM      1  N   UNL     1       8.884  -2.203  23.559  0.00  0.00    -0.220 NA
ENDROOT
BRANCH   1   2
ATOM      2  N   UNL     1       8.249  -0.900  23.713  0.00  0.00    -0.246 N 
ATOM      3  H   UNL     1       7.239  -0.923  23.836  0.00  0.00    +0.169 HD
ATOM      4  C   UNL     1       8.867   0.225  24.283  0.00  0.00    +0.248 C 
ATOM      5  O   UNL     1      10.056   0.283  24.597  0.00  0.00    -0.272 OA
BRANCH   4   6
ATOM      6  C   UNL     1       7.907   1.471  24.501  0.00  0.00    +0.169 C 
BRANCH   6   7
ATOM      7  C   UNL     1       8.205   2.715  23.582  0.00  0.00    -0.011 C 
ATOM      8  C   UNL     1       9.303   3.635  24.182  0.00  0.00    +0.013 C 
ATOM      9  C   UNL     1       6.963   3.610  23.417  0.00  0.00    +0.013 C 
ATOM     10  C   UNL     1       8.688   2.250  22.197  0.00  0.00    +0.013 C 
ENDBRANCH   6   7
BRANCH   6  11
ATOM     11  N   UNL     1       7.990   1.855  25.921  0.00  0.00    -0.269 N 
ATOM     12  H   UNL     1       8.856   2.249  26.265  0.00  0.00    +0.153 HD
ATOM     13  C   UNL     1       6.952   1.789  26.802  0.00  0.00    +0.401 C 
ATOM     14  O   UNL     1       5.860   1.305  26.556  0.00  0.00    -0.226 OA
BRANCH  13  15
ATOM     15  O   UNL     1       7.302   2.386  27.969  0.00  0.00    -0.454 OA
ATOM     16  C   UNL     1       7.013   1.613  29.138  0.00  0.00    +0.282 C 
ENDBRANCH  13  15
ENDBRANCH   6  11
ENDBRANCH   4   6
ENDBRANCH   1   2
BRANCH   1  17
ATOM     17  C   UNL     1       9.144  -2.862  24.864  0.00  0.00    +0.139 C 
BRANCH  17  18
ATOM     18  C   UNL     1       8.093  -2.986  26.065  0.00  0.00    +0.151 C 
BRANCH  18  19
ATOM     19  O   UNL     1       8.768  -3.752  27.097  0.00  0.00    -0.389 OA
ATOM     20  H   UNL     1       9.205  -4.503  26.653  0.00  0.00    +0.210 HD
ENDBRANCH  18  19
BRANCH  18  21
ATOM     21  C   UNL     1       6.661  -3.655  25.830  0.00  0.00    +0.107 C 
BRANCH  21  23
ATOM     22  C   UNL     1       4.665  -2.132  26.366  0.00  0.00    +0.234 C 
ATOM     23  N   UNL     1       5.554  -3.115  26.734  0.00  0.00    -0.308 N 
ATOM     24  H   UNL     1       5.369  -3.583  27.622  0.00  0.00    +0.149 HD
ATOM     25  O   UNL     1       4.874  -1.510  25.314  0.00  0.00    -0.274 OA
BRANCH  22  26
ATOM     26  C   UNL     1       3.446  -1.680  27.276  0.00  0.00    +0.167 C 
BRANCH  26  28
ATOM     27  C   UNL     1       2.112  -3.487  28.455  0.00  0.00    +0.013 C 
ATOM     28  C   UNL     1       2.178  -2.609  27.187  0.00  0.00    -0.011 C 
ATOM     29  C   UNL     1       0.848  -1.808  27.140  0.00  0.00    +0.013 C 
ATOM     30  C   UNL     1       2.208  -3.495  25.930  0.00  0.00    +0.013 C 
ENDBRANCH  26  28
BRANCH  26  31
ATOM     31  N   UNL     1       3.108  -0.246  27.233  0.00  0.00    -0.269 N 
ATOM     32  H   UNL     1       2.744   0.182  26.397  0.00  0.00    +0.153 HD
ATOM     33  C   UNL     1       3.191   0.569  28.338  0.00  0.00    +0.401 C 
ATOM     34  O   UNL     1       3.613   0.233  29.437  0.00  0.00    -0.226 OA
BRANCH  33  35
ATOM     35  O   UNL     1       2.709   1.804  28.045  0.00  0.00    -0.454 OA
ATOM     36  C   UNL     1       2.499   2.088  26.650  0.00  0.00    +0.282 C 
ENDBRANCH  33  35
ENDBRANCH  26  31
ENDBRANCH  22  26
ENDBRANCH  21  23
BRANCH  21  37
ATOM     37  C   UNL     1       6.672  -5.211  25.939  0.00  0.00    +0.060 C 
BRANCH  37  38
ATOM     38  C   UNL     1       5.853  -5.738  27.116  0.00  0.00    -0.046 A 
ATOM     39  C   UNL     1       6.369  -5.777  28.423  0.00  0.00    +0.004 A 
ATOM     40  C   UNL     1       5.588  -6.240  29.490  0.00  0.00    +0.000 A 
ATOM     41  C   UNL     1       4.283  -6.679  29.266  0.00  0.00    +0.000 A 
ATOM     42  C   UNL     1       3.770  -6.676  27.978  0.00  0.00    +0.000 A 
ATOM     43  C   UNL     1       4.552  -6.221  26.908  0.00  0.00    +0.004 A 
ENDBRANCH  37  38
ENDBRANCH  21  37
ENDBRANCH  18  21
ENDBRANCH  17  18
ENDBRANCH   1  17
BRANCH   1  44
ATOM     44  C   UNL     1       8.425  -3.069  22.432  0.00  0.00    +0.140 C 
BRANCH  44  45
ATOM     45  C   UNL     1       7.138  -3.910  22.357  0.00  0.00    -0.032 A 
ATOM     46  C   UNL     1       5.911  -3.205  22.503  0.00  0.00    +0.005 A 
ATOM     47  C   UNL     1       4.661  -3.842  22.711  0.00  0.00    +0.010 A 
ATOM     48  C   UNL     1       4.564  -5.235  22.779  0.00  0.00    +0.000 A 
ATOM     49  C   UNL     1       5.764  -5.929  22.466  0.00  0.00    +0.010 A 
ATOM     50  C   UNL     1       7.018  -5.294  22.273  0.00  0.00    +0.005 A 
BRANCH  48  51
ATOM     51  C   UNL     1       3.385  -5.986  23.334  0.00  0.00    +0.071 A 
ATOM     52  N   UNL     1       2.178  -5.560  22.866  0.00  0.00    -0.255 NA
ATOM     53  C   UNL     1       1.119  -6.394  22.933  0.00  0.00    +0.111 A 
ATOM     54  C   UNL     1       1.174  -7.664  23.468  0.00  0.00    +0.020 A 
ATOM     55  C   UNL     1       2.359  -8.050  24.076  0.00  0.00    +0.004 A 
ATOM     56  C   UNL     1       3.471  -7.193  24.039  0.00  0.00    +0.028 A 
ENDBRANCH  48  51
ENDBRANCH  44  45
ENDBRANCH   1  44
TORSDOF 19
ENDMDL
