MODEL 1
REMARK VINA RESULT:      -6.7      0.000      0.000
REMARK  Name = 
REMARK  5 active torsions:
REMARK  status: ('A' for Active; 'I' for Inactive)
REMARK    1  A    between atoms: C_1  and  C_2
REMARK    2  A    between atoms: N_4  and  C_10
REMARK    3  A    between atoms: C_14  and  O_20
REMARK    4  A    between atoms: C_15  and  C_18
REMARK    5  A    between atoms: C_18  and  O_19
REMARK                            x       y       z     vdW  Elec       q    Type
REMARK                         _______ _______ _______ _____ _____    ______ ____
ROOT
ATOM      1  C   UNL     1       9.227  -2.885  24.067  0.00  0.00    +0.260 C 
ATOM      2  O   UNL     1       9.872  -1.680  24.545  0.00  0.00    -0.345 OA
ATOM      3  C   UNL     1       9.630  -0.623  23.580  0.00  0.00    +0.178 C 
ATOM      4  C   UNL     1       8.914  -1.259  22.389  0.00  0.00    +0.184 C 
ATOM      5  C   UNL     1       8.212  -2.449  23.015  0.00  0.00    +0.246 C 
ATOM      6  F   UNL     1       7.970  -3.411  22.097  0.00  0.00    -0.238 F 
ENDROOT
BRANCH   1  15
ATOM      7  C   UNL     1       5.611  -3.701  27.408  0.00  0.00    +0.051 C 
ATOM      8  C   UNL     1       6.903  -4.039  26.737  0.00  0.00    +0.030 A 
ATOM      9  C   UNL     1       7.583  -5.287  27.154  0.00  0.00    +0.257 A 
ATOM     10  O   UNL     1       7.115  -6.022  28.017  0.00  0.00    -0.267 OA
ATOM     11  N   UNL     1       8.758  -5.564  26.520  0.00  0.00    -0.275 N 
ATOM     12  H   UNL     1       9.235  -6.410  26.787  0.00  0.00    +0.173 HD
ATOM     13  C   UNL     1       9.334  -4.823  25.525  0.00  0.00    +0.331 A 
ATOM     14  O   UNL     1      10.383  -5.197  25.009  0.00  0.00    -0.246 OA
ATOM     15  N   UNL     1       8.658  -3.659  25.171  0.00  0.00    -0.271 N 
ATOM     16  C   UNL     1       7.478  -3.298  25.782  0.00  0.00    +0.102 A 
ENDBRANCH   1  15
BRANCH   4  17
ATOM     17  O   UNL     1       9.890  -1.649  21.407  0.00  0.00    -0.386 OA
ATOM     18  H   UNL     1       9.742  -1.160  20.580  0.00  0.00    +0.210 HD
ENDBRANCH   4  17
BRANCH   3  19
ATOM     19  C   UNL     1       8.824   0.497  24.239  0.00  0.00    +0.190 C 
BRANCH  19  20
ATOM     20  O   UNL     1       9.594   1.180  25.223  0.00  0.00    -0.392 OA
ATOM     21  H   UNL     1      10.410   1.479  24.786  0.00  0.00    +0.210 HD
ENDBRANCH  19  20
ENDBRANCH   3  19
TORSDOF 4
ENDMDL
MODEL 2
REMARK VINA RESULT:      -6.1      2.167      3.082
REMARK  Name = 
REMARK  5 active torsions:
REMARK  status: ('A' for Active; 'I' for Inactive)
REMARK    1  A    between atoms: C_1  and  C_2
REMARK    2  A    between atoms: N_4  and  C_10
REMARK    3  A    between atoms: C_14  and  O_20
REMARK    4  A    between atoms: C_15  and  C_18
REMARK    5  A    between atoms: C_18  and  O_19
REMARK                            x       y       z     vdW  Elec       q    Type
REMARK                         _______ _______ _______ _____ _____    ______ ____
ROOT
ATOM      1  C   UNL     1       9.823   0.192  23.550  0.00  0.00    +0.260 C 
ATOM      2  O   UNL     1       9.988   1.233  24.543  0.00  0.00    -0.345 OA
ATOM      3  C   UNL     1       9.576   2.493  23.951  0.00  0.00    +0.178 C 
ATOM      4  C   UNL     1       9.273   2.219  22.478  0.00  0.00    +0.184 C 
ATOM      5  C   UNL     1       8.888   0.752  22.482  0.00  0.00    +0.246 C 
ATOM      6  F   UNL     1       9.092   0.192  21.268  0.00  0.00    -0.238 F 
ENDROOT
BRANCH   1  15
ATOM      7  C   UNL     1       6.856  -2.289  26.703  0.00  0.00    +0.051 C 
ATOM      8  C   UNL     1       7.916  -2.218  25.653  0.00  0.00    +0.030 A 
ATOM      9  C   UNL     1       8.452  -3.497  25.135  0.00  0.00    +0.257 A 
ATOM     10  O   UNL     1       8.050  -4.580  25.545  0.00  0.00    -0.267 OA
ATOM     11  N   UNL     1       9.417  -3.393  24.176  0.00  0.00    -0.275 N 
ATOM     12  H   UNL     1       9.792  -4.253  23.809  0.00  0.00    +0.173 HD
ATOM     13  C   UNL     1       9.898  -2.232  23.636  0.00  0.00    +0.331 A 
ATOM     14  O   UNL     1      10.748  -2.273  22.752  0.00  0.00    -0.246 OA
ATOM     15  N   UNL     1       9.365  -1.057  24.157  0.00  0.00    -0.271 N 
ATOM     16  C   UNL     1       8.404  -1.079  25.144  0.00  0.00    +0.102 A 
ENDBRANCH   1  15
BRANCH   4  17
ATOM     17  O   UNL     1      10.455   2.477  21.699  0.00  0.00    -0.386 OA
ATOM     18  H   UNL     1      10.493   1.867  20.943  0.00  0.00    +0.210 HD
ENDBRANCH   4  17
BRANCH   3  19
ATOM     19  C   UNL     1       8.376   3.051  24.718  0.00  0.00    +0.190 C 
BRANCH  19  20
ATOM     20  O   UNL     1       8.145   2.322  25.920  0.00  0.00    -0.392 OA
ATOM     21  H   UNL     1       8.757   2.677  26.587  0.00  0.00    +0.210 HD
ENDBRANCH  19  20
ENDBRANCH   3  19
TORSDOF 4
ENDMDL
MODEL 3
REMARK VINA RESULT:      -6.0      3.302      4.108
REMARK  Name = 
REMARK  5 active torsions:
REMARK  status: ('A' for Active; 'I' for Inactive)
REMARK    1  A    between atoms: C_1  and  C_2
REMARK    2  A    between atoms: N_4  and  C_10
REMARK    3  A    between atoms: C_14  and  O_20
REMARK    4  A    between atoms: C_15  and  C_18
REMARK    5  A    between atoms: C_18  and  O_19
REMARK                            x       y       z     vdW  Elec       q    Type
REMARK                         _______ _______ _______ _____ _____    ______ ____
ROOT
ATOM      1  C   UNL     1       7.954  -1.377  24.050  0.00  0.00    +0.260 C 
ATOM      2  O   UNL     1       7.705  -0.099  23.419  0.00  0.00    -0.345 OA
ATOM      3  C   UNL     1       8.981   0.566  23.222  0.00  0.00    +0.178 C 
ATOM      4  C   UNL     1      10.045  -0.301  23.893  0.00  0.00    +0.184 C 
ATOM      5  C   UNL     1       9.433  -1.687  23.841  0.00  0.00    +0.246 C 
ATOM      6  F   UNL     1       9.939  -2.481  24.810  0.00  0.00    -0.238 F 
ENDROOT
BRANCH   1  15
ATOM      7  C   UNL     1       7.118  -5.591  21.511  0.00  0.00    +0.051 C 
ATOM      8  C   UNL     1       6.680  -4.435  22.351  0.00  0.00    +0.030 A 
ATOM      9  C   UNL     1       5.262  -4.399  22.775  0.00  0.00    +0.257 A 
ATOM     10  O   UNL     1       4.467  -5.275  22.455  0.00  0.00    -0.267 OA
ATOM     11  N   UNL     1       4.898  -3.330  23.542  0.00  0.00    -0.275 N 
ATOM     12  H   UNL     1       3.937  -3.289  23.843  0.00  0.00    +0.173 HD
ATOM     13  C   UNL     1       5.722  -2.328  23.975  0.00  0.00    +0.331 A 
ATOM     14  O   UNL     1       5.278  -1.435  24.690  0.00  0.00    -0.246 OA
ATOM     15  N   UNL     1       7.044  -2.407  23.548  0.00  0.00    -0.271 N 
ATOM     16  C   UNL     1       7.483  -3.442  22.752  0.00  0.00    +0.102 A 
ENDBRANCH   1  15
BRANCH   4  17
ATOM     17  O   UNL     1      10.247   0.162  25.240  0.00  0.00    -0.386 OA
ATOM     18  H   UNL     1       9.570   0.820  25.470  0.00  0.00    +0.210 HD
ENDBRANCH   4  17
BRANCH   3  19
ATOM     19  C   UNL     1       9.226   0.769  21.726  0.00  0.00    +0.190 C 
BRANCH  19  20
ATOM     20  O   UNL     1       9.940   1.977  21.477  0.00  0.00    -0.392 OA
ATOM     21  H   UNL     1       9.392   2.703  21.819  0.00  0.00    +0.210 HD
ENDBRANCH  19  20
ENDBRANCH   3  19
TORSDOF 4
ENDMDL
MODEL 4
REMARK VINA RESULT:      -5.9      3.180      3.723
REMARK  Name = 
REMARK  5 active torsions:
REMARK  status: ('A' for Active; 'I' for Inactive)
REMARK    1  A    between atoms: C_1  and  C_2
REMARK    2  A    between atoms: N_4  and  C_10
REMARK    3  A    between atoms: C_14  and  O_20
REMARK    4  A    between atoms: C_15  and  C_18
REMARK    5  A    between atoms: C_18  and  O_19
REMARK                            x       y       z     vdW  Elec       q    Type
REMARK                         _______ _______ _______ _____ _____    ______ ____
ROOT
ATOM      1  C   UNL     1       6.717  -2.908  22.990  0.00  0.00    +0.260 C 
ATOM      2  O   UNL     1       8.066  -3.073  22.493  0.00  0.00    -0.345 OA
ATOM      3  C   UNL     1       8.853  -1.933  22.929  0.00  0.00    +0.178 C 
ATOM      4  C   UNL     1       7.892  -0.961  23.612  0.00  0.00    +0.184 C 
ATOM      5  C   UNL     1       6.788  -1.873  24.109  0.00  0.00    +0.246 C 
ATOM      6  F   UNL     1       5.628  -1.196  24.264  0.00  0.00    -0.238 F 
ENDROOT
BRANCH   1  15
ATOM      7  C   UNL     1       5.389  -6.185  26.511  0.00  0.00    +0.051 C 
ATOM      8  C   UNL     1       5.486  -5.722  25.093  0.00  0.00    +0.030 A 
ATOM      9  C   UNL     1       4.862  -6.572  24.054  0.00  0.00    +0.257 A 
ATOM     10  O   UNL     1       4.287  -7.619  24.333  0.00  0.00    -0.267 OA
ATOM     11  N   UNL     1       4.970  -6.119  22.772  0.00  0.00    -0.275 N 
ATOM     12  H   UNL     1       4.549  -6.682  22.050  0.00  0.00    +0.173 HD
ATOM     13  C   UNL     1       5.560  -4.950  22.374  0.00  0.00    +0.331 A 
ATOM     14  O   UNL     1       5.564  -4.638  21.188  0.00  0.00    -0.246 OA
ATOM     15  N   UNL     1       6.134  -4.189  23.388  0.00  0.00    -0.271 N 
ATOM     16  C   UNL     1       6.088  -4.592  24.705  0.00  0.00    +0.102 A 
ENDBRANCH   1  15
BRANCH   4  17
ATOM     17  O   UNL     1       7.424  -0.005  22.645  0.00  0.00    -0.386 OA
ATOM     18  H   UNL     1       6.861   0.659  23.079  0.00  0.00    +0.210 HD
ENDBRANCH   4  17
BRANCH   3  19
ATOM     19  C   UNL     1       9.980  -2.410  23.846  0.00  0.00    +0.190 C 
BRANCH  19  20
ATOM     20  O   UNL     1       9.776  -3.758  24.260  0.00  0.00    -0.392 OA
ATOM     21  H   UNL     1       9.095  -4.132  23.676  0.00  0.00    +0.210 HD
ENDBRANCH  19  20
ENDBRANCH   3  19
TORSDOF 4
ENDMDL
MODEL 5
REMARK VINA RESULT:      -5.8      2.410      5.420
REMARK  Name = 
REMARK  5 active torsions:
REMARK  status: ('A' for Active; 'I' for Inactive)
REMARK    1  A    between atoms: C_1  and  C_2
REMARK    2  A    between atoms: N_4  and  C_10
REMARK    3  A    between atoms: C_14  and  O_20
REMARK    4  A    between atoms: C_15  and  C_18
REMARK    5  A    between atoms: C_18  and  O_19
REMARK                            x       y       z     vdW  Elec       q    Type
REMARK                         _______ _______ _______ _____ _____    ______ ____
ROOT
ATOM      1  C   UNL     1       8.098  -3.459  24.060  0.00  0.00    +0.260 C 
ATOM      2  O   UNL     1       7.060  -4.252  24.682  0.00  0.00    -0.345 OA
ATOM      3  C   UNL     1       7.691  -5.202  25.581  0.00  0.00    +0.178 C 
ATOM      4  C   UNL     1       9.201  -5.064  25.390  0.00  0.00    +0.184 C 
ATOM      5  C   UNL     1       9.350  -3.631  24.915  0.00  0.00    +0.246 C 
ATOM      6  F   UNL     1      10.490  -3.468  24.206  0.00  0.00    -0.238 F 
ENDROOT
BRANCH   1  15
ATOM      7  C   UNL     1       8.662   1.417  24.958  0.00  0.00    +0.051 C 
ATOM      8  C   UNL     1       7.986   0.254  24.308  0.00  0.00    +0.030 A 
ATOM      9  C   UNL     1       6.892   0.547  23.355  0.00  0.00    +0.257 A 
ATOM     10  O   UNL     1       6.543   1.695  23.101  0.00  0.00    -0.267 OA
ATOM     11  N   UNL     1       6.298  -0.539  22.780  0.00  0.00    -0.275 N 
ATOM     12  H   UNL     1       5.553  -0.360  22.126  0.00  0.00    +0.173 HD
ATOM     13  C   UNL     1       6.643  -1.848  22.976  0.00  0.00    +0.331 A 
ATOM     14  O   UNL     1       6.049  -2.736  22.372  0.00  0.00    -0.246 OA
ATOM     15  N   UNL     1       7.675  -2.070  23.883  0.00  0.00    -0.271 N 
ATOM     16  C   UNL     1       8.308  -1.027  24.523  0.00  0.00    +0.102 A 
ENDBRANCH   1  15
BRANCH   4  17
ATOM     17  O   UNL     1       9.640  -6.018  24.407  0.00  0.00    -0.386 OA
ATOM     18  H   UNL     1       9.068  -5.973  23.622  0.00  0.00    +0.210 HD
ENDBRANCH   4  17
BRANCH   3  19
ATOM     19  C   UNL     1       7.239  -4.927  27.016  0.00  0.00    +0.190 C 
BRANCH  19  20
ATOM     20  O   UNL     1       7.545  -6.021  27.875  0.00  0.00    -0.392 OA
ATOM     21  H   UNL     1       8.246  -5.719  28.478  0.00  0.00    +0.210 HD
ENDBRANCH  19  20
ENDBRANCH   3  19
TORSDOF 4
ENDMDL
MODEL 6
REMARK VINA RESULT:      -5.7      2.597      3.325
REMARK  Name = 
REMARK  5 active torsions:
REMARK  status: ('A' for Active; 'I' for Inactive)
REMARK    1  A    between atoms: C_1  and  C_2
REMARK    2  A    between atoms: N_4  and  C_10
REMARK    3  A    between atoms: C_14  and  O_20
REMARK    4  A    between atoms: C_15  and  C_18
REMARK    5  A    between atoms: C_18  and  O_19
REMARK                            x       y       z     vdW  Elec       q    Type
REMARK                         _______ _______ _______ _____ _____    ______ ____
ROOT
ATOM      1  C   UNL     1       9.074  -0.037  23.159  0.00  0.00    +0.260 C 
ATOM      2  O   UNL     1       8.707   1.040  24.053  0.00  0.00    -0.345 OA
ATOM      3  C   UNL     1       8.531   2.246  23.263  0.00  0.00    +0.178 C 
ATOM      4  C   UNL     1       8.947   1.907  21.832  0.00  0.00    +0.184 C 
ATOM      5  C   UNL     1       8.693   0.414  21.752  0.00  0.00    +0.246 C 
ATOM      6  F   UNL     1       9.459  -0.160  20.797  0.00  0.00    -0.238 F 
ENDROOT
BRANCH   1  15
ATOM      7  C   UNL     1       5.154  -2.673  24.767  0.00  0.00    +0.051 C 
ATOM      8  C   UNL     1       6.572  -2.540  24.314  0.00  0.00    +0.030 A 
ATOM      9  C   UNL     1       7.365  -3.783  24.182  0.00  0.00    +0.257 A 
ATOM     10  O   UNL     1       6.890  -4.885  24.435  0.00  0.00    -0.267 OA
ATOM     11  N   UNL     1       8.654  -3.624  23.765  0.00  0.00    -0.275 N 
ATOM     12  H   UNL     1       9.210  -4.459  23.666  0.00  0.00    +0.173 HD
ATOM     13  C   UNL     1       9.255  -2.442  23.428  0.00  0.00    +0.331 A 
ATOM     14  O   UNL     1      10.417  -2.435  23.034  0.00  0.00    -0.246 OA
ATOM     15  N   UNL     1       8.468  -1.303  23.571  0.00  0.00    -0.271 N 
ATOM     16  C   UNL     1       7.165  -1.379  24.010  0.00  0.00    +0.102 A 
ENDBRANCH   1  15
BRANCH   4  17
ATOM     17  O   UNL     1      10.334   2.241  21.653  0.00  0.00    -0.386 OA
ATOM     18  H   UNL     1      10.700   1.748  20.899  0.00  0.00    +0.210 HD
ENDBRANCH   4  17
BRANCH   3  19
ATOM     19  C   UNL     1       7.082   2.723  23.372  0.00  0.00    +0.190 C 
BRANCH  19  20
ATOM     20  O   UNL     1       6.667   3.395  22.187  0.00  0.00    -0.392 OA
ATOM     21  H   UNL     1       7.302   4.115  22.034  0.00  0.00    +0.210 HD
ENDBRANCH  19  20
ENDBRANCH   3  19
TORSDOF 4
ENDMDL
MODEL 7
REMARK VINA RESULT:      -5.7      2.343      5.508
REMARK  Name = 
REMARK  5 active torsions:
REMARK  status: ('A' for Active; 'I' for Inactive)
REMARK    1  A    between atoms: C_1  and  C_2
REMARK    2  A    between atoms: N_4  and  C_10
REMARK    3  A    between atoms: C_14  and  O_20
REMARK    4  A    between atoms: C_15  and  C_18
REMARK    5  A    between atoms: C_18  and  O_19
REMARK                            x       y       z     vdW  Elec       q    Type
REMARK                         _______ _______ _______ _____ _____    ______ ____
ROOT
ATOM      1  C   UNL     1       7.780  -2.508  25.457  0.00  0.00    +0.260 C 
ATOM      2  O   UNL     1       8.573  -3.513  26.132  0.00  0.00    -0.345 OA
ATOM      3  C   UNL     1       8.049  -4.819  25.773  0.00  0.00    +0.178 C 
ATOM      4  C   UNL     1       6.787  -4.583  24.943  0.00  0.00    +0.184 C 
ATOM      5  C   UNL     1       7.039  -3.220  24.329  0.00  0.00    +0.246 C 
ATOM      6  F   UNL     1       5.878  -2.609  24.004  0.00  0.00    -0.238 F 
ENDROOT
BRANCH   1  15
ATOM      7  C   UNL     1       9.802   0.266  21.835  0.00  0.00    +0.051 C 
ATOM      8  C   UNL     1       9.537  -0.060  23.268  0.00  0.00    +0.030 A 
ATOM      9  C   UNL     1      10.061   0.875  24.290  0.00  0.00    +0.257 A 
ATOM     10  O   UNL     1      10.692   1.881  23.984  0.00  0.00    -0.267 OA
ATOM     11  N   UNL     1       9.799   0.545  25.588  0.00  0.00    -0.275 N 
ATOM     12  H   UNL     1      10.144   1.171  26.298  0.00  0.00    +0.173 HD
ATOM     13  C   UNL     1       9.075  -0.533  26.018  0.00  0.00    +0.331 A 
ATOM     14  O   UNL     1       8.881  -0.703  27.218  0.00  0.00    -0.246 OA
ATOM     15  N   UNL     1       8.607  -1.382  25.020  0.00  0.00    -0.271 N 
ATOM     16  C   UNL     1       8.851  -1.131  23.687  0.00  0.00    +0.102 A 
ENDBRANCH   1  15
BRANCH   4  17
ATOM     17  O   UNL     1       5.643  -4.593  25.814  0.00  0.00    -0.386 OA
ATOM     18  H   UNL     1       4.858  -4.899  25.327  0.00  0.00    +0.210 HD
ENDBRANCH   4  17
BRANCH   3  19
ATOM     19  C   UNL     1       9.121  -5.613  25.025  0.00  0.00    +0.190 C 
BRANCH  19  20
ATOM     20  O   UNL     1      10.372  -5.563  25.705  0.00  0.00    -0.392 OA
ATOM     21  H   UNL     1      10.541  -4.628  25.914  0.00  0.00    +0.210 HD
ENDBRANCH  19  20
ENDBRANCH   3  19
TORSDOF 4
ENDMDL
MODEL 8
REMARK VINA RESULT:      -5.7      3.541      6.330
REMARK  Name = 
REMARK  5 active torsions:
REMARK  status: ('A' for Active; 'I' for Inactive)
REMARK    1  A    between atoms: C_1  and  C_2
REMARK    2  A    between atoms: N_4  and  C_10
REMARK    3  A    between atoms: C_14  and  O_20
REMARK    4  A    between atoms: C_15  and  C_18
REMARK    5  A    between atoms: C_18  and  O_19
REMARK                            x       y       z     vdW  Elec       q    Type
REMARK                         _______ _______ _______ _____ _____    ______ ____
ROOT
ATOM      1  C   UNL     1       8.779  -0.690  22.830  0.00  0.00    +0.260 C 
ATOM      2  O   UNL     1       7.849  -1.705  22.385  0.00  0.00    -0.345 OA
ATOM      3  C   UNL     1       7.891  -2.805  23.331  0.00  0.00    +0.178 C 
ATOM      4  C   UNL     1       9.007  -2.495  24.329  0.00  0.00    +0.184 C 
ATOM      5  C   UNL     1       9.073  -0.981  24.299  0.00  0.00    +0.246 C 
ATOM      6  F   UNL     1      10.292  -0.538  24.682  0.00  0.00    -0.238 F 
ENDROOT
BRANCH   1  15
ATOM      7  C   UNL     1       5.148   2.720  23.133  0.00  0.00    +0.051 C 
ATOM      8  C   UNL     1       6.523   2.271  22.756  0.00  0.00    +0.030 A 
ATOM      9  C   UNL     1       7.438   3.283  22.184  0.00  0.00    +0.257 A 
ATOM     10  O   UNL     1       7.093   4.448  22.018  0.00  0.00    -0.267 OA
ATOM     11  N   UNL     1       8.684   2.838  21.852  0.00  0.00    -0.275 N 
ATOM     12  H   UNL     1       9.324   3.513  21.464  0.00  0.00    +0.173 HD
ATOM     13  C   UNL     1       9.165   1.570  22.034  0.00  0.00    +0.331 A 
ATOM     14  O   UNL     1      10.321   1.302  21.722  0.00  0.00    -0.246 OA
ATOM     15  N   UNL     1       8.265   0.656  22.573  0.00  0.00    -0.271 N 
ATOM     16  C   UNL     1       6.981   1.023  22.911  0.00  0.00    +0.102 A 
ENDBRANCH   1  15
BRANCH   4  17
ATOM     17  O   UNL     1      10.226  -3.110  23.876  0.00  0.00    -0.386 OA
ATOM     18  H   UNL     1      10.529  -2.683  23.057  0.00  0.00    +0.210 HD
ENDBRANCH   4  17
BRANCH   3  19
ATOM     19  C   UNL     1       6.521  -2.966  23.991  0.00  0.00    +0.190 C 
BRANCH  19  20
ATOM     20  O   UNL     1       5.523  -2.217  23.304  0.00  0.00    -0.392 OA
ATOM     21  H   UNL     1       5.726  -1.277  23.449  0.00  0.00    +0.210 HD
ENDBRANCH  19  20
ENDBRANCH   3  19
TORSDOF 4
ENDMDL
MODEL 9
REMARK VINA RESULT:      -5.7      2.557      5.612
REMARK  Name = 
REMARK  5 active torsions:
REMARK  status: ('A' for Active; 'I' for Inactive)
REMARK    1  A    between atoms: C_1  and  C_2
REMARK    2  A    between atoms: N_4  and  C_10
REMARK    3  A    between atoms: C_14  and  O_20
REMARK    4  A    between atoms: C_15  and  C_18
REMARK    5  A    between atoms: C_18  and  O_19
REMARK                            x       y       z     vdW  Elec       q    Type
REMARK                         _______ _______ _______ _____ _____    ______ ____
ROOT
ATOM      1  C   UNL     1       9.100  -2.796  24.415  0.00  0.00    +0.260 C 
ATOM      2  O   UNL     1       8.752  -3.986  23.668  0.00  0.00    -0.345 OA
ATOM      3  C   UNL     1       8.168  -4.945  24.590  0.00  0.00    +0.178 C 
ATOM      4  C   UNL     1       8.294  -4.351  25.993  0.00  0.00    +0.184 C 
ATOM      5  C   UNL     1       8.321  -2.859  25.725  0.00  0.00    +0.246 C 
ATOM      6  F   UNL     1       8.938  -2.195  26.728  0.00  0.00    -0.238 F 
ENDROOT
BRANCH   1  15
ATOM      7  C   UNL     1       6.455   1.324  23.451  0.00  0.00    +0.051 C 
ATOM      8  C   UNL     1       7.596   0.390  23.210  0.00  0.00    +0.030 A 
ATOM      9  C   UNL     1       8.589   0.776  22.183  0.00  0.00    +0.257 A 
ATOM     10  O   UNL     1       8.491   1.819  21.546  0.00  0.00    -0.267 OA
ATOM     11  N   UNL     1       9.617  -0.101  21.990  0.00  0.00    -0.275 N 
ATOM     12  H   UNL     1      10.305   0.146  21.297  0.00  0.00    +0.173 HD
ATOM     13  C   UNL     1       9.825  -1.265  22.677  0.00  0.00    +0.331 A 
ATOM     14  O   UNL     1      10.811  -1.955  22.431  0.00  0.00    -0.246 OA
ATOM     15  N   UNL     1       8.862  -1.585  23.629  0.00  0.00    -0.271 N 
ATOM     16  C   UNL     1       7.782  -0.763  23.865  0.00  0.00    +0.102 A 
ENDBRANCH   1  15
BRANCH   4  17
ATOM     17  O   UNL     1       9.511  -4.825  26.596  0.00  0.00    -0.386 OA
ATOM     18  H   UNL     1       9.304  -5.418  27.339  0.00  0.00    +0.210 HD
ENDBRANCH   4  17
BRANCH   3  19
ATOM     19  C   UNL     1       6.721  -5.228  24.185  0.00  0.00    +0.190 C 
BRANCH  19  20
ATOM     20  O   UNL     1       5.957  -5.707  25.288  0.00  0.00    -0.392 OA
ATOM     21  H   UNL     1       6.565  -6.219  25.849  0.00  0.00    +0.210 HD
ENDBRANCH  19  20
ENDBRANCH   3  19
TORSDOF 4
ENDMDL
