MODEL 1
REMARK VINA RESULT:      -6.5      0.000      0.000
REMARK  Name = 
REMARK  11 active torsions:
REMARK  status: ('A' for Active; 'I' for Inactive)
REMARK    1  A    between atoms: C_1  and  C_2
REMARK    2  A    between atoms: N_4  and  C_5
REMARK    3  A    between atoms: C_6  and  C_20
REMARK    4  A    between atoms: C_8  and  C_17
REMARK    5  A    between atoms: N_11  and  C_12
REMARK    6  A    between atoms: C_17  and  O_19
REMARK    7  A    between atoms: C_20  and  C_22
REMARK    8  A    between atoms: C_20  and  O_27
REMARK    9  A    between atoms: C_22  and  C_24
REMARK   10  A    between atoms: C_22  and  O_26
REMARK   11  A    between atoms: C_24  and  O_25
REMARK                            x       y       z     vdW  Elec       q    Type
REMARK                         _______ _______ _______ _____ _____    ______ ____
ROOT
ATOM      1  C   UNL     1       8.031  -1.969  24.043  0.00  0.00    +0.117 A 
ATOM      2  C   UNL     1       8.552  -1.687  25.444  0.00  0.00    +0.170 A 
ATOM      3  N   UNL     1       9.137  -0.642  25.944  0.00  0.00    -0.071 NA
ATOM      4  C   UNL     1       8.345  -2.789  26.423  0.00  0.00    +0.101 A 
ATOM      5  C   UNL     1       7.730  -3.915  26.051  0.00  0.00    +0.215 A 
ATOM      6  O   UNL     1       7.271  -4.129  24.777  0.00  0.00    -0.448 OA
ATOM      7  C   UNL     1       7.428  -3.157  23.807  0.00  0.00    +0.161 A 
ENDROOT
BRANCH   3   8
ATOM      8  C   UNL     1       9.432   0.544  25.415  0.00  0.00    +0.382 C 
ATOM      9  N   UNL     1       8.591   1.535  25.355  0.00  0.00    -0.289 N 
ATOM     10  H   UNL     1       8.829   2.433  24.963  0.00  0.00    +0.255 HD
ATOM     11  H   UNL     1       7.716   1.433  25.863  0.00  0.00    +0.255 HD
ATOM     12  N   UNL     1      10.658   0.741  25.010  0.00  0.00    -0.289 N 
ATOM     13  H   UNL     1      11.317  -0.012  25.184  0.00  0.00    +0.255 HD
ATOM     14  H   UNL     1      11.006   1.617  24.650  0.00  0.00    +0.255 HD
ENDBRANCH   3   8
BRANCH   1  17
ATOM     15  C   UNL     1       9.438   0.006  21.215  0.00  0.00    +0.109 C 
ATOM     16  C   UNL     1       9.363  -1.041  22.286  0.00  0.00    +0.214 C 
ATOM     17  N   UNL     1       8.182  -1.050  23.021  0.00  0.00    -0.280 N 
ATOM     18  H   UNL     1       7.355  -0.829  22.476  0.00  0.00    +0.155 HD
ATOM     19  O   UNL     1      10.237  -1.895  22.425  0.00  0.00    -0.276 OA
ENDBRANCH   1  17
BRANCH   5  20
ATOM     20  C   UNL     1       7.524  -5.002  27.036  0.00  0.00    +0.373 C 
ATOM     21  O   UNL     1       6.758  -4.915  27.982  0.00  0.00    -0.242 OA
BRANCH  20  22
ATOM     22  O   UNL     1       8.281  -6.088  26.774  0.00  0.00    -0.475 OA
ATOM     23  H   UNL     1       7.845  -6.768  26.216  0.00  0.00    +0.296 HD
ENDBRANCH  20  22
ENDBRANCH   5  20
BRANCH   7  24
ATOM     24  C   UNL     1       6.879  -3.614  22.472  0.00  0.00    +0.213 C 
BRANCH  24  25
ATOM     25  O   UNL     1       5.617  -2.962  22.261  0.00  0.00    -0.381 OA
ATOM     26  H   UNL     1       5.229  -3.308  21.439  0.00  0.00    +0.210 HD
ENDBRANCH  24  25
BRANCH  24  27
ATOM     27  C   UNL     1       6.704  -5.154  22.394  0.00  0.00    +0.176 C 
BRANCH  27  28
ATOM     28  O   UNL     1       7.959  -5.784  22.695  0.00  0.00    -0.387 OA
ATOM     29  H   UNL     1       7.795  -6.607  23.184  0.00  0.00    +0.210 HD
ENDBRANCH  27  28
BRANCH  27  30
ATOM     30  C   UNL     1       6.228  -5.684  21.024  0.00  0.00    +0.190 C 
BRANCH  30  31
ATOM     31  O   UNL     1       5.860  -4.645  20.122  0.00  0.00    -0.392 OA
ATOM     32  H   UNL     1       4.881  -4.612  20.116  0.00  0.00    +0.210 HD
ENDBRANCH  30  31
ENDBRANCH  27  30
ENDBRANCH  24  27
ENDBRANCH   7  24
TORSDOF 10
ENDMDL
MODEL 2
REMARK VINA RESULT:      -6.2      1.690      4.322
REMARK  Name = 
REMARK  11 active torsions:
REMARK  status: ('A' for Active; 'I' for Inactive)
REMARK    1  A    between atoms: C_1  and  C_2
REMARK    2  A    between atoms: N_4  and  C_5
REMARK    3  A    between atoms: C_6  and  C_20
REMARK    4  A    between atoms: C_8  and  C_17
REMARK    5  A    between atoms: N_11  and  C_12
REMARK    6  A    between atoms: C_17  and  O_19
REMARK    7  A    between atoms: C_20  and  C_22
REMARK    8  A    between atoms: C_20  and  O_27
REMARK    9  A    between atoms: C_22  and  C_24
REMARK   10  A    between atoms: C_22  and  O_26
REMARK   11  A    between atoms: C_24  and  O_25
REMARK                            x       y       z     vdW  Elec       q    Type
REMARK                         _______ _______ _______ _____ _____    ______ ____
ROOT
ATOM      1  C   UNL     1       8.053  -2.457  23.813  0.00  0.00    +0.117 A 
ATOM      2  C   UNL     1       6.975  -2.073  22.812  0.00  0.00    +0.170 A 
ATOM      3  N   UNL     1       6.489  -0.917  22.479  0.00  0.00    -0.071 NA
ATOM      4  C   UNL     1       6.378  -3.216  22.065  0.00  0.00    +0.101 A 
ATOM      5  C   UNL     1       6.803  -4.462  22.287  0.00  0.00    +0.215 A 
ATOM      6  O   UNL     1       7.781  -4.766  23.198  0.00  0.00    -0.448 OA
ATOM      7  C   UNL     1       8.384  -3.764  23.935  0.00  0.00    +0.161 A 
ENDROOT
BRANCH   3   8
ATOM      8  C   UNL     1       6.803   0.317  22.866  0.00  0.00    +0.382 C 
ATOM      9  N   UNL     1       6.238   0.923  23.871  0.00  0.00    -0.289 N 
ATOM     10  H   UNL     1       6.493   1.853  24.163  0.00  0.00    +0.255 HD
ATOM     11  H   UNL     1       5.630   0.365  24.467  0.00  0.00    +0.255 HD
ATOM     12  N   UNL     1       7.786   0.917  22.250  0.00  0.00    -0.289 N 
ATOM     13  H   UNL     1       8.282   0.369  21.554  0.00  0.00    +0.255 HD
ATOM     14  H   UNL     1       8.146   1.826  22.500  0.00  0.00    +0.255 HD
ENDBRANCH   3   8
BRANCH   1  17
ATOM     15  C   UNL     1      10.427   0.127  25.065  0.00  0.00    +0.109 C 
ATOM     16  C   UNL     1       9.816  -0.871  24.127  0.00  0.00    +0.214 C 
ATOM     17  N   UNL     1       8.674  -1.506  24.602  0.00  0.00    -0.280 N 
ATOM     18  H   UNL     1       8.073  -0.910  25.161  0.00  0.00    +0.155 HD
ATOM     19  O   UNL     1      10.235  -1.031  22.981  0.00  0.00    -0.276 OA
ENDBRANCH   1  17
BRANCH   5  20
ATOM     20  C   UNL     1       6.206  -5.589  21.534  0.00  0.00    +0.373 C 
ATOM     21  O   UNL     1       5.956  -5.543  20.341  0.00  0.00    -0.242 OA
BRANCH  20  22
ATOM     22  O   UNL     1       5.965  -6.663  22.315  0.00  0.00    -0.475 OA
ATOM     23  H   UNL     1       5.131  -6.616  22.832  0.00  0.00    +0.296 HD
ENDBRANCH  20  22
ENDBRANCH   5  20
BRANCH   7  24
ATOM     24  C   UNL     1       9.408  -4.325  24.898  0.00  0.00    +0.213 C 
BRANCH  24  25
ATOM     25  O   UNL     1       9.608  -5.711  24.580  0.00  0.00    -0.381 OA
ATOM     26  H   UNL     1      10.041  -6.139  25.339  0.00  0.00    +0.210 HD
ENDBRANCH  24  25
BRANCH  24  27
ATOM     27  C   UNL     1       8.981  -4.175  26.382  0.00  0.00    +0.176 C 
BRANCH  27  28
ATOM     28  O   UNL     1       9.955  -4.819  27.217  0.00  0.00    -0.387 OA
ATOM     29  H   UNL     1      10.817  -4.815  26.767  0.00  0.00    +0.210 HD
ENDBRANCH  27  28
BRANCH  27  30
ATOM     30  C   UNL     1       7.600  -4.774  26.723  0.00  0.00    +0.190 C 
BRANCH  30  31
ATOM     31  O   UNL     1       7.675  -6.117  27.190  0.00  0.00    -0.392 OA
ATOM     32  H   UNL     1       7.942  -6.074  28.131  0.00  0.00    +0.210 HD
ENDBRANCH  30  31
ENDBRANCH  27  30
ENDBRANCH  24  27
ENDBRANCH   7  24
TORSDOF 10
ENDMDL
MODEL 3
REMARK VINA RESULT:      -5.9      2.390      5.218
REMARK  Name = 
REMARK  11 active torsions:
REMARK  status: ('A' for Active; 'I' for Inactive)
REMARK    1  A    between atoms: C_1  and  C_2
REMARK    2  A    between atoms: N_4  and  C_5
REMARK    3  A    between atoms: C_6  and  C_20
REMARK    4  A    between atoms: C_8  and  C_17
REMARK    5  A    between atoms: N_11  and  C_12
REMARK    6  A    between atoms: C_17  and  O_19
REMARK    7  A    between atoms: C_20  and  C_22
REMARK    8  A    between atoms: C_20  and  O_27
REMARK    9  A    between atoms: C_22  and  C_24
REMARK   10  A    between atoms: C_22  and  O_26
REMARK   11  A    between atoms: C_24  and  O_25
REMARK                            x       y       z     vdW  Elec       q    Type
REMARK                         _______ _______ _______ _____ _____    ______ ____
ROOT
ATOM      1  C   UNL     1       8.069  -3.095  24.097  0.00  0.00    +0.117 A 
ATOM      2  C   UNL     1       7.761  -4.583  24.149  0.00  0.00    +0.170 A 
ATOM      3  N   UNL     1       7.978  -5.470  25.072  0.00  0.00    -0.071 NA
ATOM      4  C   UNL     1       7.075  -5.124  22.943  0.00  0.00    +0.101 A 
ATOM      5  C   UNL     1       6.765  -4.318  21.925  0.00  0.00    +0.215 A 
ATOM      6  O   UNL     1       7.058  -2.978  21.918  0.00  0.00    -0.448 OA
ATOM      7  C   UNL     1       7.697  -2.399  22.998  0.00  0.00    +0.161 A 
ENDROOT
BRANCH   3   8
ATOM      8  C   UNL     1       8.497  -5.365  26.293  0.00  0.00    +0.382 C 
ATOM      9  N   UNL     1       7.808  -5.530  27.386  0.00  0.00    -0.289 N 
ATOM     10  H   UNL     1       8.215  -5.460  28.305  0.00  0.00    +0.255 HD
ATOM     11  H   UNL     1       6.863  -5.894  27.288  0.00  0.00    +0.255 HD
ATOM     12  N   UNL     1       9.784  -5.163  26.393  0.00  0.00    -0.289 N 
ATOM     13  H   UNL     1      10.307  -5.160  25.522  0.00  0.00    +0.255 HD
ATOM     14  H   UNL     1      10.290  -5.127  27.265  0.00  0.00    +0.255 HD
ENDBRANCH   3   8
BRANCH   1  17
ATOM     15  C   UNL     1       8.807  -1.092  27.150  0.00  0.00    +0.109 C 
ATOM     16  C   UNL     1       7.995  -1.763  26.082  0.00  0.00    +0.214 C 
ATOM     17  N   UNL     1       8.732  -2.461  25.131  0.00  0.00    -0.280 N 
ATOM     18  H   UNL     1       9.552  -2.926  25.504  0.00  0.00    +0.155 HD
ATOM     19  O   UNL     1       6.766  -1.783  26.113  0.00  0.00    -0.276 OA
ENDBRANCH   1  17
BRANCH   5  20
ATOM     20  C   UNL     1       6.077  -4.866  20.733  0.00  0.00    +0.373 C 
ATOM     21  O   UNL     1       5.819  -6.049  20.592  0.00  0.00    -0.242 OA
BRANCH  20  22
ATOM     22  O   UNL     1       5.779  -3.914  19.824  0.00  0.00    -0.475 OA
ATOM     23  H   UNL     1       5.245  -4.227  19.061  0.00  0.00    +0.296 HD
ENDBRANCH  20  22
ENDBRANCH   5  20
BRANCH   7  24
ATOM     24  C   UNL     1       7.949  -0.924  22.764  0.00  0.00    +0.213 C 
BRANCH  24  25
ATOM     25  O   UNL     1       6.683  -0.285  22.538  0.00  0.00    -0.381 OA
ATOM     26  H   UNL     1       6.517   0.331  23.273  0.00  0.00    +0.210 HD
ENDBRANCH  24  25
BRANCH  24  27
ATOM     27  C   UNL     1       8.902  -0.662  21.568  0.00  0.00    +0.176 C 
BRANCH  27  28
ATOM     28  O   UNL     1       9.920  -1.674  21.550  0.00  0.00    -0.387 OA
ATOM     29  H   UNL     1      10.531  -1.501  20.814  0.00  0.00    +0.210 HD
ENDBRANCH  27  28
BRANCH  27  30
ATOM     30  C   UNL     1       9.605   0.712  21.587  0.00  0.00    +0.190 C 
BRANCH  30  31
ATOM     31  O   UNL     1       8.741   1.786  21.228  0.00  0.00    -0.392 OA
ATOM     32  H   UNL     1       8.575   1.703  20.266  0.00  0.00    +0.210 HD
ENDBRANCH  30  31
ENDBRANCH  27  30
ENDBRANCH  24  27
ENDBRANCH   7  24
TORSDOF 10
ENDMDL
MODEL 4
REMARK VINA RESULT:      -5.9      1.779      4.660
REMARK  Name = 
REMARK  11 active torsions:
REMARK  status: ('A' for Active; 'I' for Inactive)
REMARK    1  A    between atoms: C_1  and  C_2
REMARK    2  A    between atoms: N_4  and  C_5
REMARK    3  A    between atoms: C_6  and  C_20
REMARK    4  A    between atoms: C_8  and  C_17
REMARK    5  A    between atoms: N_11  and  C_12
REMARK    6  A    between atoms: C_17  and  O_19
REMARK    7  A    between atoms: C_20  and  C_22
REMARK    8  A    between atoms: C_20  and  O_27
REMARK    9  A    between atoms: C_22  and  C_24
REMARK   10  A    between atoms: C_22  and  O_26
REMARK   11  A    between atoms: C_24  and  O_25
REMARK                            x       y       z     vdW  Elec       q    Type
REMARK                         _______ _______ _______ _____ _____    ______ ____
ROOT
ATOM      1  C   UNL     1       8.143  -3.050  24.386  0.00  0.00    +0.117 A 
ATOM      2  C   UNL     1       7.971  -2.573  22.953  0.00  0.00    +0.170 A 
ATOM      3  N   UNL     1       8.302  -1.457  22.377  0.00  0.00    -0.071 NA
ATOM      4  C   UNL     1       7.326  -3.555  22.038  0.00  0.00    +0.101 A 
ATOM      5  C   UNL     1       6.958  -4.757  22.490  0.00  0.00    +0.215 A 
ATOM      6  O   UNL     1       7.134  -5.151  23.791  0.00  0.00    -0.448 OA
ATOM      7  C   UNL     1       7.721  -4.296  24.705  0.00  0.00    +0.161 A 
ENDROOT
BRANCH   3   8
ATOM      8  C   UNL     1       8.941  -0.383  22.835  0.00  0.00    +0.382 C 
ATOM      9  N   UNL     1       8.338   0.652  23.344  0.00  0.00    -0.289 N 
ATOM     10  H   UNL     1       8.834   1.455  23.698  0.00  0.00    +0.255 HD
ATOM     11  H   UNL     1       7.341   0.566  23.523  0.00  0.00    +0.255 HD
ATOM     12  N   UNL     1      10.247  -0.410  22.843  0.00  0.00    -0.289 N 
ATOM     13  H   UNL     1      10.681  -1.281  22.552  0.00  0.00    +0.255 HD
ATOM     14  H   UNL     1      10.831   0.321  23.222  0.00  0.00    +0.255 HD
ENDBRANCH   3   8
BRANCH   1  17
ATOM     15  C   UNL     1       8.555  -0.586  27.150  0.00  0.00    +0.109 C 
ATOM     16  C   UNL     1       7.858  -1.453  26.144  0.00  0.00    +0.214 C 
ATOM     17  N   UNL     1       8.696  -2.234  25.355  0.00  0.00    -0.280 N 
ATOM     18  H   UNL     1       9.511  -2.589  25.844  0.00  0.00    +0.155 HD
ATOM     19  O   UNL     1       6.632  -1.545  26.100  0.00  0.00    -0.276 OA
ENDBRANCH   1  17
BRANCH   5  20
ATOM     20  C   UNL     1       6.324  -5.728  21.569  0.00  0.00    +0.373 C 
ATOM     21  O   UNL     1       5.983  -5.451  20.431  0.00  0.00    -0.242 OA
BRANCH  20  22
ATOM     22  O   UNL     1       6.159  -6.943  22.132  0.00  0.00    -0.475 OA
ATOM     23  H   UNL     1       6.068  -7.684  21.492  0.00  0.00    +0.296 HD
ENDBRANCH  20  22
ENDBRANCH   5  20
BRANCH   7  24
ATOM     24  C   UNL     1       7.787  -4.921  26.083  0.00  0.00    +0.213 C 
BRANCH  24  25
ATOM     25  O   UNL     1       8.698  -6.030  26.027  0.00  0.00    -0.381 OA
ATOM     26  H   UNL     1       9.595  -5.697  26.199  0.00  0.00    +0.210 HD
ENDBRANCH  24  25
BRANCH  24  27
ATOM     27  C   UNL     1       6.400  -5.393  26.592  0.00  0.00    +0.176 C 
BRANCH  27  28
ATOM     28  O   UNL     1       5.417  -4.400  26.261  0.00  0.00    -0.387 OA
ATOM     29  H   UNL     1       4.562  -4.836  26.107  0.00  0.00    +0.210 HD
ENDBRANCH  27  28
BRANCH  27  30
ATOM     30  C   UNL     1       6.319  -5.646  28.113  0.00  0.00    +0.190 C 
BRANCH  30  31
ATOM     31  O   UNL     1       7.260  -6.614  28.568  0.00  0.00    -0.392 OA
ATOM     32  H   UNL     1       7.670  -6.248  29.378  0.00  0.00    +0.210 HD
ENDBRANCH  30  31
ENDBRANCH  27  30
ENDBRANCH  24  27
ENDBRANCH   7  24
TORSDOF 10
ENDMDL
MODEL 5
REMARK VINA RESULT:      -5.8      4.085      5.657
REMARK  Name = 
REMARK  11 active torsions:
REMARK  status: ('A' for Active; 'I' for Inactive)
REMARK    1  A    between atoms: C_1  and  C_2
REMARK    2  A    between atoms: N_4  and  C_5
REMARK    3  A    between atoms: C_6  and  C_20
REMARK    4  A    between atoms: C_8  and  C_17
REMARK    5  A    between atoms: N_11  and  C_12
REMARK    6  A    between atoms: C_17  and  O_19
REMARK    7  A    between atoms: C_20  and  C_22
REMARK    8  A    between atoms: C_20  and  O_27
REMARK    9  A    between atoms: C_22  and  C_24
REMARK   10  A    between atoms: C_22  and  O_26
REMARK   11  A    between atoms: C_24  and  O_25
REMARK                            x       y       z     vdW  Elec       q    Type
REMARK                         _______ _______ _______ _____ _____    ______ ____
ROOT
ATOM      1  C   UNL     1       5.626  -5.554  25.914  0.00  0.00    +0.117 A 
ATOM      2  C   UNL     1       6.583  -5.562  27.096  0.00  0.00    +0.170 A 
ATOM      3  N   UNL     1       6.385  -5.805  28.355  0.00  0.00    -0.071 NA
ATOM      4  C   UNL     1       8.000  -5.255  26.756  0.00  0.00    +0.101 A 
ATOM      5  C   UNL     1       8.353  -5.011  25.492  0.00  0.00    +0.215 A 
ATOM      6  O   UNL     1       7.458  -5.016  24.453  0.00  0.00    -0.448 OA
ATOM      7  C   UNL     1       6.123  -5.288  24.684  0.00  0.00    +0.161 A 
ENDROOT
BRANCH   3   8
ATOM      8  C   UNL     1       5.294  -6.173  29.023  0.00  0.00    +0.382 C 
ATOM      9  N   UNL     1       4.829  -7.389  29.029  0.00  0.00    -0.289 N 
ATOM     10  H   UNL     1       4.008  -7.659  29.548  0.00  0.00    +0.255 HD
ATOM     11  H   UNL     1       5.413  -8.112  28.615  0.00  0.00    +0.255 HD
ATOM     12  N   UNL     1       4.709  -5.279  29.774  0.00  0.00    -0.289 N 
ATOM     13  H   UNL     1       5.169  -4.376  29.839  0.00  0.00    +0.255 HD
ATOM     14  H   UNL     1       3.914  -5.463  30.368  0.00  0.00    +0.255 HD
ENDBRANCH   3   8
BRANCH   1  17
ATOM     15  C   UNL     1       1.994  -5.094  26.609  0.00  0.00    +0.109 C 
ATOM     16  C   UNL     1       3.439  -4.732  26.429  0.00  0.00    +0.214 C 
ATOM     17  N   UNL     1       4.273  -5.789  26.082  0.00  0.00    -0.280 N 
ATOM     18  H   UNL     1       3.845  -6.467  25.461  0.00  0.00    +0.155 HD
ATOM     19  O   UNL     1       3.830  -3.567  26.478  0.00  0.00    -0.276 OA
ENDBRANCH   1  17
BRANCH   5  20
ATOM     20  C   UNL     1       9.767  -4.713  25.165  0.00  0.00    +0.373 C 
ATOM     21  O   UNL     1      10.108  -3.810  24.419  0.00  0.00    -0.242 OA
BRANCH  20  22
ATOM     22  O   UNL     1      10.627  -5.554  25.776  0.00  0.00    -0.475 OA
ATOM     23  H   UNL     1      10.778  -5.367  26.729  0.00  0.00    +0.296 HD
ENDBRANCH  20  22
ENDBRANCH   5  20
BRANCH   7  24
ATOM     24  C   UNL     1       5.314  -5.211  23.406  0.00  0.00    +0.213 C 
BRANCH  24  25
ATOM     25  O   UNL     1       4.868  -6.536  23.079  0.00  0.00    -0.381 OA
ATOM     26  H   UNL     1       3.954  -6.477  22.749  0.00  0.00    +0.210 HD
ENDBRANCH  24  25
BRANCH  24  27
ATOM     27  C   UNL     1       6.119  -4.611  22.224  0.00  0.00    +0.176 C 
BRANCH  27  28
ATOM     28  O   UNL     1       5.277  -3.702  21.497  0.00  0.00    -0.387 OA
ATOM     29  H   UNL     1       5.066  -2.940  22.061  0.00  0.00    +0.210 HD
ENDBRANCH  27  28
BRANCH  27  30
ATOM     30  C   UNL     1       6.668  -5.647  21.221  0.00  0.00    +0.190 C 
BRANCH  30  31
ATOM     31  O   UNL     1       5.873  -5.760  20.044  0.00  0.00    -0.392 OA
ATOM     32  H   UNL     1       5.301  -4.965  20.014  0.00  0.00    +0.210 HD
ENDBRANCH  30  31
ENDBRANCH  27  30
ENDBRANCH  24  27
ENDBRANCH   7  24
TORSDOF 10
ENDMDL
MODEL 6
REMARK VINA RESULT:      -5.5      3.243      5.327
REMARK  Name = 
REMARK  11 active torsions:
REMARK  status: ('A' for Active; 'I' for Inactive)
REMARK    1  A    between atoms: C_1  and  C_2
REMARK    2  A    between atoms: N_4  and  C_5
REMARK    3  A    between atoms: C_6  and  C_20
REMARK    4  A    between atoms: C_8  and  C_17
REMARK    5  A    between atoms: N_11  and  C_12
REMARK    6  A    between atoms: C_17  and  O_19
REMARK    7  A    between atoms: C_20  and  C_22
REMARK    8  A    between atoms: C_20  and  O_27
REMARK    9  A    between atoms: C_22  and  C_24
REMARK   10  A    between atoms: C_22  and  O_26
REMARK   11  A    between atoms: C_24  and  O_25
REMARK                            x       y       z     vdW  Elec       q    Type
REMARK                         _______ _______ _______ _____ _____    ______ ____
ROOT
ATOM      1  C   UNL     1       7.704  -2.716  24.745  0.00  0.00    +0.117 A 
ATOM      2  C   UNL     1       7.228  -2.899  26.177  0.00  0.00    +0.170 A 
ATOM      3  N   UNL     1       7.048  -3.970  26.889  0.00  0.00    -0.071 NA
ATOM      4  C   UNL     1       6.929  -1.634  26.904  0.00  0.00    +0.101 A 
ATOM      5  C   UNL     1       7.095  -0.454  26.301  0.00  0.00    +0.215 A 
ATOM      6  O   UNL     1       7.530  -0.332  25.007  0.00  0.00    -0.448 OA
ATOM      7  C   UNL     1       7.826  -1.458  24.262  0.00  0.00    +0.161 A 
ENDROOT
BRANCH   3   8
ATOM      8  C   UNL     1       7.265  -5.255  26.620  0.00  0.00    +0.382 C 
ATOM      9  N   UNL     1       8.441  -5.812  26.663  0.00  0.00    -0.289 N 
ATOM     10  H   UNL     1       8.591  -6.790  26.469  0.00  0.00    +0.255 HD
ATOM     11  H   UNL     1       9.201  -5.262  27.056  0.00  0.00    +0.255 HD
ATOM     12  N   UNL     1       6.226  -6.011  26.380  0.00  0.00    -0.289 N 
ATOM     13  H   UNL     1       5.317  -5.568  26.475  0.00  0.00    +0.255 HD
ATOM     14  H   UNL     1       6.269  -7.007  26.225  0.00  0.00    +0.255 HD
ENDBRANCH   3   8
BRANCH   1  17
ATOM     15  C   UNL     1       7.361  -5.601  22.412  0.00  0.00    +0.109 C 
ATOM     16  C   UNL     1       6.954  -4.421  23.243  0.00  0.00    +0.214 C 
ATOM     17  N   UNL     1       7.988  -3.802  23.937  0.00  0.00    -0.280 N 
ATOM     18  H   UNL     1       8.868  -3.782  23.433  0.00  0.00    +0.155 HD
ATOM     19  O   UNL     1       5.809  -3.971  23.220  0.00  0.00    -0.276 OA
ENDBRANCH   1  17
BRANCH   5  20
ATOM     20  C   UNL     1       6.800   0.797  27.037  0.00  0.00    +0.373 C 
ATOM     21  O   UNL     1       5.840   1.509  26.794  0.00  0.00    -0.242 OA
BRANCH  20  22
ATOM     22  O   UNL     1       7.715   1.062  27.994  0.00  0.00    -0.475 OA
ATOM     23  H   UNL     1       7.812   2.014  28.217  0.00  0.00    +0.296 HD
ENDBRANCH  20  22
ENDBRANCH   5  20
BRANCH   7  24
ATOM     24  C   UNL     1       8.256  -1.093  22.856  0.00  0.00    +0.213 C 
BRANCH  24  25
ATOM     25  O   UNL     1       9.613  -1.527  22.678  0.00  0.00    -0.381 OA
ATOM     26  H   UNL     1       9.629  -2.198  21.973  0.00  0.00    +0.210 HD
ENDBRANCH  24  25
BRANCH  24  27
ATOM     27  C   UNL     1       8.140   0.427  22.571  0.00  0.00    +0.176 C 
BRANCH  27  28
ATOM     28  O   UNL     1       6.752   0.773  22.437  0.00  0.00    -0.387 OA
ATOM     29  H   UNL     1       6.655   1.738  22.496  0.00  0.00    +0.210 HD
ENDBRANCH  27  28
BRANCH  27  30
ATOM     30  C   UNL     1       8.868   0.906  21.298  0.00  0.00    +0.190 C 
BRANCH  30  31
ATOM     31  O   UNL     1       9.769   1.982  21.542  0.00  0.00    -0.392 OA
ATOM     32  H   UNL     1       9.645   2.246  22.478  0.00  0.00    +0.210 HD
ENDBRANCH  30  31
ENDBRANCH  27  30
ENDBRANCH  24  27
ENDBRANCH   7  24
TORSDOF 10
ENDMDL
MODEL 7
REMARK VINA RESULT:      -5.5      3.063      6.181
REMARK  Name = 
REMARK  11 active torsions:
REMARK  status: ('A' for Active; 'I' for Inactive)
REMARK    1  A    between atoms: C_1  and  C_2
REMARK    2  A    between atoms: N_4  and  C_5
REMARK    3  A    between atoms: C_6  and  C_20
REMARK    4  A    between atoms: C_8  and  C_17
REMARK    5  A    between atoms: N_11  and  C_12
REMARK    6  A    between atoms: C_17  and  O_19
REMARK    7  A    between atoms: C_20  and  C_22
REMARK    8  A    between atoms: C_20  and  O_27
REMARK    9  A    between atoms: C_22  and  C_24
REMARK   10  A    between atoms: C_22  and  O_26
REMARK   11  A    between atoms: C_24  and  O_25
REMARK                            x       y       z     vdW  Elec       q    Type
REMARK                         _______ _______ _______ _____ _____    ______ ____
ROOT
ATOM      1  C   UNL     1       8.044  -2.299  25.196  0.00  0.00    +0.117 A 
ATOM      2  C   UNL     1       9.235  -2.884  24.453  0.00  0.00    +0.170 A 
ATOM      3  N   UNL     1       9.890  -3.991  24.624  0.00  0.00    -0.071 NA
ATOM      4  C   UNL     1       9.734  -2.057  23.320  0.00  0.00    +0.101 A 
ATOM      5  C   UNL     1       9.137  -0.903  23.012  0.00  0.00    +0.215 A 
ATOM      6  O   UNL     1       8.061  -0.411  23.706  0.00  0.00    -0.448 OA
ATOM      7  C   UNL     1       7.539  -1.116  24.774  0.00  0.00    +0.161 A 
ENDROOT
BRANCH   3   8
ATOM      8  C   UNL     1       9.710  -5.002  25.471  0.00  0.00    +0.382 C 
ATOM      9  N   UNL     1       9.321  -6.189  25.104  0.00  0.00    -0.289 N 
ATOM     10  H   UNL     1       9.200  -6.951  25.753  0.00  0.00    +0.255 HD
ATOM     11  H   UNL     1       9.291  -6.379  24.105  0.00  0.00    +0.255 HD
ATOM     12  N   UNL     1      10.019  -4.808  26.726  0.00  0.00    -0.289 N 
ATOM     13  H   UNL     1      10.433  -3.909  26.953  0.00  0.00    +0.255 HD
ATOM     14  H   UNL     1       9.980  -5.519  27.440  0.00  0.00    +0.255 HD
ENDBRANCH   3   8
BRANCH   1  17
ATOM     15  C   UNL     1       5.944  -4.505  27.341  0.00  0.00    +0.109 C 
ATOM     16  C   UNL     1       6.491  -3.883  26.091  0.00  0.00    +0.214 C 
ATOM     17  N   UNL     1       7.494  -2.940  26.291  0.00  0.00    -0.280 N 
ATOM     18  H   UNL     1       8.120  -3.159  27.057  0.00  0.00    +0.155 HD
ATOM     19  O   UNL     1       6.152  -4.263  24.971  0.00  0.00    -0.276 OA
ENDBRANCH   1  17
BRANCH   5  20
ATOM     20  C   UNL     1       9.638  -0.092  21.879  0.00  0.00    +0.373 C 
ATOM     21  O   UNL     1      10.134   1.015  22.011  0.00  0.00    -0.242 OA
BRANCH  20  22
ATOM     22  O   UNL     1       9.476  -0.710  20.690  0.00  0.00    -0.475 OA
ATOM     23  H   UNL     1       8.865  -0.254  20.069  0.00  0.00    +0.296 HD
ENDBRANCH  20  22
ENDBRANCH   5  20
BRANCH   7  24
ATOM     24  C   UNL     1       6.380  -0.378  25.411  0.00  0.00    +0.213 C 
BRANCH  24  25
ATOM     25  O   UNL     1       5.570   0.171  24.360  0.00  0.00    -0.381 OA
ATOM     26  H   UNL     1       4.774   0.561  24.762  0.00  0.00    +0.210 HD
ENDBRANCH  24  25
BRANCH  24  27
ATOM     27  C   UNL     1       6.844   0.748  26.371  0.00  0.00    +0.176 C 
BRANCH  27  28
ATOM     28  O   UNL     1       8.200   1.103  26.056  0.00  0.00    -0.387 OA
ATOM     29  H   UNL     1       8.201   1.748  25.329  0.00  0.00    +0.210 HD
ENDBRANCH  27  28
BRANCH  27  30
ATOM     30  C   UNL     1       6.789   0.386  27.871  0.00  0.00    +0.190 C 
BRANCH  30  31
ATOM     31  O   UNL     1       7.926   0.846  28.597  0.00  0.00    -0.392 OA
ATOM     32  H   UNL     1       8.688   0.310  28.295  0.00  0.00    +0.210 HD
ENDBRANCH  30  31
ENDBRANCH  27  30
ENDBRANCH  24  27
ENDBRANCH   7  24
TORSDOF 10
ENDMDL
MODEL 8
REMARK VINA RESULT:      -5.5      3.950      5.922
REMARK  Name = 
REMARK  11 active torsions:
REMARK  status: ('A' for Active; 'I' for Inactive)
REMARK    1  A    between atoms: C_1  and  C_2
REMARK    2  A    between atoms: N_4  and  C_5
REMARK    3  A    between atoms: C_6  and  C_20
REMARK    4  A    between atoms: C_8  and  C_17
REMARK    5  A    between atoms: N_11  and  C_12
REMARK    6  A    between atoms: C_17  and  O_19
REMARK    7  A    between atoms: C_20  and  C_22
REMARK    8  A    between atoms: C_20  and  O_27
REMARK    9  A    between atoms: C_22  and  C_24
REMARK   10  A    between atoms: C_22  and  O_26
REMARK   11  A    between atoms: C_24  and  O_25
REMARK                            x       y       z     vdW  Elec       q    Type
REMARK                         _______ _______ _______ _____ _____    ______ ____
ROOT
ATOM      1  C   UNL     1       5.284  -4.423  25.078  0.00  0.00    +0.117 A 
ATOM      2  C   UNL     1       5.977  -5.595  25.756  0.00  0.00    +0.170 A 
ATOM      3  N   UNL     1       5.498  -6.633  26.370  0.00  0.00    -0.071 NA
ATOM      4  C   UNL     1       7.465  -5.562  25.696  0.00  0.00    +0.101 A 
ATOM      5  C   UNL     1       8.093  -4.564  25.071  0.00  0.00    +0.215 A 
ATOM      6  O   UNL     1       7.431  -3.526  24.468  0.00  0.00    -0.448 OA
ATOM      7  C   UNL     1       6.049  -3.479  24.482  0.00  0.00    +0.161 A 
ENDROOT
BRANCH   3   8
ATOM      8  C   UNL     1       4.247  -7.043  26.569  0.00  0.00    +0.382 C 
ATOM      9  N   UNL     1       3.562  -7.718  25.691  0.00  0.00    -0.289 N 
ATOM     10  H   UNL     1       2.620  -8.033  25.858  0.00  0.00    +0.255 HD
ATOM     11  H   UNL     1       4.064  -8.063  24.876  0.00  0.00    +0.255 HD
ATOM     12  N   UNL     1       3.713  -6.821  27.740  0.00  0.00    -0.289 N 
ATOM     13  H   UNL     1       4.319  -6.400  28.438  0.00  0.00    +0.255 HD
ATOM     14  H   UNL     1       2.798  -7.140  28.019  0.00  0.00    +0.255 HD
ENDBRANCH   3   8
BRANCH   1  17
ATOM     15  C   UNL     1       1.702  -4.524  24.058  0.00  0.00    +0.109 C 
ATOM     16  C   UNL     1       3.187  -4.717  23.966  0.00  0.00    +0.214 C 
ATOM     17  N   UNL     1       3.907  -4.302  25.081  0.00  0.00    -0.280 N 
ATOM     18  H   UNL     1       3.433  -4.467  25.963  0.00  0.00    +0.155 HD
ATOM     19  O   UNL     1       3.710  -5.300  23.018  0.00  0.00    -0.276 OA
ENDBRANCH   1  17
BRANCH   5  20
ATOM     20  C   UNL     1       9.573  -4.546  25.012  0.00  0.00    +0.373 C 
ATOM     21  O   UNL     1      10.210  -3.747  24.345  0.00  0.00    -0.242 OA
BRANCH  20  22
ATOM     22  O   UNL     1      10.133  -5.513  25.769  0.00  0.00    -0.475 OA
ATOM     23  H   UNL     1      10.694  -5.185  26.506  0.00  0.00    +0.296 HD
ENDBRANCH  20  22
ENDBRANCH   5  20
BRANCH   7  24
ATOM     24  C   UNL     1       5.531  -2.237  23.788  0.00  0.00    +0.213 C 
BRANCH  24  25
ATOM     25  O   UNL     1       5.571  -2.467  22.371  0.00  0.00    -0.381 OA
ATOM     26  H   UNL     1       5.056  -1.766  21.934  0.00  0.00    +0.210 HD
ENDBRANCH  24  25
BRANCH  24  27
ATOM     27  C   UNL     1       6.348  -0.968  24.146  0.00  0.00    +0.176 C 
BRANCH  27  28
ATOM     28  O   UNL     1       5.441   0.122  24.377  0.00  0.00    -0.387 OA
ATOM     29  H   UNL     1       5.929   0.867  24.769  0.00  0.00    +0.210 HD
ENDBRANCH  27  28
BRANCH  27  30
ATOM     30  C   UNL     1       7.357  -0.519  23.068  0.00  0.00    +0.190 C 
BRANCH  30  31
ATOM     31  O   UNL     1       8.428  -1.441  22.889  0.00  0.00    -0.392 OA
ATOM     32  H   UNL     1       8.717  -1.713  23.785  0.00  0.00    +0.210 HD
ENDBRANCH  30  31
ENDBRANCH  27  30
ENDBRANCH  24  27
ENDBRANCH   7  24
TORSDOF 10
ENDMDL
MODEL 9
REMARK VINA RESULT:      -5.4      2.595      3.257
REMARK  Name = 
REMARK  11 active torsions:
REMARK  status: ('A' for Active; 'I' for Inactive)
REMARK    1  A    between atoms: C_1  and  C_2
REMARK    2  A    between atoms: N_4  and  C_5
REMARK    3  A    between atoms: C_6  and  C_20
REMARK    4  A    between atoms: C_8  and  C_17
REMARK    5  A    between atoms: N_11  and  C_12
REMARK    6  A    between atoms: C_17  and  O_19
REMARK    7  A    between atoms: C_20  and  C_22
REMARK    8  A    between atoms: C_20  and  O_27
REMARK    9  A    between atoms: C_22  and  C_24
REMARK   10  A    between atoms: C_22  and  O_26
REMARK   11  A    between atoms: C_24  and  O_25
REMARK                            x       y       z     vdW  Elec       q    Type
REMARK                         _______ _______ _______ _____ _____    ______ ____
ROOT
ATOM      1  C   UNL     1       7.664  -1.259  23.575  0.00  0.00    +0.117 A 
ATOM      2  C   UNL     1       9.179  -1.382  23.634  0.00  0.00    +0.170 A 
ATOM      3  N   UNL     1      10.117  -0.551  23.297  0.00  0.00    -0.071 NA
ATOM      4  C   UNL     1       9.682  -2.669  24.188  0.00  0.00    +0.101 A 
ATOM      5  C   UNL     1       8.826  -3.607  24.600  0.00  0.00    +0.215 A 
ATOM      6  O   UNL     1       7.465  -3.456  24.534  0.00  0.00    -0.448 OA
ATOM      7  C   UNL     1       6.916  -2.292  24.028  0.00  0.00    +0.161 A 
ENDROOT
BRANCH   3   8
ATOM      8  C   UNL     1      10.069   0.696  22.835  0.00  0.00    +0.382 C 
ATOM      9  N   UNL     1       9.822   0.995  21.593  0.00  0.00    -0.289 N 
ATOM     10  H   UNL     1       9.776   1.945  21.257  0.00  0.00    +0.255 HD
ATOM     11  H   UNL     1       9.515   0.240  20.985  0.00  0.00    +0.255 HD
ATOM     12  N   UNL     1      10.199   1.669  23.697  0.00  0.00    -0.289 N 
ATOM     13  H   UNL     1      10.269   1.400  24.673  0.00  0.00    +0.255 HD
ATOM     14  H   UNL     1      10.119   2.649  23.467  0.00  0.00    +0.255 HD
ENDBRANCH   3   8
BRANCH   1  17
ATOM     15  C   UNL     1       6.150   2.127  23.229  0.00  0.00    +0.109 C 
ATOM     16  C   UNL     1       6.839   0.965  23.880  0.00  0.00    +0.214 C 
ATOM     17  N   UNL     1       7.053  -0.134  23.055  0.00  0.00    -0.280 N 
ATOM     18  H   UNL     1       7.276   0.108  22.096  0.00  0.00    +0.155 HD
ATOM     19  O   UNL     1       7.278   1.028  25.028  0.00  0.00    -0.276 OA
ENDBRANCH   1  17
BRANCH   5  20
ATOM     20  C   UNL     1       9.339  -4.881  25.155  0.00  0.00    +0.373 C 
ATOM     21  O   UNL     1       9.537  -5.877  24.479  0.00  0.00    -0.242 OA
BRANCH  20  22
ATOM     22  O   UNL     1       9.551  -4.817  26.486  0.00  0.00    -0.475 OA
ATOM     23  H   UNL     1       8.965  -5.393  27.025  0.00  0.00    +0.296 HD
ENDBRANCH  20  22
ENDBRANCH   5  20
BRANCH   7  24
ATOM     24  C   UNL     1       5.403  -2.353  24.019  0.00  0.00    +0.213 C 
BRANCH  24  25
ATOM     25  O   UNL     1       4.918  -1.559  25.113  0.00  0.00    -0.381 OA
ATOM     26  H   UNL     1       5.150  -0.629  24.942  0.00  0.00    +0.210 HD
ENDBRANCH  24  25
BRANCH  24  27
ATOM     27  C   UNL     1       4.862  -3.802  24.130  0.00  0.00    +0.176 C 
BRANCH  27  28
ATOM     28  O   UNL     1       4.299  -4.190  22.867  0.00  0.00    -0.387 OA
ATOM     29  H   UNL     1       3.968  -3.400  22.408  0.00  0.00    +0.210 HD
ENDBRANCH  27  28
BRANCH  27  30
ATOM     30  C   UNL     1       3.779  -4.010  25.210  0.00  0.00    +0.190 C 
BRANCH  30  31
ATOM     31  O   UNL     1       2.669  -3.130  25.063  0.00  0.00    -0.392 OA
ATOM     32  H   UNL     1       2.371  -2.900  25.967  0.00  0.00    +0.210 HD
ENDBRANCH  30  31
ENDBRANCH  27  30
ENDBRANCH  24  27
ENDBRANCH   7  24
TORSDOF 10
ENDMDL
