MODEL 1
REMARK VINA RESULT:      -7.0      0.000      0.000
REMARK  Name = 
REMARK  18 active torsions:
REMARK  status: ('A' for Active; 'I' for Inactive)
REMARK    1  A    between atoms: C_1  and  C_2
REMARK    2  A    between atoms: C_2  and  C_3
REMARK    3  A    between atoms: C_3  and  C_4
REMARK    4  A    between atoms: C_4  and  C_5
REMARK    5  A    between atoms: C_4  and  N_13
REMARK    6  A    between atoms: C_5  and  C_7
REMARK    7  A    between atoms: N_9  and  C_10
REMARK    8  A    between atoms: C_14  and  C_16
REMARK    9  A    between atoms: C_27  and  C_29
REMARK   10  A    between atoms: C_29  and  C_31
REMARK   11  A    between atoms: C_29  and  N_35
REMARK   12  A    between atoms: C_31  and  C_32
REMARK   13  A    between atoms: C_31  and  C_33
REMARK   14  A    between atoms: C_31  and  C_34
REMARK   15  A    between atoms: C_36  and  C_38
REMARK   16  A    between atoms: C_38  and  C_39
REMARK   17  A    between atoms: C_38  and  N_45
REMARK   18  A    between atoms: C_46  and  C_48
REMARK                            x       y       z     vdW  Elec       q    Type
REMARK                         _______ _______ _______ _____ _____    ______ ____
ROOT
ATOM      1  C   UNL     1       8.433  -1.829  24.031  0.00  0.00    +0.165 C 
ATOM      2  N   UNL     1       8.121  -0.891  25.125  0.00  0.00    -0.288 N 
ATOM      3  C   UNL     1       6.810  -0.585  25.463  0.00  0.00    +0.237 C 
ATOM      4  O   UNL     1       5.901  -1.322  25.072  0.00  0.00    -0.274 OA
ATOM      5  C   UNL     1       9.291  -0.100  25.477  0.00  0.00    +0.112 C 
ATOM      6  C   UNL     1      10.259  -0.261  24.323  0.00  0.00    +0.012 C 
ATOM      7  C   UNL     1      10.004   0.683  23.141  0.00  0.00    +0.005 C 
ATOM      8  C   UNL     1       9.973  -0.185  21.884  0.00  0.00    +0.001 C 
ATOM      9  C   UNL     1      10.369  -1.582  22.329  0.00  0.00    +0.006 C 
ATOM     10  C   UNL     1       9.953  -1.648  23.791  0.00  0.00    +0.023 C 
ENDROOT
BRANCH   1  13
ATOM     11  N   UNL     1       6.960  -3.850  24.134  0.00  0.00    -0.304 N 
ATOM     12  H   UNL     1       6.233  -3.241  23.772  0.00  0.00    +0.149 HD
ATOM     13  C   UNL     1       8.234  -3.350  24.170  0.00  0.00    +0.234 C 
ATOM     14  O   UNL     1       9.205  -4.087  24.358  0.00  0.00    -0.274 OA
BRANCH  11  15
ATOM     15  C   UNL     1       6.721  -5.300  24.204  0.00  0.00    +0.149 C 
BRANCH  15  16
ATOM     16  C   UNL     1       5.988  -5.799  22.946  0.00  0.00    +0.237 C 
ATOM     17  O   UNL     1       6.502  -6.368  21.983  0.00  0.00    -0.285 OA
BRANCH  16  18
ATOM     18  C   UNL     1       4.521  -5.388  22.795  0.00  0.00    +0.282 C 
ATOM     19  N   UNL     1       3.666  -6.471  22.874  0.00  0.00    -0.306 N 
ATOM     20  H   UNL     1       4.112  -7.377  23.017  0.00  0.00    +0.149 HD
ATOM     21  O   UNL     1       4.199  -4.232  22.573  0.00  0.00    -0.267 OA
BRANCH  19  22
ATOM     22  C   UNL     1       2.258  -6.387  22.687  0.00  0.00    +0.073 C 
ATOM     23  C   UNL     1       1.322  -6.706  23.826  0.00  0.00    +0.024 C 
ATOM     24  C   UNL     1       1.419  -7.637  22.649  0.00  0.00    +0.024 C 
ENDBRANCH  19  22
ENDBRANCH  16  18
ENDBRANCH  15  16
BRANCH  15  25
ATOM     25  C   UNL     1       6.031  -5.695  25.527  0.00  0.00    +0.030 C 
BRANCH  25  27
ATOM     26  C   UNL     1       3.943  -4.501  26.272  0.00  0.00    +0.004 C 
ATOM     27  C   UNL     1       5.464  -4.522  26.335  0.00  0.00    -0.001 C 
ENDBRANCH  25  27
ENDBRANCH  15  25
ENDBRANCH  11  15
ENDBRANCH   1  13
BRANCH   3  28
ATOM     28  C   UNL     1       6.524   0.720  26.295  0.00  0.00    +0.164 C 
BRANCH  28  29
ATOM     29  N   UNL     1       6.316   1.874  25.384  0.00  0.00    -0.302 N 
ATOM     30  H   UNL     1       5.972   1.679  24.442  0.00  0.00    +0.150 HD
ATOM     31  C   UNL     1       6.854   3.128  25.600  0.00  0.00    +0.234 C 
ATOM     32  O   UNL     1       7.620   3.351  26.539  0.00  0.00    -0.274 OA
BRANCH  31  33
ATOM     33  C   UNL     1       6.454   4.247  24.572  0.00  0.00    +0.162 C 
BRANCH  33  34
ATOM     34  C   UNL     1       7.434   4.223  23.345  0.00  0.00    +0.018 C 
ATOM     35  C   UNL     1       8.928   4.091  23.714  0.00  0.00    +0.006 C 
ATOM     36  C   UNL     1       9.494   5.352  24.351  0.00  0.00    +0.000 C 
ATOM     37  C   UNL     1       9.341   6.555  23.434  0.00  0.00    +0.000 C 
ATOM     38  C   UNL     1       7.914   6.726  22.919  0.00  0.00    +0.000 C 
ATOM     39  C   UNL     1       7.296   5.430  22.390  0.00  0.00    +0.006 C 
ENDBRANCH  33  34
BRANCH  33  40
ATOM     40  N   UNL     1       5.072   4.009  24.116  0.00  0.00    -0.298 N 
ATOM     41  H   UNL     1       4.817   3.098  23.740  0.00  0.00    +0.150 HD
ATOM     42  C   UNL     1       4.104   4.986  24.031  0.00  0.00    +0.264 C 
ATOM     43  O   UNL     1       4.288   6.143  24.392  0.00  0.00    -0.268 OA
BRANCH  42  44
ATOM     44  C   UNL     1       2.776   4.533  23.510  0.00  0.00    +0.143 A 
ATOM     45  C   UNL     1       2.493   3.177  23.410  0.00  0.00    +0.143 A 
ATOM     46  N   UNL     1       1.325   2.710  22.896  0.00  0.00    -0.259 NA
ATOM     47  C   UNL     1       0.452   3.658  22.489  0.00  0.00    +0.130 A 
ATOM     48  C   UNL     1       0.731   5.014  22.588  0.00  0.00    +0.131 A 
ATOM     49  N   UNL     1       1.899   5.491  23.093  0.00  0.00    -0.247 NA
ENDBRANCH  42  44
ENDBRANCH  33  40
ENDBRANCH  31  33
ENDBRANCH  28  29
BRANCH  28  50
ATOM     50  C   UNL     1       5.337   0.582  27.323  0.00  0.00    -0.011 C 
ATOM     51  C   UNL     1       4.027   1.078  26.665  0.00  0.00    +0.013 C 
ATOM     52  C   UNL     1       5.589   1.472  28.563  0.00  0.00    +0.013 C 
ATOM     53  C   UNL     1       5.097  -0.869  27.789  0.00  0.00    +0.013 C 
ENDBRANCH  28  50
ENDBRANCH   3  28
TORSDOF 14
ENDMDL
MODEL 2
REMARK VINA RESULT:      -7.0      2.373      4.540
REMARK  Name = 
REMARK  18 active torsions:
REMARK  status: ('A' for Active; 'I' for Inactive)
REMARK    1  A    between atoms: C_1  and  C_2
REMARK    2  A    between atoms: C_2  and  C_3
REMARK    3  A    between atoms: C_3  and  C_4
REMARK    4  A    between atoms: C_4  and  C_5
REMARK    5  A    between atoms: C_4  and  N_13
REMARK    6  A    between atoms: C_5  and  C_7
REMARK    7  A    between atoms: N_9  and  C_10
REMARK    8  A    between atoms: C_14  and  C_16
REMARK    9  A    between atoms: C_27  and  C_29
REMARK   10  A    between atoms: C_29  and  C_31
REMARK   11  A    between atoms: C_29  and  N_35
REMARK   12  A    between atoms: C_31  and  C_32
REMARK   13  A    between atoms: C_31  and  C_33
REMARK   14  A    between atoms: C_31  and  C_34
REMARK   15  A    between atoms: C_36  and  C_38
REMARK   16  A    between atoms: C_38  and  C_39
REMARK   17  A    between atoms: C_38  and  N_45
REMARK   18  A    between atoms: C_46  and  C_48
REMARK                            x       y       z     vdW  Elec       q    Type
REMARK                         _______ _______ _______ _____ _____    ______ ____
ROOT
ATOM      1  C   UNL     1       7.029  -3.406  25.569  0.00  0.00    +0.165 C 
ATOM      2  N   UNL     1       6.784  -2.259  26.464  0.00  0.00    -0.288 N 
ATOM      3  C   UNL     1       5.512  -1.732  26.632  0.00  0.00    +0.237 C 
ATOM      4  O   UNL     1       4.534  -2.401  26.289  0.00  0.00    -0.274 OA
ATOM      5  C   UNL     1       8.030  -1.578  26.783  0.00  0.00    +0.112 C 
ATOM      6  C   UNL     1       9.038  -2.060  25.759  0.00  0.00    +0.012 C 
ATOM      7  C   UNL     1       8.996  -1.311  24.421  0.00  0.00    +0.005 C 
ATOM      8  C   UNL     1       8.921  -2.373  23.325  0.00  0.00    +0.001 C 
ATOM      9  C   UNL     1       9.085  -3.711  24.025  0.00  0.00    +0.006 C 
ATOM     10  C   UNL     1       8.572  -3.467  25.436  0.00  0.00    +0.023 C 
ENDROOT
BRANCH   1  13
ATOM     11  N   UNL     1       5.285  -5.182  25.828  0.00  0.00    -0.304 N 
ATOM     12  H   UNL     1       4.691  -4.568  25.281  0.00  0.00    +0.149 HD
ATOM     13  C   UNL     1       6.607  -4.841  25.937  0.00  0.00    +0.234 C 
ATOM     14  O   UNL     1       7.442  -5.641  26.364  0.00  0.00    -0.274 OA
BRANCH  11  15
ATOM     15  C   UNL     1       4.840  -6.555  26.111  0.00  0.00    +0.149 C 
BRANCH  15  16
ATOM     16  C   UNL     1       3.990  -7.109  24.954  0.00  0.00    +0.237 C 
ATOM     17  O   UNL     1       3.360  -8.166  24.956  0.00  0.00    -0.285 OA
BRANCH  16  18
ATOM     18  C   UNL     1       4.082  -6.370  23.617  0.00  0.00    +0.282 C 
ATOM     19  N   UNL     1       5.278  -6.613  22.969  0.00  0.00    -0.306 N 
ATOM     20  H   UNL     1       5.925  -7.234  23.453  0.00  0.00    +0.149 HD
ATOM     21  O   UNL     1       3.199  -5.617  23.238  0.00  0.00    -0.267 OA
BRANCH  19  22
ATOM     22  C   UNL     1       5.661  -5.991  21.747  0.00  0.00    +0.073 C 
ATOM     23  C   UNL     1       7.117  -5.728  21.454  0.00  0.00    +0.024 C 
ATOM     24  C   UNL     1       6.189  -4.581  21.743  0.00  0.00    +0.024 C 
ENDBRANCH  19  22
ENDBRANCH  16  18
ENDBRANCH  15  16
BRANCH  15  25
ATOM     25  C   UNL     1       4.156  -6.654  27.491  0.00  0.00    +0.030 C 
BRANCH  25  27
ATOM     26  C   UNL     1       4.591  -4.978  29.319  0.00  0.00    +0.004 C 
ATOM     27  C   UNL     1       3.739  -5.312  28.103  0.00  0.00    -0.001 C 
ENDBRANCH  25  27
ENDBRANCH  15  25
ENDBRANCH  11  15
ENDBRANCH   1  13
BRANCH   3  28
ATOM     28  C   UNL     1       5.362  -0.276  27.211  0.00  0.00    +0.164 C 
BRANCH  28  29
ATOM     29  N   UNL     1       5.403   0.720  26.112  0.00  0.00    -0.302 N 
ATOM     30  H   UNL     1       4.918   0.489  25.243  0.00  0.00    +0.150 HD
ATOM     31  C   UNL     1       6.303   1.768  26.060  0.00  0.00    +0.234 C 
ATOM     32  O   UNL     1       7.196   1.896  26.898  0.00  0.00    -0.274 OA
BRANCH  31  33
ATOM     33  C   UNL     1       6.138   2.772  24.862  0.00  0.00    +0.162 C 
BRANCH  33  34
ATOM     34  C   UNL     1       5.004   3.810  25.184  0.00  0.00    +0.018 C 
ATOM     35  C   UNL     1       3.578   3.341  24.820  0.00  0.00    +0.006 C 
ATOM     36  C   UNL     1       3.334   3.292  23.319  0.00  0.00    +0.000 C 
ATOM     37  C   UNL     1       3.561   4.651  22.675  0.00  0.00    +0.000 C 
ATOM     38  C   UNL     1       4.908   5.264  23.050  0.00  0.00    +0.000 C 
ATOM     39  C   UNL     1       5.211   5.203  24.548  0.00  0.00    +0.006 C 
ENDBRANCH  33  34
BRANCH  33  40
ATOM     40  N   UNL     1       7.416   3.475  24.644  0.00  0.00    -0.298 N 
ATOM     41  H   UNL     1       7.609   4.336  25.151  0.00  0.00    +0.150 HD
ATOM     42  C   UNL     1       8.341   3.125  23.685  0.00  0.00    +0.264 C 
ATOM     43  O   UNL     1       8.213   2.145  22.958  0.00  0.00    -0.268 OA
BRANCH  42  44
ATOM     44  C   UNL     1       9.556   3.996  23.613  0.00  0.00    +0.143 A 
ATOM     45  C   UNL     1      10.803   3.433  23.380  0.00  0.00    +0.143 A 
ATOM     46  N   UNL     1      11.945   4.171  23.357  0.00  0.00    -0.259 NA
ATOM     47  C   UNL     1      11.783   5.495  23.572  0.00  0.00    +0.130 A 
ATOM     48  C   UNL     1      10.537   6.061  23.805  0.00  0.00    +0.131 A 
ATOM     49  N   UNL     1       9.391   5.331  23.838  0.00  0.00    -0.247 NA
ENDBRANCH  42  44
ENDBRANCH  33  40
ENDBRANCH  31  33
ENDBRANCH  28  29
BRANCH  28  50
ATOM     50  C   UNL     1       4.091  -0.072  28.122  0.00  0.00    -0.011 C 
ATOM     51  C   UNL     1       4.366   1.060  29.141  0.00  0.00    +0.013 C 
ATOM     52  C   UNL     1       3.797  -1.355  28.936  0.00  0.00    +0.013 C 
ATOM     53  C   UNL     1       2.827   0.319  27.329  0.00  0.00    +0.013 C 
ENDBRANCH  28  50
ENDBRANCH   3  28
TORSDOF 14
ENDMDL
MODEL 3
REMARK VINA RESULT:      -6.7      2.034      4.168
REMARK  Name = 
REMARK  18 active torsions:
REMARK  status: ('A' for Active; 'I' for Inactive)
REMARK    1  A    between atoms: C_1  and  C_2
REMARK    2  A    between atoms: C_2  and  C_3
REMARK    3  A    between atoms: C_3  and  C_4
REMARK    4  A    between atoms: C_4  and  C_5
REMARK    5  A    between atoms: C_4  and  N_13
REMARK    6  A    between atoms: C_5  and  C_7
REMARK    7  A    between atoms: N_9  and  C_10
REMARK    8  A    between atoms: C_14  and  C_16
REMARK    9  A    between atoms: C_27  and  C_29
REMARK   10  A    between atoms: C_29  and  C_31
REMARK   11  A    between atoms: C_29  and  N_35
REMARK   12  A    between atoms: C_31  and  C_32
REMARK   13  A    between atoms: C_31  and  C_33
REMARK   14  A    between atoms: C_31  and  C_34
REMARK   15  A    between atoms: C_36  and  C_38
REMARK   16  A    between atoms: C_38  and  C_39
REMARK   17  A    between atoms: C_38  and  N_45
REMARK   18  A    between atoms: C_46  and  C_48
REMARK                            x       y       z     vdW  Elec       q    Type
REMARK                         _______ _______ _______ _____ _____    ______ ____
ROOT
ATOM      1  C   UNL     1       8.251  -1.966  24.266  0.00  0.00    +0.165 C 
ATOM      2  N   UNL     1       7.909  -1.154  25.448  0.00  0.00    -0.288 N 
ATOM      3  C   UNL     1       6.589  -0.896  25.790  0.00  0.00    +0.237 C 
ATOM      4  O   UNL     1       5.695  -1.593  25.303  0.00  0.00    -0.274 OA
ATOM      5  C   UNL     1       9.064  -0.398  25.909  0.00  0.00    +0.112 C 
ATOM      6  C   UNL     1      10.057  -0.426  24.764  0.00  0.00    +0.012 C 
ATOM      7  C   UNL     1       9.817   0.639  23.687  0.00  0.00    +0.005 C 
ATOM      8  C   UNL     1       9.818  -0.088  22.343  0.00  0.00    +0.001 C 
ATOM      9  C   UNL     1      10.219  -1.522  22.642  0.00  0.00    +0.006 C 
ATOM     10  C   UNL     1       9.774  -1.749  24.078  0.00  0.00    +0.023 C 
ENDROOT
BRANCH   1  13
ATOM     11  N   UNL     1       6.792  -4.000  24.294  0.00  0.00    -0.304 N 
ATOM     12  H   UNL     1       6.029  -3.358  24.103  0.00  0.00    +0.149 HD
ATOM     13  C   UNL     1       8.064  -3.495  24.235  0.00  0.00    +0.234 C 
ATOM     14  O   UNL     1       9.047  -4.238  24.207  0.00  0.00    -0.274 OA
BRANCH  11  15
ATOM     15  C   UNL     1       6.556  -5.449  24.209  0.00  0.00    +0.149 C 
BRANCH  15  16
ATOM     16  C   UNL     1       5.741  -5.802  22.952  0.00  0.00    +0.237 C 
ATOM     17  O   UNL     1       6.198  -6.159  21.866  0.00  0.00    -0.285 OA
BRANCH  16  18
ATOM     18  C   UNL     1       4.240  -5.506  22.999  0.00  0.00    +0.282 C 
ATOM     19  N   UNL     1       3.479  -6.656  22.926  0.00  0.00    -0.306 N 
ATOM     20  H   UNL     1       4.002  -7.529  22.851  0.00  0.00    +0.149 HD
ATOM     21  O   UNL     1       3.813  -4.363  23.037  0.00  0.00    -0.267 OA
BRANCH  19  22
ATOM     22  C   UNL     1       2.057  -6.667  22.869  0.00  0.00    +0.073 C 
ATOM     23  C   UNL     1       1.258  -7.283  23.990  0.00  0.00    +0.024 C 
ATOM     24  C   UNL     1       1.314  -7.958  22.648  0.00  0.00    +0.024 C 
ENDBRANCH  19  22
ENDBRANCH  16  18
ENDBRANCH  15  16
BRANCH  15  25
ATOM     25  C   UNL     1       5.954  -6.001  25.518  0.00  0.00    +0.030 C 
BRANCH  25  27
ATOM     26  C   UNL     1       6.059  -5.248  27.919  0.00  0.00    +0.004 C 
ATOM     27  C   UNL     1       5.521  -4.934  26.530  0.00  0.00    -0.001 C 
ENDBRANCH  25  27
ENDBRANCH  15  25
ENDBRANCH  11  15
ENDBRANCH   1  13
BRANCH   3  28
ATOM     28  C   UNL     1       6.274   0.309  26.753  0.00  0.00    +0.164 C 
BRANCH  28  29
ATOM     29  N   UNL     1       6.381   1.594  26.018  0.00  0.00    -0.302 N 
ATOM     30  H   UNL     1       6.298   1.568  25.000  0.00  0.00    +0.150 HD
ATOM     31  C   UNL     1       6.903   2.751  26.567  0.00  0.00    +0.234 C 
ATOM     32  O   UNL     1       7.394   2.766  27.696  0.00  0.00    -0.274 OA
BRANCH  31  33
ATOM     33  C   UNL     1       6.856   4.036  25.664  0.00  0.00    +0.162 C 
BRANCH  33  34
ATOM     34  C   UNL     1       6.098   5.190  26.412  0.00  0.00    +0.018 C 
ATOM     35  C   UNL     1       4.662   4.835  26.859  0.00  0.00    +0.006 C 
ATOM     36  C   UNL     1       3.688   4.727  25.695  0.00  0.00    +0.000 C 
ATOM     37  C   UNL     1       3.627   6.023  24.900  0.00  0.00    +0.000 C 
ATOM     38  C   UNL     1       5.008   6.529  24.489  0.00  0.00    +0.000 C 
ATOM     39  C   UNL     1       6.026   6.522  25.632  0.00  0.00    +0.006 C 
ENDBRANCH  33  34
BRANCH  33  40
ATOM     40  N   UNL     1       8.235   4.458  25.356  0.00  0.00    -0.298 N 
ATOM     41  H   UNL     1       8.761   4.996  26.041  0.00  0.00    +0.150 HD
ATOM     42  C   UNL     1       8.840   4.294  24.129  0.00  0.00    +0.264 C 
ATOM     43  O   UNL     1       8.304   3.717  23.190  0.00  0.00    -0.268 OA
BRANCH  42  44
ATOM     44  C   UNL     1      10.235   4.826  24.024  0.00  0.00    +0.143 A 
ATOM     45  C   UNL     1      10.552   6.062  24.570  0.00  0.00    +0.143 A 
ATOM     46  N   UNL     1      11.788   6.616  24.458  0.00  0.00    -0.259 NA
ATOM     47  C   UNL     1      12.694   5.878  23.779  0.00  0.00    +0.130 A 
ATOM     48  C   UNL     1      12.381   4.642  23.232  0.00  0.00    +0.131 A 
ATOM     49  N   UNL     1      11.146   4.083  23.332  0.00  0.00    -0.247 NA
ENDBRANCH  42  44
ENDBRANCH  33  40
ENDBRANCH  31  33
ENDBRANCH  28  29
BRANCH  28  50
ATOM     50  C   UNL     1       4.891   0.192  27.502  0.00  0.00    -0.011 C 
ATOM     51  C   UNL     1       3.809   0.959  26.705  0.00  0.00    +0.013 C 
ATOM     52  C   UNL     1       4.977   0.848  28.900  0.00  0.00    +0.013 C 
ATOM     53  C   UNL     1       4.403  -1.262  27.660  0.00  0.00    +0.013 C 
ENDBRANCH  28  50
ENDBRANCH   3  28
TORSDOF 14
ENDMDL
MODEL 4
REMARK VINA RESULT:      -6.4      2.433      8.863
REMARK  Name = 
REMARK  18 active torsions:
REMARK  status: ('A' for Active; 'I' for Inactive)
REMARK    1  A    between atoms: C_1  and  C_2
REMARK    2  A    between atoms: C_2  and  C_3
REMARK    3  A    between atoms: C_3  and  C_4
REMARK    4  A    between atoms: C_4  and  C_5
REMARK    5  A    between atoms: C_4  and  N_13
REMARK    6  A    between atoms: C_5  and  C_7
REMARK    7  A    between atoms: N_9  and  C_10
REMARK    8  A    between atoms: C_14  and  C_16
REMARK    9  A    between atoms: C_27  and  C_29
REMARK   10  A    between atoms: C_29  and  C_31
REMARK   11  A    between atoms: C_29  and  N_35
REMARK   12  A    between atoms: C_31  and  C_32
REMARK   13  A    between atoms: C_31  and  C_33
REMARK   14  A    between atoms: C_31  and  C_34
REMARK   15  A    between atoms: C_36  and  C_38
REMARK   16  A    between atoms: C_38  and  C_39
REMARK   17  A    between atoms: C_38  and  N_45
REMARK   18  A    between atoms: C_46  and  C_48
REMARK                            x       y       z     vdW  Elec       q    Type
REMARK                         _______ _______ _______ _____ _____    ______ ____
ROOT
ATOM      1  C   UNL     1       5.184   3.091  23.655  0.00  0.00    +0.165 C 
ATOM      2  N   UNL     1       4.959   2.673  25.052  0.00  0.00    -0.288 N 
ATOM      3  C   UNL     1       5.452   1.469  25.535  0.00  0.00    +0.237 C 
ATOM      4  O   UNL     1       6.340   0.888  24.906  0.00  0.00    -0.274 OA
ATOM      5  C   UNL     1       3.891   3.453  25.659  0.00  0.00    +0.112 C 
ATOM      6  C   UNL     1       3.155   4.110  24.508  0.00  0.00    +0.012 C 
ATOM      7  C   UNL     1       2.098   3.223  23.838  0.00  0.00    +0.005 C 
ATOM      8  C   UNL     1       2.372   3.272  22.336  0.00  0.00    +0.001 C 
ATOM      9  C   UNL     1       3.469   4.305  22.142  0.00  0.00    +0.006 C 
ATOM     10  C   UNL     1       4.233   4.298  23.457  0.00  0.00    +0.023 C 
ENDROOT
BRANCH   1  13
ATOM     11  N   UNL     1       7.616   3.558  24.021  0.00  0.00    -0.304 N 
ATOM     12  H   UNL     1       7.517   2.994  24.859  0.00  0.00    +0.149 HD
ATOM     13  C   UNL     1       6.555   3.582  23.155  0.00  0.00    +0.234 C 
ATOM     14  O   UNL     1       6.672   4.029  22.012  0.00  0.00    -0.274 OA
BRANCH  11  15
ATOM     15  C   UNL     1       8.958   3.961  23.574  0.00  0.00    +0.149 C 
BRANCH  15  16
ATOM     16  C   UNL     1       9.892   2.742  23.467  0.00  0.00    +0.237 C 
ATOM     17  O   UNL     1      11.095   2.723  23.727  0.00  0.00    -0.285 OA
BRANCH  16  18
ATOM     18  C   UNL     1       9.316   1.489  22.803  0.00  0.00    +0.282 C 
ATOM     19  N   UNL     1       9.419   0.375  23.614  0.00  0.00    -0.306 N 
ATOM     20  H   UNL     1       9.856   0.528  24.523  0.00  0.00    +0.149 HD
ATOM     21  O   UNL     1       8.879   1.511  21.664  0.00  0.00    -0.267 OA
BRANCH  19  22
ATOM     22  C   UNL     1       9.036  -0.936  23.216  0.00  0.00    +0.073 C 
ATOM     23  C   UNL     1       9.878  -2.124  23.610  0.00  0.00    +0.024 C 
ATOM     24  C   UNL     1       9.830  -1.679  22.174  0.00  0.00    +0.024 C 
ENDBRANCH  19  22
ENDBRANCH  16  18
ENDBRANCH  15  16
BRANCH  15  25
ATOM     25  C   UNL     1       9.522   5.106  24.442  0.00  0.00    +0.030 C 
BRANCH  25  27
ATOM     26  C   UNL     1      11.812   6.109  24.147  0.00  0.00    +0.004 C 
ATOM     27  C   UNL     1      10.362   6.138  23.682  0.00  0.00    -0.001 C 
ENDBRANCH  25  27
ENDBRANCH  15  25
ENDBRANCH  11  15
ENDBRANCH   1  13
BRANCH   3  28
ATOM     28  C   UNL     1       4.826   0.862  26.845  0.00  0.00    +0.164 C 
BRANCH  28  29
ATOM     29  N   UNL     1       5.045  -0.605  26.886  0.00  0.00    -0.302 N 
ATOM     30  H   UNL     1       6.004  -0.946  26.790  0.00  0.00    +0.150 HD
ATOM     31  C   UNL     1       4.037  -1.537  26.717  0.00  0.00    +0.234 C 
ATOM     32  O   UNL     1       2.886  -1.200  26.438  0.00  0.00    -0.274 OA
BRANCH  31  33
ATOM     33  C   UNL     1       4.446  -3.045  26.879  0.00  0.00    +0.162 C 
BRANCH  33  34
ATOM     34  C   UNL     1       3.269  -3.853  27.535  0.00  0.00    +0.018 C 
ATOM     35  C   UNL     1       3.175  -3.720  29.072  0.00  0.00    +0.006 C 
ATOM     36  C   UNL     1       4.297  -4.446  29.799  0.00  0.00    +0.000 C 
ATOM     37  C   UNL     1       4.316  -5.927  29.455  0.00  0.00    +0.000 C 
ATOM     38  C   UNL     1       4.306  -6.183  27.950  0.00  0.00    +0.000 C 
ATOM     39  C   UNL     1       3.258  -5.360  27.197  0.00  0.00    +0.006 C 
ENDBRANCH  33  34
BRANCH  33  40
ATOM     40  N   UNL     1       4.758  -3.604  25.550  0.00  0.00    -0.298 N 
ATOM     41  H   UNL     1       4.103  -4.246  25.108  0.00  0.00    +0.150 HD
ATOM     42  C   UNL     1       5.959  -3.429  24.898  0.00  0.00    +0.264 C 
ATOM     43  O   UNL     1       6.865  -2.731  25.340  0.00  0.00    -0.268 OA
BRANCH  42  44
ATOM     44  C   UNL     1       6.077  -4.113  23.572  0.00  0.00    +0.143 A 
ATOM     45  C   UNL     1       5.718  -3.444  22.410  0.00  0.00    +0.143 A 
ATOM     46  N   UNL     1       5.755  -4.033  21.185  0.00  0.00    -0.259 NA
ATOM     47  C   UNL     1       6.172  -5.319  21.175  0.00  0.00    +0.130 A 
ATOM     48  C   UNL     1       6.531  -5.991  22.335  0.00  0.00    +0.131 A 
ATOM     49  N   UNL     1       6.490  -5.413  23.564  0.00  0.00    -0.247 NA
ENDBRANCH  42  44
ENDBRANCH  33  40
ENDBRANCH  31  33
ENDBRANCH  28  29
BRANCH  28  50
ATOM     50  C   UNL     1       5.319   1.552  28.175  0.00  0.00    -0.011 C 
ATOM     51  C   UNL     1       5.632   0.464  29.231  0.00  0.00    +0.013 C 
ATOM     52  C   UNL     1       4.206   2.450  28.763  0.00  0.00    +0.013 C 
ATOM     53  C   UNL     1       6.597   2.394  27.989  0.00  0.00    +0.013 C 
ENDBRANCH  28  50
ENDBRANCH   3  28
TORSDOF 14
ENDMDL
MODEL 5
REMARK VINA RESULT:      -6.3      2.512      4.395
REMARK  Name = 
REMARK  18 active torsions:
REMARK  status: ('A' for Active; 'I' for Inactive)
REMARK    1  A    between atoms: C_1  and  C_2
REMARK    2  A    between atoms: C_2  and  C_3
REMARK    3  A    between atoms: C_3  and  C_4
REMARK    4  A    between atoms: C_4  and  C_5
REMARK    5  A    between atoms: C_4  and  N_13
REMARK    6  A    between atoms: C_5  and  C_7
REMARK    7  A    between atoms: N_9  and  C_10
REMARK    8  A    between atoms: C_14  and  C_16
REMARK    9  A    between atoms: C_27  and  C_29
REMARK   10  A    between atoms: C_29  and  C_31
REMARK   11  A    between atoms: C_29  and  N_35
REMARK   12  A    between atoms: C_31  and  C_32
REMARK   13  A    between atoms: C_31  and  C_33
REMARK   14  A    between atoms: C_31  and  C_34
REMARK   15  A    between atoms: C_36  and  C_38
REMARK   16  A    between atoms: C_38  and  C_39
REMARK   17  A    between atoms: C_38  and  N_45
REMARK   18  A    between atoms: C_46  and  C_48
REMARK                            x       y       z     vdW  Elec       q    Type
REMARK                         _______ _______ _______ _____ _____    ______ ____
ROOT
ATOM      1  C   UNL     1       5.985  -3.251  24.931  0.00  0.00    +0.165 C 
ATOM      2  N   UNL     1       6.384  -1.944  24.375  0.00  0.00    -0.288 N 
ATOM      3  C   UNL     1       6.534  -1.754  23.009  0.00  0.00    +0.237 C 
ATOM      4  O   UNL     1       6.038  -2.573  22.231  0.00  0.00    -0.274 OA
ATOM      5  C   UNL     1       6.942  -1.090  25.413  0.00  0.00    +0.112 C 
ATOM      6  C   UNL     1       7.268  -2.010  26.572  0.00  0.00    +0.012 C 
ATOM      7  C   UNL     1       8.622  -2.721  26.459  0.00  0.00    +0.005 C 
ATOM      8  C   UNL     1       8.359  -4.208  26.699  0.00  0.00    +0.001 C 
ATOM      9  C   UNL     1       6.900  -4.315  27.106  0.00  0.00    +0.006 C 
ATOM     10  C   UNL     1       6.234  -3.114  26.454  0.00  0.00    +0.023 C 
ENDROOT
BRANCH   1  13
ATOM     11  N   UNL     1       4.368  -5.122  24.545  0.00  0.00    -0.304 N 
ATOM     12  H   UNL     1       5.165  -5.735  24.685  0.00  0.00    +0.149 HD
ATOM     13  C   UNL     1       4.548  -3.791  24.812  0.00  0.00    +0.234 C 
ATOM     14  O   UNL     1       3.588  -3.023  24.909  0.00  0.00    -0.274 OA
BRANCH  11  15
ATOM     15  C   UNL     1       3.016  -5.698  24.480  0.00  0.00    +0.149 C 
BRANCH  15  16
ATOM     16  C   UNL     1       2.778  -6.677  25.644  0.00  0.00    +0.237 C 
ATOM     17  O   UNL     1       1.728  -7.271  25.891  0.00  0.00    -0.285 OA
BRANCH  16  18
ATOM     18  C   UNL     1       3.886  -6.781  26.694  0.00  0.00    +0.282 C 
ATOM     19  N   UNL     1       3.472  -6.338  27.935  0.00  0.00    -0.306 N 
ATOM     20  H   UNL     1       2.509  -6.007  27.988  0.00  0.00    +0.149 HD
ATOM     21  O   UNL     1       5.009  -7.163  26.405  0.00  0.00    -0.267 OA
BRANCH  19  22
ATOM     22  C   UNL     1       4.322  -6.249  29.073  0.00  0.00    +0.073 C 
ATOM     23  C   UNL     1       3.731  -6.110  30.453  0.00  0.00    +0.024 C 
ATOM     24  C   UNL     1       4.455  -4.952  29.825  0.00  0.00    +0.024 C 
ENDBRANCH  19  22
ENDBRANCH  16  18
ENDBRANCH  15  16
BRANCH  15  25
ATOM     25  C   UNL     1       2.724  -6.299  23.089  0.00  0.00    +0.030 C 
BRANCH  25  27
ATOM     26  C   UNL     1       0.567  -5.001  23.141  0.00  0.00    +0.004 C 
ATOM     27  C   UNL     1       1.249  -6.279  22.673  0.00  0.00    -0.001 C 
ENDBRANCH  25  27
ENDBRANCH  15  25
ENDBRANCH  11  15
ENDBRANCH   1  13
BRANCH   3  28
ATOM     28  C   UNL     1       7.375  -0.525  22.500  0.00  0.00    +0.164 C 
BRANCH  28  29
ATOM     29  N   UNL     1       6.778   0.743  22.988  0.00  0.00    -0.302 N 
ATOM     30  H   UNL     1       6.087   0.684  23.739  0.00  0.00    +0.150 HD
ATOM     31  C   UNL     1       6.840   1.938  22.296  0.00  0.00    +0.234 C 
ATOM     32  O   UNL     1       7.335   2.008  21.171  0.00  0.00    -0.274 OA
BRANCH  31  33
ATOM     33  C   UNL     1       6.225   3.193  23.012  0.00  0.00    +0.162 C 
BRANCH  33  34
ATOM     34  C   UNL     1       7.281   4.355  23.061  0.00  0.00    +0.018 C 
ATOM     35  C   UNL     1       8.610   3.989  23.759  0.00  0.00    +0.006 C 
ATOM     36  C   UNL     1       8.466   3.835  25.266  0.00  0.00    +0.000 C 
ATOM     37  C   UNL     1       7.933   5.108  25.906  0.00  0.00    +0.000 C 
ATOM     38  C   UNL     1       6.668   5.625  25.227  0.00  0.00    +0.000 C 
ATOM     39  C   UNL     1       6.766   5.664  23.700  0.00  0.00    +0.006 C 
ENDBRANCH  33  34
BRANCH  33  40
ATOM     40  N   UNL     1       5.029   3.633  22.269  0.00  0.00    -0.298 N 
ATOM     41  H   UNL     1       5.137   4.228  21.450  0.00  0.00    +0.150 HD
ATOM     42  C   UNL     1       3.734   3.410  22.682  0.00  0.00    +0.264 C 
ATOM     43  O   UNL     1       3.453   2.761  23.684  0.00  0.00    -0.268 OA
BRANCH  42  44
ATOM     44  C   UNL     1       2.669   3.973  21.793  0.00  0.00    +0.143 A 
ATOM     45  C   UNL     1       1.829   3.122  21.088  0.00  0.00    +0.143 A 
ATOM     46  N   UNL     1       0.881   3.578  20.228  0.00  0.00    -0.259 NA
ATOM     47  C   UNL     1       0.806   4.922  20.108  0.00  0.00    +0.130 A 
ATOM     48  C   UNL     1       1.644   5.776  20.812  0.00  0.00    +0.131 A 
ATOM     49  N   UNL     1       2.601   5.329  21.668  0.00  0.00    -0.247 NA
ENDBRANCH  42  44
ENDBRANCH  33  40
ENDBRANCH  31  33
ENDBRANCH  28  29
BRANCH  28  50
ATOM     50  C   UNL     1       8.911  -0.606  22.846  0.00  0.00    -0.011 C 
ATOM     51  C   UNL     1       9.736  -0.077  21.648  0.00  0.00    +0.013 C 
ATOM     52  C   UNL     1       9.337  -2.075  23.079  0.00  0.00    +0.013 C 
ATOM     53  C   UNL     1       9.303   0.231  24.081  0.00  0.00    +0.013 C 
ENDBRANCH  28  50
ENDBRANCH   3  28
TORSDOF 14
ENDMDL
MODEL 6
REMARK VINA RESULT:      -6.2      2.198      3.495
REMARK  Name = 
REMARK  18 active torsions:
REMARK  status: ('A' for Active; 'I' for Inactive)
REMARK    1  A    between atoms: C_1  and  C_2
REMARK    2  A    between atoms: C_2  and  C_3
REMARK    3  A    between atoms: C_3  and  C_4
REMARK    4  A    between atoms: C_4  and  C_5
REMARK    5  A    between atoms: C_4  and  N_13
REMARK    6  A    between atoms: C_5  and  C_7
REMARK    7  A    between atoms: N_9  and  C_10
REMARK    8  A    between atoms: C_14  and  C_16
REMARK    9  A    between atoms: C_27  and  C_29
REMARK   10  A    between atoms: C_29  and  C_31
REMARK   11  A    between atoms: C_29  and  N_35
REMARK   12  A    between atoms: C_31  and  C_32
REMARK   13  A    between atoms: C_31  and  C_33
REMARK   14  A    between atoms: C_31  and  C_34
REMARK   15  A    between atoms: C_36  and  C_38
REMARK   16  A    between atoms: C_38  and  C_39
REMARK   17  A    between atoms: C_38  and  N_45
REMARK   18  A    between atoms: C_46  and  C_48
REMARK                            x       y       z     vdW  Elec       q    Type
REMARK                         _______ _______ _______ _____ _____    ______ ____
ROOT
ATOM      1  C   UNL     1       8.031  -0.514  23.348  0.00  0.00    +0.165 C 
ATOM      2  N   UNL     1       7.600   0.037  24.647  0.00  0.00    -0.288 N 
ATOM      3  C   UNL     1       6.257   0.119  24.987  0.00  0.00    +0.237 C 
ATOM      4  O   UNL     1       5.434  -0.546  24.353  0.00  0.00    -0.274 OA
ATOM      5  C   UNL     1       8.677   0.787  25.274  0.00  0.00    +0.112 C 
ATOM      6  C   UNL     1       9.688   1.051  24.176  0.00  0.00    +0.012 C 
ATOM      7  C   UNL     1       9.376   2.272  23.302  0.00  0.00    +0.005 C 
ATOM      8  C   UNL     1       9.463   1.806  21.849  0.00  0.00    +0.001 C 
ATOM      9  C   UNL     1       9.980   0.379  21.896  0.00  0.00    +0.006 C 
ATOM     10  C   UNL     1       9.532  -0.143  23.253  0.00  0.00    +0.023 C 
ENDROOT
BRANCH   1  13
ATOM     11  N   UNL     1       7.117  -2.809  23.755  0.00  0.00    -0.304 N 
ATOM     12  H   UNL     1       6.386  -2.339  24.278  0.00  0.00    +0.149 HD
ATOM     13  C   UNL     1       7.976  -2.021  23.035  0.00  0.00    +0.234 C 
ATOM     14  O   UNL     1       8.728  -2.504  22.186  0.00  0.00    -0.274 OA
BRANCH  11  15
ATOM     15  C   UNL     1       6.985  -4.242  23.455  0.00  0.00    +0.149 C 
BRANCH  15  16
ATOM     16  C   UNL     1       5.711  -4.519  22.636  0.00  0.00    +0.237 C 
ATOM     17  O   UNL     1       5.637  -4.597  21.410  0.00  0.00    -0.285 OA
BRANCH  16  18
ATOM     18  C   UNL     1       4.386  -4.514  23.403  0.00  0.00    +0.282 C 
ATOM     19  N   UNL     1       3.619  -5.629  23.124  0.00  0.00    -0.306 N 
ATOM     20  H   UNL     1       4.023  -6.290  22.462  0.00  0.00    +0.149 HD
ATOM     21  O   UNL     1       4.064  -3.581  24.120  0.00  0.00    -0.267 OA
BRANCH  19  22
ATOM     22  C   UNL     1       2.308  -5.840  23.636  0.00  0.00    +0.073 C 
ATOM     23  C   UNL     1       1.577  -7.126  23.343  0.00  0.00    +0.024 C 
ATOM     24  C   UNL     1       1.120  -5.841  22.711  0.00  0.00    +0.024 C 
ENDBRANCH  19  22
ENDBRANCH  16  18
ENDBRANCH  15  16
BRANCH  15  25
ATOM     25  C   UNL     1       7.105  -5.100  24.732  0.00  0.00    +0.030 C 
BRANCH  25  27
ATOM     26  C   UNL     1       8.652  -4.406  26.593  0.00  0.00    +0.004 C 
ATOM     27  C   UNL     1       8.522  -5.209  25.306  0.00  0.00    -0.001 C 
ENDBRANCH  25  27
ENDBRANCH  15  25
ENDBRANCH  11  15
ENDBRANCH   1  13
BRANCH   3  28
ATOM     28  C   UNL     1       5.823   1.098  26.141  0.00  0.00    +0.164 C 
BRANCH  28  29
ATOM     29  N   UNL     1       4.558   1.785  25.782  0.00  0.00    -0.302 N 
ATOM     30  H   UNL     1       3.697   1.234  25.795  0.00  0.00    +0.150 HD
ATOM     31  C   UNL     1       4.504   3.002  25.128  0.00  0.00    +0.234 C 
ATOM     32  O   UNL     1       5.522   3.564  24.723  0.00  0.00    -0.274 OA
BRANCH  31  33
ATOM     33  C   UNL     1       3.074   3.615  24.909  0.00  0.00    +0.162 C 
BRANCH  33  34
ATOM     34  C   UNL     1       2.914   4.922  25.767  0.00  0.00    +0.018 C 
ATOM     35  C   UNL     1       3.281   4.763  27.259  0.00  0.00    +0.006 C 
ATOM     36  C   UNL     1       2.268   3.934  28.034  0.00  0.00    +0.000 C 
ATOM     37  C   UNL     1       0.875   4.540  27.954  0.00  0.00    +0.000 C 
ATOM     38  C   UNL     1       0.443   4.839  26.520  0.00  0.00    +0.000 C 
ATOM     39  C   UNL     1       1.511   5.566  25.699  0.00  0.00    +0.006 C 
ENDBRANCH  33  34
BRANCH  33  40
ATOM     40  N   UNL     1       2.898   3.929  23.479  0.00  0.00    -0.298 N 
ATOM     41  H   UNL     1       3.457   4.665  23.053  0.00  0.00    +0.150 HD
ATOM     42  C   UNL     1       1.918   3.382  22.680  0.00  0.00    +0.264 C 
ATOM     43  O   UNL     1       1.133   2.527  23.074  0.00  0.00    -0.268 OA
BRANCH  42  44
ATOM     44  C   UNL     1       1.898   3.866  21.263  0.00  0.00    +0.143 A 
ATOM     45  C   UNL     1       1.898   5.227  20.993  0.00  0.00    +0.143 A 
ATOM     46  N   UNL     1       1.828   5.721  19.728  0.00  0.00    -0.259 NA
ATOM     47  C   UNL     1       1.763   4.793  18.747  0.00  0.00    +0.130 A 
ATOM     48  C   UNL     1       1.763   3.431  19.015  0.00  0.00    +0.131 A 
ATOM     49  N   UNL     1       1.825   2.928  20.276  0.00  0.00    -0.247 NA
ENDBRANCH  42  44
ENDBRANCH  33  40
ENDBRANCH  31  33
ENDBRANCH  28  29
BRANCH  28  50
ATOM     50  C   UNL     1       5.723   0.417  27.560  0.00  0.00    -0.011 C 
ATOM     51  C   UNL     1       4.411   0.863  28.251  0.00  0.00    +0.013 C 
ATOM     52  C   UNL     1       6.892   0.876  28.464  0.00  0.00    +0.013 C 
ATOM     53  C   UNL     1       5.710  -1.123  27.499  0.00  0.00    +0.013 C 
ENDBRANCH  28  50
ENDBRANCH   3  28
TORSDOF 14
ENDMDL
MODEL 7
REMARK VINA RESULT:      -6.2      2.672      9.627
REMARK  Name = 
REMARK  18 active torsions:
REMARK  status: ('A' for Active; 'I' for Inactive)
REMARK    1  A    between atoms: C_1  and  C_2
REMARK    2  A    between atoms: C_2  and  C_3
REMARK    3  A    between atoms: C_3  and  C_4
REMARK    4  A    between atoms: C_4  and  C_5
REMARK    5  A    between atoms: C_4  and  N_13
REMARK    6  A    between atoms: C_5  and  C_7
REMARK    7  A    between atoms: N_9  and  C_10
REMARK    8  A    between atoms: C_14  and  C_16
REMARK    9  A    between atoms: C_27  and  C_29
REMARK   10  A    between atoms: C_29  and  C_31
REMARK   11  A    between atoms: C_29  and  N_35
REMARK   12  A    between atoms: C_31  and  C_32
REMARK   13  A    between atoms: C_31  and  C_33
REMARK   14  A    between atoms: C_31  and  C_34
REMARK   15  A    between atoms: C_36  and  C_38
REMARK   16  A    between atoms: C_38  and  C_39
REMARK   17  A    between atoms: C_38  and  N_45
REMARK   18  A    between atoms: C_46  and  C_48
REMARK                            x       y       z     vdW  Elec       q    Type
REMARK                         _______ _______ _______ _____ _____    ______ ____
ROOT
ATOM      1  C   UNL     1       8.427   1.454  24.142  0.00  0.00    +0.165 C 
ATOM      2  N   UNL     1       7.100   1.212  24.738  0.00  0.00    -0.288 N 
ATOM      3  C   UNL     1       6.796   1.641  26.022  0.00  0.00    +0.237 C 
ATOM      4  O   UNL     1       7.510   2.493  26.556  0.00  0.00    -0.274 OA
ATOM      5  C   UNL     1       6.378   0.190  23.996  0.00  0.00    +0.112 C 
ATOM      6  C   UNL     1       7.417  -0.513  23.146  0.00  0.00    +0.012 C 
ATOM      7  C   UNL     1       8.192  -1.619  23.872  0.00  0.00    +0.005 C 
ATOM      8  C   UNL     1       9.676  -1.349  23.628  0.00  0.00    +0.001 C 
ATOM      9  C   UNL     1       9.736  -0.198  22.638  0.00  0.00    +0.006 C 
ATOM     10  C   UNL     1       8.444   0.570  22.869  0.00  0.00    +0.023 C 
ENDROOT
BRANCH   1  13
ATOM     11  N   UNL     1       7.929   3.839  23.568  0.00  0.00    -0.304 N 
ATOM     12  H   UNL     1       7.050   3.690  24.053  0.00  0.00    +0.149 HD
ATOM     13  C   UNL     1       8.870   2.848  23.659  0.00  0.00    +0.234 C 
ATOM     14  O   UNL     1      10.039   3.042  23.319  0.00  0.00    -0.274 OA
BRANCH  11  15
ATOM     15  C   UNL     1       8.312   5.202  23.169  0.00  0.00    +0.149 C 
BRANCH  15  16
ATOM     16  C   UNL     1       8.730   6.038  24.392  0.00  0.00    +0.237 C 
ATOM     17  O   UNL     1       7.971   6.583  25.194  0.00  0.00    -0.285 OA
BRANCH  16  18
ATOM     18  C   UNL     1      10.217   6.375  24.520  0.00  0.00    +0.282 C 
ATOM     19  N   UNL     1      10.959   5.870  23.470  0.00  0.00    -0.306 N 
ATOM     20  H   UNL     1      10.433   5.352  22.766  0.00  0.00    +0.149 HD
ATOM     21  O   UNL     1      10.658   6.974  25.489  0.00  0.00    -0.267 OA
BRANCH  19  22
ATOM     22  C   UNL     1      12.376   5.967  23.377  0.00  0.00    +0.073 C 
ATOM     23  C   UNL     1      13.074   5.647  22.079  0.00  0.00    +0.024 C 
ATOM     24  C   UNL     1      13.218   4.725  23.258  0.00  0.00    +0.024 C 
ENDBRANCH  19  22
ENDBRANCH  16  18
ENDBRANCH  15  16
BRANCH  15  25
ATOM     25  C   UNL     1       7.220   5.865  22.303  0.00  0.00    +0.030 C 
BRANCH  25  27
ATOM     26  C   UNL     1       4.907   6.757  22.743  0.00  0.00    +0.004 C 
ATOM     27  C   UNL     1       5.782   5.512  22.697  0.00  0.00    -0.001 C 
ENDBRANCH  25  27
ENDBRANCH  15  25
ENDBRANCH  11  15
ENDBRANCH   1  13
BRANCH   3  28
ATOM     28  C   UNL     1       5.576   0.988  26.773  0.00  0.00    +0.164 C 
BRANCH  28  29
ATOM     29  N   UNL     1       5.794  -0.470  26.937  0.00  0.00    -0.302 N 
ATOM     30  H   UNL     1       6.759  -0.806  26.963  0.00  0.00    +0.150 HD
ATOM     31  C   UNL     1       4.813  -1.422  26.729  0.00  0.00    +0.234 C 
ATOM     32  O   UNL     1       3.696  -1.117  26.310  0.00  0.00    -0.274 OA
BRANCH  31  33
ATOM     33  C   UNL     1       5.208  -2.911  27.034  0.00  0.00    +0.162 C 
BRANCH  33  34
ATOM     34  C   UNL     1       4.087  -3.598  27.895  0.00  0.00    +0.018 C 
ATOM     35  C   UNL     1       4.557  -4.113  29.273  0.00  0.00    +0.006 C 
ATOM     36  C   UNL     1       5.459  -5.335  29.174  0.00  0.00    +0.000 C 
ATOM     37  C   UNL     1       4.764  -6.481  28.455  0.00  0.00    +0.000 C 
ATOM     38  C   UNL     1       4.165  -6.061  27.115  0.00  0.00    +0.000 C 
ATOM     39  C   UNL     1       3.358  -4.762  27.188  0.00  0.00    +0.006 C 
ENDBRANCH  33  34
BRANCH  33  40
ATOM     40  N   UNL     1       5.377  -3.635  25.760  0.00  0.00    -0.298 N 
ATOM     41  H   UNL     1       4.588  -3.724  25.124  0.00  0.00    +0.150 HD
ATOM     42  C   UNL     1       6.511  -4.335  25.411  0.00  0.00    +0.264 C 
ATOM     43  O   UNL     1       7.519  -4.368  26.108  0.00  0.00    -0.268 OA
BRANCH  42  44
ATOM     44  C   UNL     1       6.457  -5.026  24.084  0.00  0.00    +0.143 A 
ATOM     45  C   UNL     1       7.631  -5.307  23.398  0.00  0.00    +0.143 A 
ATOM     46  N   UNL     1       7.638  -5.884  22.168  0.00  0.00    -0.259 NA
ATOM     47  C   UNL     1       6.420  -6.173  21.657  0.00  0.00    +0.130 A 
ATOM     48  C   UNL     1       5.245  -5.894  22.340  0.00  0.00    +0.131 A 
ATOM     49  N   UNL     1       5.227  -5.309  23.567  0.00  0.00    -0.247 NA
ENDBRANCH  42  44
ENDBRANCH  33  40
ENDBRANCH  31  33
ENDBRANCH  28  29
BRANCH  28  50
ATOM     50  C   UNL     1       5.225   1.673  28.150  0.00  0.00    -0.011 C 
ATOM     51  C   UNL     1       5.297   3.211  27.991  0.00  0.00    +0.013 C 
ATOM     52  C   UNL     1       6.259   1.278  29.230  0.00  0.00    +0.013 C 
ATOM     53  C   UNL     1       3.811   1.328  28.661  0.00  0.00    +0.013 C 
ENDBRANCH  28  50
ENDBRANCH   3  28
TORSDOF 14
ENDMDL
MODEL 8
REMARK VINA RESULT:      -6.1      2.285      4.716
REMARK  Name = 
REMARK  18 active torsions:
REMARK  status: ('A' for Active; 'I' for Inactive)
REMARK    1  A    between atoms: C_1  and  C_2
REMARK    2  A    between atoms: C_2  and  C_3
REMARK    3  A    between atoms: C_3  and  C_4
REMARK    4  A    between atoms: C_4  and  C_5
REMARK    5  A    between atoms: C_4  and  N_13
REMARK    6  A    between atoms: C_5  and  C_7
REMARK    7  A    between atoms: N_9  and  C_10
REMARK    8  A    between atoms: C_14  and  C_16
REMARK    9  A    between atoms: C_27  and  C_29
REMARK   10  A    between atoms: C_29  and  C_31
REMARK   11  A    between atoms: C_29  and  N_35
REMARK   12  A    between atoms: C_31  and  C_32
REMARK   13  A    between atoms: C_31  and  C_33
REMARK   14  A    between atoms: C_31  and  C_34
REMARK   15  A    between atoms: C_36  and  C_38
REMARK   16  A    between atoms: C_38  and  C_39
REMARK   17  A    between atoms: C_38  and  N_45
REMARK   18  A    between atoms: C_46  and  C_48
REMARK                            x       y       z     vdW  Elec       q    Type
REMARK                         _______ _______ _______ _____ _____    ______ ____
ROOT
ATOM      1  C   UNL     1       6.005  -1.844  26.963  0.00  0.00    +0.165 C 
ATOM      2  N   UNL     1       6.083  -0.371  26.940  0.00  0.00    -0.288 N 
ATOM      3  C   UNL     1       7.063   0.312  27.645  0.00  0.00    +0.237 C 
ATOM      4  O   UNL     1       8.058  -0.301  28.039  0.00  0.00    -0.274 OA
ATOM      5  C   UNL     1       4.840   0.204  26.446  0.00  0.00    +0.112 C 
ATOM      6  C   UNL     1       3.812  -0.906  26.529  0.00  0.00    +0.012 C 
ATOM      7  C   UNL     1       3.162  -1.071  27.908  0.00  0.00    +0.005 C 
ATOM      8  C   UNL     1       3.272  -2.552  28.270  0.00  0.00    +0.001 C 
ATOM      9  C   UNL     1       3.829  -3.245  27.039  0.00  0.00    +0.006 C 
ATOM     10  C   UNL     1       4.630  -2.167  26.326  0.00  0.00    +0.023 C 
ENDROOT
BRANCH   1  13
ATOM     11  N   UNL     1       7.066  -2.641  24.841  0.00  0.00    -0.304 N 
ATOM     12  H   UNL     1       6.635  -1.829  24.413  0.00  0.00    +0.149 HD
ATOM     13  C   UNL     1       7.010  -2.733  26.206  0.00  0.00    +0.234 C 
ATOM     14  O   UNL     1       7.708  -3.540  26.823  0.00  0.00    -0.274 OA
BRANCH  11  15
ATOM     15  C   UNL     1       8.048  -3.426  24.077  0.00  0.00    +0.149 C 
BRANCH  15  16
ATOM     16  C   UNL     1       9.358  -2.639  23.892  0.00  0.00    +0.237 C 
ATOM     17  O   UNL     1      10.485  -3.120  23.772  0.00  0.00    -0.285 OA
BRANCH  16  18
ATOM     18  C   UNL     1       9.277  -1.119  24.056  0.00  0.00    +0.282 C 
ATOM     19  N   UNL     1       8.940  -0.485  22.876  0.00  0.00    -0.306 N 
ATOM     20  H   UNL     1       8.795  -1.094  22.072  0.00  0.00    +0.149 HD
ATOM     21  O   UNL     1       9.546  -0.573  25.114  0.00  0.00    -0.267 OA
BRANCH  19  22
ATOM     22  C   UNL     1       8.874   0.929  22.724  0.00  0.00    +0.073 C 
ATOM     23  C   UNL     1       8.538   1.532  21.382  0.00  0.00    +0.024 C 
ATOM     24  C   UNL     1       9.930   1.661  21.939  0.00  0.00    +0.024 C 
ENDBRANCH  19  22
ENDBRANCH  16  18
ENDBRANCH  15  16
BRANCH  15  25
ATOM     25  C   UNL     1       7.446  -3.954  22.758  0.00  0.00    +0.030 C 
BRANCH  25  27
ATOM     26  C   UNL     1       6.543  -6.159  21.945  0.00  0.00    +0.004 C 
ATOM     27  C   UNL     1       6.350  -5.012  22.927  0.00  0.00    -0.001 C 
ENDBRANCH  25  27
ENDBRANCH  15  25
ENDBRANCH  11  15
ENDBRANCH   1  13
BRANCH   3  28
ATOM     28  C   UNL     1       6.848   1.839  27.961  0.00  0.00    +0.164 C 
BRANCH  28  29
ATOM     29  N   UNL     1       6.569   2.587  26.710  0.00  0.00    -0.302 N 
ATOM     30  H   UNL     1       6.278   2.051  25.890  0.00  0.00    +0.150 HD
ATOM     31  C   UNL     1       6.982   3.887  26.484  0.00  0.00    +0.234 C 
ATOM     32  O   UNL     1       7.690   4.490  27.291  0.00  0.00    -0.274 OA
BRANCH  31  33
ATOM     33  C   UNL     1       6.519   4.543  25.134  0.00  0.00    +0.162 C 
BRANCH  33  34
ATOM     34  C   UNL     1       7.507   4.149  23.978  0.00  0.00    +0.018 C 
ATOM     35  C   UNL     1       9.003   4.206  24.361  0.00  0.00    +0.006 C 
ATOM     36  C   UNL     1       9.516   5.627  24.537  0.00  0.00    +0.000 C 
ATOM     37  C   UNL     1       9.322   6.448  23.271  0.00  0.00    +0.000 C 
ATOM     38  C   UNL     1       7.893   6.383  22.738  0.00  0.00    +0.000 C 
ATOM     39  C   UNL     1       7.329   4.961  22.676  0.00  0.00    +0.006 C 
ENDBRANCH  33  34
BRANCH  33  40
ATOM     40  N   UNL     1       5.158   4.074  24.813  0.00  0.00    -0.298 N 
ATOM     41  H   UNL     1       4.988   3.079  24.680  0.00  0.00    +0.150 HD
ATOM     42  C   UNL     1       4.095   4.906  24.540  0.00  0.00    +0.264 C 
ATOM     43  O   UNL     1       4.168   6.129  24.602  0.00  0.00    -0.268 OA
BRANCH  42  44
ATOM     44  C   UNL     1       2.808   4.218  24.205  0.00  0.00    +0.143 A 
ATOM     45  C   UNL     1       2.739   3.364  23.113  0.00  0.00    +0.143 A 
ATOM     46  N   UNL     1       1.585   2.755  22.733  0.00  0.00    -0.259 NA
ATOM     47  C   UNL     1       0.505   3.034  23.496  0.00  0.00    +0.130 A 
ATOM     48  C   UNL     1       0.570   3.887  24.589  0.00  0.00    +0.131 A 
ATOM     49  N   UNL     1       1.718   4.507  24.972  0.00  0.00    -0.247 NA
ENDBRANCH  42  44
ENDBRANCH  33  40
ENDBRANCH  31  33
ENDBRANCH  28  29
BRANCH  28  50
ATOM     50  C   UNL     1       5.749   2.123  29.055  0.00  0.00    -0.011 C 
ATOM     51  C   UNL     1       4.455   2.621  28.366  0.00  0.00    +0.013 C 
ATOM     52  C   UNL     1       6.216   3.246  30.012  0.00  0.00    +0.013 C 
ATOM     53  C   UNL     1       5.378   0.879  29.886  0.00  0.00    +0.013 C 
ENDBRANCH  28  50
ENDBRANCH   3  28
TORSDOF 14
ENDMDL
MODEL 9
REMARK VINA RESULT:      -6.1      2.296      9.790
REMARK  Name = 
REMARK  18 active torsions:
REMARK  status: ('A' for Active; 'I' for Inactive)
REMARK    1  A    between atoms: C_1  and  C_2
REMARK    2  A    between atoms: C_2  and  C_3
REMARK    3  A    between atoms: C_3  and  C_4
REMARK    4  A    between atoms: C_4  and  C_5
REMARK    5  A    between atoms: C_4  and  N_13
REMARK    6  A    between atoms: C_5  and  C_7
REMARK    7  A    between atoms: N_9  and  C_10
REMARK    8  A    between atoms: C_14  and  C_16
REMARK    9  A    between atoms: C_27  and  C_29
REMARK   10  A    between atoms: C_29  and  C_31
REMARK   11  A    between atoms: C_29  and  N_35
REMARK   12  A    between atoms: C_31  and  C_32
REMARK   13  A    between atoms: C_31  and  C_33
REMARK   14  A    between atoms: C_31  and  C_34
REMARK   15  A    between atoms: C_36  and  C_38
REMARK   16  A    between atoms: C_38  and  C_39
REMARK   17  A    between atoms: C_38  and  N_45
REMARK   18  A    between atoms: C_46  and  C_48
REMARK                            x       y       z     vdW  Elec       q    Type
REMARK                         _______ _______ _______ _____ _____    ______ ____
ROOT
ATOM      1  C   UNL     1       5.318   2.665  24.529  0.00  0.00    +0.165 C 
ATOM      2  N   UNL     1       6.614   2.091  24.935  0.00  0.00    -0.288 N 
ATOM      3  C   UNL     1       7.265   1.151  24.149  0.00  0.00    +0.237 C 
ATOM      4  O   UNL     1       6.933   1.020  22.968  0.00  0.00    -0.274 OA
ATOM      5  C   UNL     1       6.867   2.333  26.347  0.00  0.00    +0.112 C 
ATOM      6  C   UNL     1       5.531   2.726  26.944  0.00  0.00    +0.012 C 
ATOM      7  C   UNL     1       4.633   1.543  27.330  0.00  0.00    +0.005 C 
ATOM      8  C   UNL     1       3.265   1.808  26.704  0.00  0.00    +0.001 C 
ATOM      9  C   UNL     1       3.338   3.204  26.109  0.00  0.00    +0.006 C 
ATOM     10  C   UNL     1       4.812   3.405  25.793  0.00  0.00    +0.023 C 
ENDROOT
BRANCH   1  13
ATOM     11  N   UNL     1       5.418   5.018  23.680  0.00  0.00    -0.304 N 
ATOM     12  H   UNL     1       5.892   5.229  24.552  0.00  0.00    +0.149 HD
ATOM     13  C   UNL     1       5.195   3.698  23.393  0.00  0.00    +0.234 C 
ATOM     14  O   UNL     1       4.856   3.337  22.263  0.00  0.00    -0.274 OA
BRANCH  11  15
ATOM     15  C   UNL     1       5.371   6.035  22.618  0.00  0.00    +0.149 C 
BRANCH  15  16
ATOM     16  C   UNL     1       6.772   6.611  22.344  0.00  0.00    +0.237 C 
ATOM     17  O   UNL     1       7.182   7.043  21.267  0.00  0.00    -0.285 OA
BRANCH  16  18
ATOM     18  C   UNL     1       7.808   6.463  23.462  0.00  0.00    +0.282 C 
ATOM     19  N   UNL     1       9.040   6.064  22.981  0.00  0.00    -0.306 N 
ATOM     20  H   UNL     1       9.096   5.921  21.973  0.00  0.00    +0.149 HD
ATOM     21  O   UNL     1       7.514   6.634  24.634  0.00  0.00    -0.267 OA
BRANCH  19  22
ATOM     22  C   UNL     1      10.160   5.773  23.809  0.00  0.00    +0.073 C 
ATOM     23  C   UNL     1      11.535   5.640  23.204  0.00  0.00    +0.024 C 
ATOM     24  C   UNL     1      10.829   4.426  23.740  0.00  0.00    +0.024 C 
ENDBRANCH  19  22
ENDBRANCH  16  18
ENDBRANCH  15  16
BRANCH  15  25
ATOM     25  C   UNL     1       4.301   7.108  22.912  0.00  0.00    +0.030 C 
BRANCH  25  27
ATOM     26  C   UNL     1       2.571   6.103  21.384  0.00  0.00    +0.004 C 
ATOM     27  C   UNL     1       2.852   6.626  22.786  0.00  0.00    -0.001 C 
ENDBRANCH  25  27
ENDBRANCH  15  25
ENDBRANCH  11  15
ENDBRANCH   1  13
BRANCH   3  28
ATOM     28  C   UNL     1       8.377   0.249  24.805  0.00  0.00    +0.164 C 
BRANCH  28  29
ATOM     29  N   UNL     1       7.812  -1.072  25.177  0.00  0.00    -0.302 N 
ATOM     30  H   UNL     1       7.392  -1.635  24.435  0.00  0.00    +0.150 HD
ATOM     31  C   UNL     1       7.523  -1.444  26.477  0.00  0.00    +0.234 C 
ATOM     32  O   UNL     1       7.643  -0.658  27.417  0.00  0.00    -0.274 OA
BRANCH  31  33
ATOM     33  C   UNL     1       7.011  -2.915  26.684  0.00  0.00    +0.162 C 
BRANCH  33  34
ATOM     34  C   UNL     1       5.710  -2.912  27.565  0.00  0.00    +0.018 C 
ATOM     35  C   UNL     1       5.284  -4.300  28.092  0.00  0.00    +0.006 C 
ATOM     36  C   UNL     1       4.739  -5.207  26.999  0.00  0.00    +0.000 C 
ATOM     37  C   UNL     1       3.541  -4.580  26.303  0.00  0.00    +0.000 C 
ATOM     38  C   UNL     1       3.814  -3.156  25.826  0.00  0.00    +0.000 C 
ATOM     39  C   UNL     1       4.477  -2.274  26.886  0.00  0.00    +0.006 C 
ENDBRANCH  33  34
BRANCH  33  40
ATOM     40  N   UNL     1       6.724  -3.515  25.367  0.00  0.00    -0.298 N 
ATOM     41  H   UNL     1       5.936  -3.174  24.821  0.00  0.00    +0.150 HD
ATOM     42  C   UNL     1       7.372  -4.620  24.861  0.00  0.00    +0.264 C 
ATOM     43  O   UNL     1       8.302  -5.174  25.438  0.00  0.00    -0.268 OA
BRANCH  42  44
ATOM     44  C   UNL     1       6.900  -5.084  23.518  0.00  0.00    +0.143 A 
ATOM     45  C   UNL     1       5.546  -5.069  23.214  0.00  0.00    +0.143 A 
ATOM     46  N   UNL     1       5.058  -5.527  22.030  0.00  0.00    -0.259 NA
ATOM     47  C   UNL     1       5.984  -5.996  21.165  0.00  0.00    +0.130 A 
ATOM     48  C   UNL     1       7.339  -6.013  21.467  0.00  0.00    +0.131 A 
ATOM     49  N   UNL     1       7.836  -5.564  22.650  0.00  0.00    -0.247 NA
ENDBRANCH  42  44
ENDBRANCH  33  40
ENDBRANCH  31  33
ENDBRANCH  28  29
BRANCH  28  50
ATOM     50  C   UNL     1       9.678   0.090  23.930  0.00  0.00    -0.011 C 
ATOM     51  C   UNL     1       9.771  -1.365  23.410  0.00  0.00    +0.013 C 
ATOM     52  C   UNL     1      10.941   0.349  24.785  0.00  0.00    +0.013 C 
ATOM     53  C   UNL     1       9.706   1.020  22.701  0.00  0.00    +0.013 C 
ENDBRANCH  28  50
ENDBRANCH   3  28
TORSDOF 14
ENDMDL
