MODEL 1
REMARK VINA RESULT:      -8.4      0.000      0.000
REMARK  Name = 
REMARK  5 active torsions:
REMARK  status: ('A' for Active; 'I' for Inactive)
REMARK    1  A    between atoms: C_1  and  C_2
REMARK    2  A    between atoms: C_13  and  O_32
REMARK    3  A    between atoms: C_16  and  C_20
REMARK    4  A    between atoms: N_22  and  C_23
REMARK    5  A    between atoms: C_23  and  C_24
REMARK                            x       y       z     vdW  Elec       q    Type
REMARK                         _______ _______ _______ _____ _____    ______ ____
ROOT
ATOM      1  C   UNL     1       9.477  -5.666  25.242  0.00  0.00    +0.028 C 
ATOM      2  C   UNL     1       8.642  -4.572  25.924  0.00  0.00    +0.078 C 
ATOM      3  N   UNL     1       8.007  -3.612  25.006  0.00  0.00    -0.266 N 
ATOM      4  C   UNL     1       8.815  -2.865  24.161  0.00  0.00    +0.269 C 
ATOM      5  C   UNL     1       8.225  -1.620  23.534  0.00  0.00    +0.151 A 
ATOM      6  N   UNL     1       6.925  -1.206  23.882  0.00  0.00    -0.335 N 
ATOM      7  C   UNL     1       6.131  -1.986  24.844  0.00  0.00    +0.173 C 
ATOM      8  C   UNL     1       6.577   0.124  23.618  0.00  0.00    +0.103 A 
ATOM      9  C   UNL     1       7.301   0.972  22.871  0.00  0.00    +0.103 A 
ATOM     10  C   UNL     1       8.478   0.381  22.186  0.00  0.00    +0.236 A 
ATOM     11  O   UNL     1       8.997   0.917  21.212  0.00  0.00    -0.283 OA
ATOM     12  C   UNL     1       9.038  -0.890  22.747  0.00  0.00    +0.194 A 
ATOM     13  O   UNL     1      10.004  -3.127  23.966  0.00  0.00    -0.268 OA
ATOM     14  C   UNL     1       6.554  -3.468  24.904  0.00  0.00    +0.228 C 
ATOM     15  O   UNL     1       5.861  -4.007  26.029  0.00  0.00    -0.357 OA
ATOM     16  C   UNL     1       6.285  -5.299  26.413  0.00  0.00    +0.164 C 
ATOM     17  C   UNL     1       7.689  -5.189  26.946  0.00  0.00    +0.050 C 
ENDROOT
BRANCH   9  18
ATOM     18  C   UNL     1       6.857   2.389  22.782  0.00  0.00    +0.250 C 
ATOM     19  N   UNL     1       7.356   3.328  23.650  0.00  0.00    -0.307 N 
ATOM     20  H   UNL     1       7.017   4.262  23.462  0.00  0.00    +0.149 HD
ATOM     21  O   UNL     1       5.968   2.718  21.998  0.00  0.00    -0.270 OA
BRANCH  19  22
ATOM     22  C   UNL     1       8.456   3.181  24.582  0.00  0.00    +0.142 C 
BRANCH  22  23
ATOM     23  C   UNL     1       9.672   3.984  24.226  0.00  0.00    +0.005 A 
ATOM     24  C   UNL     1       9.645   5.387  24.307  0.00  0.00    +0.011 A 
ATOM     25  C   UNL     1      10.735   6.130  23.862  0.00  0.00    +0.039 A 
ATOM     26  C   UNL     1      11.849   5.476  23.343  0.00  0.00    +0.126 A 
ATOM     27  F   UNL     1      12.884   6.194  22.898  0.00  0.00    -0.205 F 
ATOM     28  C   UNL     1      11.899   4.088  23.270  0.00  0.00    +0.077 A 
ATOM     29  C   UNL     1      10.815   3.347  23.708  0.00  0.00    +0.131 A 
ATOM     30  F   UNL     1      10.834   2.019  23.595  0.00  0.00    -0.205 F 
ENDBRANCH  22  23
ENDBRANCH  19  22
ENDBRANCH   9  18
BRANCH  12  31
ATOM     31  O   UNL     1      10.349  -1.201  22.412  0.00  0.00    -0.502 OA
ATOM     32  H   UNL     1      10.477  -2.166  22.546  0.00  0.00    +0.292 HD
ENDBRANCH  12  31
TORSDOF 4
ENDMDL
MODEL 2
REMARK VINA RESULT:      -8.3      3.278      8.516
REMARK  Name = 
REMARK  5 active torsions:
REMARK  status: ('A' for Active; 'I' for Inactive)
REMARK    1  A    between atoms: C_1  and  C_2
REMARK    2  A    between atoms: C_13  and  O_32
REMARK    3  A    between atoms: C_16  and  C_20
REMARK    4  A    between atoms: N_22  and  C_23
REMARK    5  A    between atoms: C_23  and  C_24
REMARK                            x       y       z     vdW  Elec       q    Type
REMARK                         _______ _______ _______ _____ _____    ______ ____
ROOT
ATOM      1  C   UNL     1       7.573   2.969  22.184  0.00  0.00    +0.028 C 
ATOM      2  C   UNL     1       8.262   2.389  23.428  0.00  0.00    +0.078 C 
ATOM      3  N   UNL     1       8.713   0.993  23.295  0.00  0.00    -0.266 N 
ATOM      4  C   UNL     1       7.772   0.014  23.011  0.00  0.00    +0.269 C 
ATOM      5  C   UNL     1       8.148  -1.428  23.278  0.00  0.00    +0.151 A 
ATOM      6  N   UNL     1       9.385  -1.732  23.878  0.00  0.00    -0.335 N 
ATOM      7  C   UNL     1      10.320  -0.655  24.236  0.00  0.00    +0.173 C 
ATOM      8  C   UNL     1       9.522  -2.992  24.473  0.00  0.00    +0.103 A 
ATOM      9  C   UNL     1       8.653  -4.005  24.333  0.00  0.00    +0.103 A 
ATOM     10  C   UNL     1       7.551  -3.778  23.364  0.00  0.00    +0.236 A 
ATOM     11  O   UNL     1       6.922  -4.708  22.868  0.00  0.00    -0.283 OA
ATOM     12  C   UNL     1       7.207  -2.359  23.031  0.00  0.00    +0.194 A 
ATOM     13  O   UNL     1       6.628   0.273  22.630  0.00  0.00    -0.268 OA
ATOM     14  C   UNL     1      10.124   0.615  23.383  0.00  0.00    +0.228 C 
ATOM     15  O   UNL     1      10.930   1.611  24.008  0.00  0.00    -0.357 OA
ATOM     16  C   UNL     1      10.718   2.923  23.528  0.00  0.00    +0.164 C 
ATOM     17  C   UNL     1       9.333   3.350  23.940  0.00  0.00    +0.050 C 
ENDROOT
BRANCH   9  18
ATOM     18  C   UNL     1       8.879  -5.244  25.126  0.00  0.00    +0.250 C 
ATOM     19  N   UNL     1       8.215  -5.439  26.310  0.00  0.00    -0.307 N 
ATOM     20  H   UNL     1       8.414  -6.336  26.733  0.00  0.00    +0.149 HD
ATOM     21  O   UNL     1       9.733  -6.060  24.782  0.00  0.00    -0.270 OA
BRANCH  19  22
ATOM     22  C   UNL     1       7.119  -4.662  26.854  0.00  0.00    +0.142 C 
BRANCH  22  23
ATOM     23  C   UNL     1       5.777  -5.010  26.283  0.00  0.00    +0.005 A 
ATOM     24  C   UNL     1       5.374  -6.354  26.186  0.00  0.00    +0.011 A 
ATOM     25  C   UNL     1       4.180  -6.677  25.547  0.00  0.00    +0.039 A 
ATOM     26  C   UNL     1       3.390  -5.665  25.011  0.00  0.00    +0.126 A 
ATOM     27  F   UNL     1       2.255  -5.982  24.380  0.00  0.00    -0.205 F 
ATOM     28  C   UNL     1       3.765  -4.329  25.112  0.00  0.00    +0.077 A 
ATOM     29  C   UNL     1       4.953  -4.005  25.743  0.00  0.00    +0.131 A 
ATOM     30  F   UNL     1       5.345  -2.733  25.800  0.00  0.00    -0.205 F 
ENDBRANCH  22  23
ENDBRANCH  19  22
ENDBRANCH   9  18
BRANCH  12  31
ATOM     31  O   UNL     1       5.945  -2.126  22.501  0.00  0.00    -0.502 OA
ATOM     32  H   UNL     1       5.287  -2.221  23.224  0.00  0.00    +0.292 HD
ENDBRANCH  12  31
TORSDOF 4
ENDMDL
MODEL 3
REMARK VINA RESULT:      -8.3      3.139      7.833
REMARK  Name = 
REMARK  5 active torsions:
REMARK  status: ('A' for Active; 'I' for Inactive)
REMARK    1  A    between atoms: C_1  and  C_2
REMARK    2  A    between atoms: C_13  and  O_32
REMARK    3  A    between atoms: C_16  and  C_20
REMARK    4  A    between atoms: N_22  and  C_23
REMARK    5  A    between atoms: C_23  and  C_24
REMARK                            x       y       z     vdW  Elec       q    Type
REMARK                         _______ _______ _______ _____ _____    ______ ____
ROOT
ATOM      1  C   UNL     1      10.212   2.361  22.184  0.00  0.00    +0.028 C 
ATOM      2  C   UNL     1       8.895   2.063  22.915  0.00  0.00    +0.078 C 
ATOM      3  N   UNL     1       8.985   1.029  23.959  0.00  0.00    -0.266 N 
ATOM      4  C   UNL     1       9.403  -0.245  23.600  0.00  0.00    +0.269 C 
ATOM      5  C   UNL     1       9.107  -1.383  24.553  0.00  0.00    +0.151 A 
ATOM      6  N   UNL     1       8.352  -1.145  25.718  0.00  0.00    -0.335 N 
ATOM      7  C   UNL     1       7.860   0.207  26.020  0.00  0.00    +0.173 C 
ATOM      8  C   UNL     1       7.760  -2.251  26.341  0.00  0.00    +0.103 A 
ATOM      9  C   UNL     1       8.027  -3.532  26.045  0.00  0.00    +0.103 A 
ATOM     10  C   UNL     1       9.131  -3.752  25.076  0.00  0.00    +0.236 A 
ATOM     11  O   UNL     1       9.717  -4.827  24.995  0.00  0.00    -0.283 OA
ATOM     12  C   UNL     1       9.489  -2.615  24.168  0.00  0.00    +0.194 A 
ATOM     13  O   UNL     1       9.929  -0.497  22.514  0.00  0.00    -0.268 OA
ATOM     14  C   UNL     1       8.716   1.313  25.369  0.00  0.00    +0.228 C 
ATOM     15  O   UNL     1       7.977   2.517  25.563  0.00  0.00    -0.357 OA
ATOM     16  C   UNL     1       8.464   3.627  24.837  0.00  0.00    +0.164 C 
ATOM     17  C   UNL     1       8.233   3.362  23.372  0.00  0.00    +0.050 C 
ENDROOT
BRANCH   9  18
ATOM     18  C   UNL     1       7.227  -4.593  26.715  0.00  0.00    +0.250 C 
ATOM     19  N   UNL     1       5.879  -4.696  26.480  0.00  0.00    -0.307 N 
ATOM     20  H   UNL     1       5.453  -5.482  26.954  0.00  0.00    +0.149 HD
ATOM     21  O   UNL     1       7.741  -5.326  27.558  0.00  0.00    -0.270 OA
BRANCH  19  22
ATOM     22  C   UNL     1       5.095  -4.003  25.477  0.00  0.00    +0.142 C 
BRANCH  22  23
ATOM     23  C   UNL     1       5.351  -4.465  24.073  0.00  0.00    +0.005 A 
ATOM     24  C   UNL     1       5.303  -5.835  23.757  0.00  0.00    +0.011 A 
ATOM     25  C   UNL     1       5.658  -6.265  22.482  0.00  0.00    +0.039 A 
ATOM     26  C   UNL     1       6.054  -5.336  21.525  0.00  0.00    +0.126 A 
ATOM     27  F   UNL     1       6.412  -5.757  20.309  0.00  0.00    -0.205 F 
ATOM     28  C   UNL     1       6.091  -3.976  21.815  0.00  0.00    +0.077 A 
ATOM     29  C   UNL     1       5.743  -3.544  23.084  0.00  0.00    +0.131 A 
ATOM     30  F   UNL     1       5.823  -2.249  23.387  0.00  0.00    -0.205 F 
ENDBRANCH  22  23
ENDBRANCH  19  22
ENDBRANCH   9  18
BRANCH  12  31
ATOM     31  O   UNL     1      10.178  -2.932  23.006  0.00  0.00    -0.502 OA
ATOM     32  H   UNL     1      10.187  -2.137  22.429  0.00  0.00    +0.292 HD
ENDBRANCH  12  31
TORSDOF 4
ENDMDL
MODEL 4
REMARK VINA RESULT:      -8.1      3.327      5.510
REMARK  Name = 
REMARK  5 active torsions:
REMARK  status: ('A' for Active; 'I' for Inactive)
REMARK    1  A    between atoms: C_1  and  C_2
REMARK    2  A    between atoms: C_13  and  O_32
REMARK    3  A    between atoms: C_16  and  C_20
REMARK    4  A    between atoms: N_22  and  C_23
REMARK    5  A    between atoms: C_23  and  C_24
REMARK                            x       y       z     vdW  Elec       q    Type
REMARK                         _______ _______ _______ _____ _____    ______ ____
ROOT
ATOM      1  C   UNL     1       3.137  -7.362  26.065  0.00  0.00    +0.028 C 
ATOM      2  C   UNL     1       3.226  -5.932  25.513  0.00  0.00    +0.078 C 
ATOM      3  N   UNL     1       4.456  -5.631  24.762  0.00  0.00    -0.266 N 
ATOM      4  C   UNL     1       5.678  -5.762  25.407  0.00  0.00    +0.269 C 
ATOM      5  C   UNL     1       6.880  -5.076  24.793  0.00  0.00    +0.151 A 
ATOM      6  N   UNL     1       6.720  -4.264  23.653  0.00  0.00    -0.335 N 
ATOM      7  C   UNL     1       5.391  -4.090  23.048  0.00  0.00    +0.173 C 
ATOM      8  C   UNL     1       7.735  -3.344  23.368  0.00  0.00    +0.103 A 
ATOM      9  C   UNL     1       8.938  -3.319  23.963  0.00  0.00    +0.103 A 
ATOM     10  C   UNL     1       9.221  -4.446  24.888  0.00  0.00    +0.236 A 
ATOM     11  O   UNL     1      10.366  -4.753  25.204  0.00  0.00    -0.283 OA
ATOM     12  C   UNL     1       8.048  -5.185  25.455  0.00  0.00    +0.194 A 
ATOM     13  O   UNL     1       5.807  -6.340  26.488  0.00  0.00    -0.268 OA
ATOM     14  C   UNL     1       4.440  -5.268  23.345  0.00  0.00    +0.228 C 
ATOM     15  O   UNL     1       3.158  -4.832  22.896  0.00  0.00    -0.357 OA
ATOM     16  C   UNL     1       2.086  -5.666  23.287  0.00  0.00    +0.164 C 
ATOM     17  C   UNL     1       1.937  -5.562  24.782  0.00  0.00    +0.050 C 
ENDROOT
BRANCH   9  18
ATOM     18  C   UNL     1       9.866  -2.204  23.633  0.00  0.00    +0.250 C 
ATOM     19  N   UNL     1       9.840  -1.042  24.363  0.00  0.00    -0.307 N 
ATOM     20  H   UNL     1      10.546  -0.378  24.076  0.00  0.00    +0.149 HD
ATOM     21  O   UNL     1      10.597  -2.269  22.647  0.00  0.00    -0.270 OA
BRANCH  19  22
ATOM     22  C   UNL     1       9.129  -0.784  25.599  0.00  0.00    +0.142 C 
BRANCH  22  23
ATOM     23  C   UNL     1       7.879   0.028  25.430  0.00  0.00    +0.005 A 
ATOM     24  C   UNL     1       6.617  -0.591  25.490  0.00  0.00    +0.011 A 
ATOM     25  C   UNL     1       5.469   0.145  25.214  0.00  0.00    +0.039 A 
ATOM     26  C   UNL     1       5.576   1.493  24.883  0.00  0.00    +0.126 A 
ATOM     27  F   UNL     1       4.473   2.190  24.599  0.00  0.00    -0.205 F 
ATOM     28  C   UNL     1       6.815   2.125  24.834  0.00  0.00    +0.077 A 
ATOM     29  C   UNL     1       7.960   1.394  25.105  0.00  0.00    +0.131 A 
ATOM     30  F   UNL     1       9.153   1.978  25.011  0.00  0.00    -0.205 F 
ENDBRANCH  22  23
ENDBRANCH  19  22
ENDBRANCH   9  18
BRANCH  12  31
ATOM     31  O   UNL     1       8.265  -5.913  26.616  0.00  0.00    -0.502 OA
ATOM     32  H   UNL     1       7.466  -5.831  27.183  0.00  0.00    +0.292 HD
ENDBRANCH  12  31
TORSDOF 4
ENDMDL
MODEL 5
REMARK VINA RESULT:      -8.1      3.237      5.544
REMARK  Name = 
REMARK  5 active torsions:
REMARK  status: ('A' for Active; 'I' for Inactive)
REMARK    1  A    between atoms: C_1  and  C_2
REMARK    2  A    between atoms: C_13  and  O_32
REMARK    3  A    between atoms: C_16  and  C_20
REMARK    4  A    between atoms: N_22  and  C_23
REMARK    5  A    between atoms: C_23  and  C_24
REMARK                            x       y       z     vdW  Elec       q    Type
REMARK                         _______ _______ _______ _____ _____    ______ ____
ROOT
ATOM      1  C   UNL     1       1.280  -7.511  25.645  0.00  0.00    +0.028 C 
ATOM      2  C   UNL     1       2.440  -7.169  26.590  0.00  0.00    +0.078 C 
ATOM      3  N   UNL     1       3.366  -6.138  26.091  0.00  0.00    -0.266 N 
ATOM      4  C   UNL     1       4.033  -6.366  24.895  0.00  0.00    +0.269 C 
ATOM      5  C   UNL     1       5.259  -5.529  24.597  0.00  0.00    +0.151 A 
ATOM      6  N   UNL     1       5.737  -4.617  25.557  0.00  0.00    -0.335 N 
ATOM      7  C   UNL     1       5.043  -4.464  26.845  0.00  0.00    +0.173 C 
ATOM      8  C   UNL     1       7.060  -4.179  25.429  0.00  0.00    +0.103 A 
ATOM      9  C   UNL     1       7.837  -4.387  24.355  0.00  0.00    +0.103 A 
ATOM     10  C   UNL     1       7.166  -5.016  23.189  0.00  0.00    +0.236 A 
ATOM     11  O   UNL     1       7.625  -4.931  22.054  0.00  0.00    -0.283 OA
ATOM     12  C   UNL     1       5.912  -5.792  23.450  0.00  0.00    +0.194 A 
ATOM     13  O   UNL     1       3.719  -7.266  24.113  0.00  0.00    -0.268 OA
ATOM     14  C   UNL     1       3.553  -4.857  26.771  0.00  0.00    +0.228 C 
ATOM     15  O   UNL     1       3.107  -4.876  28.126  0.00  0.00    -0.357 OA
ATOM     16  C   UNL     1       1.826  -5.443  28.313  0.00  0.00    +0.164 C 
ATOM     17  C   UNL     1       1.919  -6.914  28.003  0.00  0.00    +0.050 C 
ENDROOT
BRANCH   9  18
ATOM     18  C   UNL     1       9.261  -3.961  24.420  0.00  0.00    +0.250 C 
ATOM     19  N   UNL     1       9.672  -2.819  23.779  0.00  0.00    -0.307 N 
ATOM     20  H   UNL     1      10.649  -2.608  23.935  0.00  0.00    +0.149 HD
ATOM     21  O   UNL     1      10.103  -4.674  24.963  0.00  0.00    -0.270 OA
BRANCH  19  22
ATOM     22  C   UNL     1       8.848  -1.800  23.162  0.00  0.00    +0.142 C 
BRANCH  22  23
ATOM     23  C   UNL     1       9.449  -0.425  23.190  0.00  0.00    +0.005 A 
ATOM     24  C   UNL     1       9.762   0.187  24.417  0.00  0.00    +0.011 A 
ATOM     25  C   UNL     1      10.207   1.506  24.440  0.00  0.00    +0.039 A 
ATOM     26  C   UNL     1      10.343   2.210  23.248  0.00  0.00    +0.126 A 
ATOM     27  F   UNL     1      10.751   3.481  23.278  0.00  0.00    -0.205 F 
ATOM     28  C   UNL     1      10.053   1.614  22.024  0.00  0.00    +0.077 A 
ATOM     29  C   UNL     1       9.607   0.304  21.997  0.00  0.00    +0.131 A 
ATOM     30  F   UNL     1       9.278  -0.258  20.835  0.00  0.00    -0.205 F 
ENDBRANCH  22  23
ENDBRANCH  19  22
ENDBRANCH   9  18
BRANCH  12  31
ATOM     31  O   UNL     1       5.536  -6.720  22.488  0.00  0.00    -0.502 OA
ATOM     32  H   UNL     1       4.562  -6.661  22.371  0.00  0.00    +0.292 HD
ENDBRANCH  12  31
TORSDOF 4
ENDMDL
MODEL 6
REMARK VINA RESULT:      -8.1      3.139      5.098
REMARK  Name = 
REMARK  5 active torsions:
REMARK  status: ('A' for Active; 'I' for Inactive)
REMARK    1  A    between atoms: C_1  and  C_2
REMARK    2  A    between atoms: C_13  and  O_32
REMARK    3  A    between atoms: C_16  and  C_20
REMARK    4  A    between atoms: N_22  and  C_23
REMARK    5  A    between atoms: C_23  and  C_24
REMARK                            x       y       z     vdW  Elec       q    Type
REMARK                         _______ _______ _______ _____ _____    ______ ____
ROOT
ATOM      1  C   UNL     1       5.570  -6.255  30.485  0.00  0.00    +0.028 C 
ATOM      2  C   UNL     1       5.040  -5.036  29.717  0.00  0.00    +0.078 C 
ATOM      3  N   UNL     1       5.027  -5.182  28.252  0.00  0.00    -0.266 N 
ATOM      4  C   UNL     1       6.226  -5.428  27.597  0.00  0.00    +0.269 C 
ATOM      5  C   UNL     1       6.285  -5.171  26.107  0.00  0.00    +0.151 A 
ATOM      6  N   UNL     1       5.173  -4.616  25.445  0.00  0.00    -0.335 N 
ATOM      7  C   UNL     1       3.948  -4.297  26.193  0.00  0.00    +0.173 C 
ATOM      8  C   UNL     1       5.394  -4.023  24.196  0.00  0.00    +0.103 A 
ATOM      9  C   UNL     1       6.529  -4.128  23.487  0.00  0.00    +0.103 A 
ATOM     10  C   UNL     1       7.548  -5.056  24.039  0.00  0.00    +0.236 A 
ATOM     11  O   UNL     1       8.442  -5.526  23.341  0.00  0.00    -0.283 OA
ATOM     12  C   UNL     1       7.468  -5.381  25.499  0.00  0.00    +0.194 A 
ATOM     13  O   UNL     1       7.255  -5.767  28.187  0.00  0.00    -0.268 OA
ATOM     14  C   UNL     1       3.790  -5.146  27.471  0.00  0.00    +0.228 C 
ATOM     15  O   UNL     1       2.702  -4.553  28.178  0.00  0.00    -0.357 OA
ATOM     16  C   UNL     1       2.534  -5.029  29.498  0.00  0.00    +0.164 C 
ATOM     17  C   UNL     1       3.714  -4.567  30.313  0.00  0.00    +0.050 C 
ENDROOT
BRANCH   9  18
ATOM     18  C   UNL     1       6.652  -3.341  22.230  0.00  0.00    +0.250 C 
ATOM     19  N   UNL     1       7.667  -2.430  22.079  0.00  0.00    -0.307 N 
ATOM     20  H   UNL     1       7.675  -1.992  21.168  0.00  0.00    +0.149 HD
ATOM     21  O   UNL     1       5.793  -3.423  21.354  0.00  0.00    -0.270 OA
BRANCH  19  22
ATOM     22  C   UNL     1       8.821  -2.235  22.935  0.00  0.00    +0.142 C 
BRANCH  22  23
ATOM     23  C   UNL     1       9.267  -0.807  23.046  0.00  0.00    +0.005 A 
ATOM     24  C   UNL     1       9.379  -0.007  21.894  0.00  0.00    +0.011 A 
ATOM     25  C   UNL     1       9.907   1.277  21.990  0.00  0.00    +0.039 A 
ATOM     26  C   UNL     1      10.317   1.764  23.227  0.00  0.00    +0.126 A 
ATOM     27  F   UNL     1      10.841   2.990  23.310  0.00  0.00    -0.205 F 
ATOM     28  C   UNL     1      10.198   0.993  24.379  0.00  0.00    +0.077 A 
ATOM     29  C   UNL     1       9.677  -0.287  24.287  0.00  0.00    +0.131 A 
ATOM     30  F   UNL     1       9.606  -1.051  25.376  0.00  0.00    -0.205 F 
ENDBRANCH  22  23
ENDBRANCH  19  22
ENDBRANCH   9  18
BRANCH  12  31
ATOM     31  O   UNL     1       8.622  -5.864  26.099  0.00  0.00    -0.502 OA
ATOM     32  H   UNL     1       8.586  -5.642  27.056  0.00  0.00    +0.292 HD
ENDBRANCH  12  31
TORSDOF 4
ENDMDL
MODEL 7
REMARK VINA RESULT:      -7.8      3.629      6.315
REMARK  Name = 
REMARK  5 active torsions:
REMARK  status: ('A' for Active; 'I' for Inactive)
REMARK    1  A    between atoms: C_1  and  C_2
REMARK    2  A    between atoms: C_13  and  O_32
REMARK    3  A    between atoms: C_16  and  C_20
REMARK    4  A    between atoms: N_22  and  C_23
REMARK    5  A    between atoms: C_23  and  C_24
REMARK                            x       y       z     vdW  Elec       q    Type
REMARK                         _______ _______ _______ _____ _____    ______ ____
ROOT
ATOM      1  C   UNL     1       0.575  -5.835  25.867  0.00  0.00    +0.028 C 
ATOM      2  C   UNL     1       1.410  -5.196  24.748  0.00  0.00    +0.078 C 
ATOM      3  N   UNL     1       2.820  -5.618  24.706  0.00  0.00    -0.266 N 
ATOM      4  C   UNL     1       3.617  -5.389  25.819  0.00  0.00    +0.269 C 
ATOM      5  C   UNL     1       5.119  -5.437  25.637  0.00  0.00    +0.151 A 
ATOM      6  N   UNL     1       5.665  -5.622  24.353  0.00  0.00    -0.335 N 
ATOM      7  C   UNL     1       4.783  -5.782  23.187  0.00  0.00    +0.173 C 
ATOM      8  C   UNL     1       7.003  -5.257  24.161  0.00  0.00    +0.103 A 
ATOM      9  C   UNL     1       7.863  -4.949  25.145  0.00  0.00    +0.103 A 
ATOM     10  C   UNL     1       7.357  -5.150  26.527  0.00  0.00    +0.236 A 
ATOM     11  O   UNL     1       8.117  -5.267  27.484  0.00  0.00    -0.283 OA
ATOM     12  C   UNL     1       5.873  -5.176  26.722  0.00  0.00    +0.194 A 
ATOM     13  O   UNL     1       3.157  -5.073  26.919  0.00  0.00    -0.268 OA
ATOM     14  C   UNL     1       3.391  -6.330  23.563  0.00  0.00    +0.228 C 
ATOM     15  O   UNL     1       2.608  -6.199  22.377  0.00  0.00    -0.357 OA
ATOM     16  C   UNL     1       1.225  -6.424  22.561  0.00  0.00    +0.164 C 
ATOM     17  C   UNL     1       0.681  -5.305  23.410  0.00  0.00    +0.050 C 
ENDROOT
BRANCH   9  18
ATOM     18  C   UNL     1       9.219  -4.466  24.772  0.00  0.00    +0.250 C 
ATOM     19  N   UNL     1       9.383  -3.223  24.213  0.00  0.00    -0.307 N 
ATOM     20  H   UNL     1      10.353  -2.988  24.046  0.00  0.00    +0.149 HD
ATOM     21  O   UNL     1      10.196  -5.208  24.867  0.00  0.00    -0.270 OA
BRANCH  19  22
ATOM     22  C   UNL     1       8.398  -2.167  24.090  0.00  0.00    +0.142 C 
BRANCH  22  23
ATOM     23  C   UNL     1       8.936  -0.893  23.509  0.00  0.00    +0.005 A 
ATOM     24  C   UNL     1       8.807  -0.630  22.133  0.00  0.00    +0.011 A 
ATOM     25  C   UNL     1       9.412   0.495  21.582  0.00  0.00    +0.039 A 
ATOM     26  C   UNL     1      10.138   1.358  22.397  0.00  0.00    +0.126 A 
ATOM     27  F   UNL     1      10.734   2.426  21.860  0.00  0.00    -0.205 F 
ATOM     28  C   UNL     1      10.262   1.122  23.763  0.00  0.00    +0.077 A 
ATOM     29  C   UNL     1       9.665   0.001  24.314  0.00  0.00    +0.131 A 
ATOM     30  F   UNL     1       9.821  -0.260  25.611  0.00  0.00    -0.205 F 
ENDBRANCH  22  23
ENDBRANCH  19  22
ENDBRANCH   9  18
BRANCH  12  31
ATOM     31  O   UNL     1       5.403  -4.922  28.003  0.00  0.00    -0.502 OA
ATOM     32  H   UNL     1       5.490  -5.747  28.530  0.00  0.00    +0.292 HD
ENDBRANCH  12  31
TORSDOF 4
ENDMDL
MODEL 8
REMARK VINA RESULT:      -7.5      2.485      4.450
REMARK  Name = 
REMARK  5 active torsions:
REMARK  status: ('A' for Active; 'I' for Inactive)
REMARK    1  A    between atoms: C_1  and  C_2
REMARK    2  A    between atoms: C_13  and  O_32
REMARK    3  A    between atoms: C_16  and  C_20
REMARK    4  A    between atoms: N_22  and  C_23
REMARK    5  A    between atoms: C_23  and  C_24
REMARK                            x       y       z     vdW  Elec       q    Type
REMARK                         _______ _______ _______ _____ _____    ______ ____
ROOT
ATOM      1  C   UNL     1       3.973  -5.002  28.787  0.00  0.00    +0.028 C 
ATOM      2  C   UNL     1       4.111  -3.650  28.074  0.00  0.00    +0.078 C 
ATOM      3  N   UNL     1       4.902  -3.679  26.833  0.00  0.00    -0.266 N 
ATOM      4  C   UNL     1       6.222  -4.101  26.896  0.00  0.00    +0.269 C 
ATOM      5  C   UNL     1       7.135  -3.748  25.740  0.00  0.00    +0.151 A 
ATOM      6  N   UNL     1       6.658  -2.941  24.689  0.00  0.00    -0.335 N 
ATOM      7  C   UNL     1       5.272  -2.449  24.703  0.00  0.00    +0.173 C 
ATOM      8  C   UNL     1       7.607  -2.309  23.878  0.00  0.00    +0.103 A 
ATOM      9  C   UNL     1       8.922  -2.577  23.885  0.00  0.00    +0.103 A 
ATOM     10  C   UNL     1       9.341  -3.723  24.731  0.00  0.00    +0.236 A 
ATOM     11  O   UNL     1      10.409  -4.302  24.556  0.00  0.00    -0.283 OA
ATOM     12  C   UNL     1       8.420  -4.135  25.839  0.00  0.00    +0.194 A 
ATOM     13  O   UNL     1       6.697  -4.675  27.878  0.00  0.00    -0.268 OA
ATOM     14  C   UNL     1       4.328  -3.346  25.529  0.00  0.00    +0.228 C 
ATOM     15  O   UNL     1       3.110  -2.611  25.629  0.00  0.00    -0.357 OA
ATOM     16  C   UNL     1       2.177  -3.143  26.548  0.00  0.00    +0.164 C 
ATOM     17  C   UNL     1       2.745  -2.980  27.933  0.00  0.00    +0.050 C 
ENDROOT
BRANCH   9  18
ATOM     18  C   UNL     1       9.818  -1.735  23.047  0.00  0.00    +0.250 C 
ATOM     19  N   UNL     1      10.258  -0.519  23.507  0.00  0.00    -0.307 N 
ATOM     20  H   UNL     1      10.897  -0.062  22.871  0.00  0.00    +0.149 HD
ATOM     21  O   UNL     1      10.097  -2.070  21.897  0.00  0.00    -0.270 OA
BRANCH  19  22
ATOM     22  C   UNL     1      10.124   0.026  24.843  0.00  0.00    +0.142 C 
BRANCH  22  23
ATOM     23  C   UNL     1       9.273   1.260  24.919  0.00  0.00    +0.005 A 
ATOM     24  C   UNL     1       7.978   1.196  25.464  0.00  0.00    +0.011 A 
ATOM     25  C   UNL     1       7.152   2.315  25.422  0.00  0.00    +0.039 A 
ATOM     26  C   UNL     1       7.615   3.493  24.845  0.00  0.00    +0.126 A 
ATOM     27  F   UNL     1       6.810   4.558  24.789  0.00  0.00    -0.205 F 
ATOM     28  C   UNL     1       8.899   3.579  24.316  0.00  0.00    +0.077 A 
ATOM     29  C   UNL     1       9.722   2.466  24.352  0.00  0.00    +0.131 A 
ATOM     30  F   UNL     1      10.934   2.524  23.803  0.00  0.00    -0.205 F 
ENDBRANCH  22  23
ENDBRANCH  19  22
ENDBRANCH   9  18
BRANCH  12  31
ATOM     31  O   UNL     1       8.975  -4.876  26.874  0.00  0.00    -0.502 OA
ATOM     32  H   UNL     1       9.932  -4.995  26.686  0.00  0.00    +0.292 HD
ENDBRANCH  12  31
TORSDOF 4
ENDMDL
MODEL 9
REMARK VINA RESULT:      -7.5      2.087      3.649
REMARK  Name = 
REMARK  5 active torsions:
REMARK  status: ('A' for Active; 'I' for Inactive)
REMARK    1  A    between atoms: C_1  and  C_2
REMARK    2  A    between atoms: C_13  and  O_32
REMARK    3  A    between atoms: C_16  and  C_20
REMARK    4  A    between atoms: N_22  and  C_23
REMARK    5  A    between atoms: C_23  and  C_24
REMARK                            x       y       z     vdW  Elec       q    Type
REMARK                         _______ _______ _______ _____ _____    ______ ____
ROOT
ATOM      1  C   UNL     1       3.239  -6.078  26.247  0.00  0.00    +0.028 C 
ATOM      2  C   UNL     1       4.762  -6.245  26.335  0.00  0.00    +0.078 C 
ATOM      3  N   UNL     1       5.534  -5.000  26.177  0.00  0.00    -0.266 N 
ATOM      4  C   UNL     1       5.397  -4.278  25.000  0.00  0.00    +0.269 C 
ATOM      5  C   UNL     1       6.464  -3.258  24.667  0.00  0.00    +0.151 A 
ATOM      6  N   UNL     1       7.595  -3.127  25.496  0.00  0.00    -0.335 N 
ATOM      7  C   UNL     1       7.738  -3.971  26.692  0.00  0.00    +0.173 C 
ATOM      8  C   UNL     1       8.722  -2.496  24.957  0.00  0.00    +0.103 A 
ATOM      9  C   UNL     1       8.742  -1.819  23.798  0.00  0.00    +0.103 A 
ATOM     10  C   UNL     1       7.424  -1.638  23.137  0.00  0.00    +0.236 A 
ATOM     11  O   UNL     1       7.234  -0.758  22.303  0.00  0.00    -0.283 OA
ATOM     12  C   UNL     1       6.331  -2.594  23.503  0.00  0.00    +0.194 A 
ATOM     13  O   UNL     1       4.494  -4.487  24.186  0.00  0.00    -0.268 OA
ATOM     14  C   UNL     1       6.384  -4.465  27.240  0.00  0.00    +0.228 C 
ATOM     15  O   UNL     1       6.717  -5.437  28.230  0.00  0.00    -0.357 OA
ATOM     16  C   UNL     1       5.619  -6.194  28.699  0.00  0.00    +0.164 C 
ATOM     17  C   UNL     1       5.138  -7.064  27.568  0.00  0.00    +0.050 C 
ENDROOT
BRANCH   9  18
ATOM     18  C   UNL     1      10.047  -1.306  23.302  0.00  0.00    +0.250 C 
ATOM     19  N   UNL     1      10.493  -0.065  23.682  0.00  0.00    -0.307 N 
ATOM     20  H   UNL     1      11.412   0.154  23.320  0.00  0.00    +0.149 HD
ATOM     21  O   UNL     1      10.695  -1.941  22.471  0.00  0.00    -0.270 OA
BRANCH  19  22
ATOM     22  C   UNL     1       9.942   0.804  24.702  0.00  0.00    +0.142 C 
BRANCH  22  23
ATOM     23  C   UNL     1       9.921   2.256  24.324  0.00  0.00    +0.005 A 
ATOM     24  C   UNL     1      11.010   2.828  23.643  0.00  0.00    +0.011 A 
ATOM     25  C   UNL     1      11.036   4.198  23.401  0.00  0.00    +0.039 A 
ATOM     26  C   UNL     1       9.979   4.995  23.833  0.00  0.00    +0.126 A 
ATOM     27  F   UNL     1      10.019   6.312  23.617  0.00  0.00    -0.205 F 
ATOM     28  C   UNL     1       8.887   4.444  24.494  0.00  0.00    +0.077 A 
ATOM     29  C   UNL     1       8.859   3.081  24.740  0.00  0.00    +0.131 A 
ATOM     30  F   UNL     1       7.841   2.552  25.416  0.00  0.00    -0.205 F 
ENDBRANCH  22  23
ENDBRANCH  19  22
ENDBRANCH   9  18
BRANCH  12  31
ATOM     31  O   UNL     1       5.278  -2.717  22.607  0.00  0.00    -0.502 OA
ATOM     32  H   UNL     1       4.525  -3.141  23.076  0.00  0.00    +0.292 HD
ENDBRANCH  12  31
TORSDOF 4
ENDMDL
