MODEL 1
REMARK VINA RESULT:      -6.5      0.000      0.000
REMARK  Name = 
REMARK  11 active torsions:
REMARK  status: ('A' for Active; 'I' for Inactive)
REMARK    1  A    between atoms: C_1  and  C_2
REMARK    2  A    between atoms: N_4  and  C_5
REMARK    3  A    between atoms: C_7  and  N_25
REMARK    4  A    between atoms: C_10  and  C_22
REMARK    5  A    between atoms: C_12  and  C_14
REMARK    6  A    between atoms: C_14  and  C_16
REMARK    7  A    between atoms: C_14  and  O_21
REMARK    8  A    between atoms: C_16  and  C_18
REMARK    9  A    between atoms: C_16  and  O_20
REMARK   10  A    between atoms: C_18  and  O_19
REMARK   11  A    between atoms: C_22  and  O_24
REMARK                            x       y       z     vdW  Elec       q    Type
REMARK                         _______ _______ _______ _____ _____    ______ ____
ROOT
ATOM      1  C   UNL     1       8.112  -2.983  24.890  0.00  0.00    +0.160 C 
ATOM      2  C   UNL     1       8.427  -2.691  23.380  0.00  0.00    +0.229 C 
ATOM      3  O   UNL     1       7.815  -3.525  22.378  0.00  0.00    -0.477 OA
ATOM      4  C   UNL     1       7.045  -4.596  22.745  0.00  0.00    +0.204 C 
ATOM      5  C   UNL     1       6.861  -5.015  23.997  0.00  0.00    +0.071 C 
ATOM      6  C   UNL     1       7.525  -4.396  25.172  0.00  0.00    +0.238 C 
ENDROOT
BRANCH   6   7
ATOM      7  N   UNL     1       6.571  -4.293  26.292  0.00  0.00    -0.104 NA
ATOM      8  C   UNL     1       6.675  -5.048  27.319  0.00  0.00    +0.377 C 
ATOM      9  N   UNL     1       5.825  -4.868  28.353  0.00  0.00    -0.289 N 
ATOM     10  H   UNL     1       6.219  -4.969  29.277  0.00  0.00    +0.255 HD
ATOM     11  H   UNL     1       5.304  -4.002  28.259  0.00  0.00    +0.255 HD
ATOM     12  N   UNL     1       7.517  -6.071  27.554  0.00  0.00    -0.289 N 
ATOM     13  H   UNL     1       7.657  -6.417  28.491  0.00  0.00    +0.255 HD
ATOM     14  H   UNL     1       8.203  -6.348  26.869  0.00  0.00    +0.255 HD
ENDBRANCH   6   7
BRANCH   1  17
ATOM     15  C   UNL     1       6.897  -0.085  27.053  0.00  0.00    +0.109 C 
ATOM     16  C   UNL     1       7.850  -1.117  26.525  0.00  0.00    +0.210 C 
ATOM     17  N   UNL     1       7.324  -1.941  25.563  0.00  0.00    -0.305 N 
ATOM     18  H   UNL     1       6.316  -2.069  25.498  0.00  0.00    +0.149 HD
ATOM     19  O   UNL     1       9.022  -1.164  26.889  0.00  0.00    -0.276 OA
ENDBRANCH   1  17
BRANCH   4  20
ATOM     20  C   UNL     1       6.420  -5.385  21.632  0.00  0.00    +0.372 C 
ATOM     21  O   UNL     1       5.957  -4.922  20.608  0.00  0.00    -0.242 OA
BRANCH  20  22
ATOM     22  O   UNL     1       6.381  -6.701  21.949  0.00  0.00    -0.475 OA
ATOM     23  H   UNL     1       7.184  -6.946  22.453  0.00  0.00    +0.296 HD
ENDBRANCH  20  22
ENDBRANCH   4  20
BRANCH   2  24
ATOM     24  C   UNL     1       8.146  -1.222  22.954  0.00  0.00    +0.187 C 
BRANCH  24  25
ATOM     25  O   UNL     1       6.738  -1.058  22.706  0.00  0.00    -0.385 OA
ATOM     26  H   UNL     1       6.454  -0.248  23.165  0.00  0.00    +0.210 HD
ENDBRANCH  24  25
BRANCH  24  27
ATOM     27  C   UNL     1       8.897  -0.748  21.695  0.00  0.00    +0.172 C 
BRANCH  27  28
ATOM     28  O   UNL     1       9.992  -1.615  21.378  0.00  0.00    -0.387 OA
ATOM     29  H   UNL     1      10.805  -1.081  21.421  0.00  0.00    +0.210 HD
ENDBRANCH  27  28
BRANCH  27  30
ATOM     30  C   UNL     1       9.474   0.658  21.945  0.00  0.00    +0.189 C 
BRANCH  30  31
ATOM     31  O   UNL     1       8.887   1.593  21.045  0.00  0.00    -0.392 OA
ATOM     32  H   UNL     1       8.162   1.104  20.612  0.00  0.00    +0.210 HD
ENDBRANCH  30  31
ENDBRANCH  27  30
ENDBRANCH  24  27
ENDBRANCH   2  24
TORSDOF 10
ENDMDL
MODEL 2
REMARK VINA RESULT:      -6.1      2.989      5.147
REMARK  Name = 
REMARK  11 active torsions:
REMARK  status: ('A' for Active; 'I' for Inactive)
REMARK    1  A    between atoms: C_1  and  C_2
REMARK    2  A    between atoms: N_4  and  C_5
REMARK    3  A    between atoms: C_7  and  N_25
REMARK    4  A    between atoms: C_10  and  C_22
REMARK    5  A    between atoms: C_12  and  C_14
REMARK    6  A    between atoms: C_14  and  C_16
REMARK    7  A    between atoms: C_14  and  O_21
REMARK    8  A    between atoms: C_16  and  C_18
REMARK    9  A    between atoms: C_16  and  O_20
REMARK   10  A    between atoms: C_18  and  O_19
REMARK   11  A    between atoms: C_22  and  O_24
REMARK                            x       y       z     vdW  Elec       q    Type
REMARK                         _______ _______ _______ _____ _____    ______ ____
ROOT
ATOM      1  C   UNL     1       7.858  -1.607  24.402  0.00  0.00    +0.160 C 
ATOM      2  C   UNL     1       7.890  -3.112  24.846  0.00  0.00    +0.229 C 
ATOM      3  O   UNL     1       7.496  -4.117  23.892  0.00  0.00    -0.477 OA
ATOM      4  C   UNL     1       7.029  -3.753  22.658  0.00  0.00    +0.204 C 
ATOM      5  C   UNL     1       6.813  -2.500  22.258  0.00  0.00    +0.071 C 
ATOM      6  C   UNL     1       7.002  -1.317  23.137  0.00  0.00    +0.238 C 
ENDROOT
BRANCH   6   7
ATOM      7  N   UNL     1       7.639  -0.224  22.378  0.00  0.00    -0.104 NA
ATOM      8  C   UNL     1       7.133   0.949  22.362  0.00  0.00    +0.377 C 
ATOM      9  N   UNL     1       7.791   1.937  21.716  0.00  0.00    -0.289 N 
ATOM     10  H   UNL     1       7.777   2.845  22.157  0.00  0.00    +0.255 HD
ATOM     11  H   UNL     1       8.733   1.655  21.467  0.00  0.00    +0.255 HD
ATOM     12  N   UNL     1       5.977   1.396  22.885  0.00  0.00    -0.289 N 
ATOM     13  H   UNL     1       5.818   2.384  23.014  0.00  0.00    +0.255 HD
ATOM     14  H   UNL     1       5.357   0.776  23.384  0.00  0.00    +0.255 HD
ENDBRANCH   6   7
BRANCH   1  17
ATOM     15  C   UNL     1      10.906   0.663  24.747  0.00  0.00    +0.109 C 
ATOM     16  C   UNL     1       9.489   0.205  24.934  0.00  0.00    +0.210 C 
ATOM     17  N   UNL     1       9.180  -0.971  24.301  0.00  0.00    -0.305 N 
ATOM     18  H   UNL     1       9.736  -1.284  23.509  0.00  0.00    +0.149 HD
ATOM     19  O   UNL     1       8.700   0.815  25.652  0.00  0.00    -0.276 OA
ENDBRANCH   1  17
BRANCH   4  20
ATOM     20  C   UNL     1       6.677  -4.869  21.718  0.00  0.00    +0.372 C 
ATOM     21  O   UNL     1       7.232  -5.948  21.660  0.00  0.00    -0.242 OA
BRANCH  20  22
ATOM     22  O   UNL     1       5.680  -4.488  20.883  0.00  0.00    -0.475 OA
ATOM     23  H   UNL     1       5.516  -3.528  20.977  0.00  0.00    +0.296 HD
ENDBRANCH  20  22
ENDBRANCH   4  20
BRANCH   2  24
ATOM     24  C   UNL     1       9.263  -3.569  25.417  0.00  0.00    +0.187 C 
BRANCH  24  25
ATOM     25  O   UNL     1      10.170  -3.825  24.330  0.00  0.00    -0.385 OA
ATOM     26  H   UNL     1      10.863  -3.143  24.364  0.00  0.00    +0.210 HD
ENDBRANCH  24  25
BRANCH  24  27
ATOM     27  C   UNL     1       9.221  -4.835  26.295  0.00  0.00    +0.172 C 
BRANCH  27  28
ATOM     28  O   UNL     1       9.413  -6.022  25.516  0.00  0.00    -0.387 OA
ATOM     29  H   UNL     1       9.789  -6.697  26.107  0.00  0.00    +0.210 HD
ENDBRANCH  27  28
BRANCH  27  30
ATOM     30  C   UNL     1       7.841  -4.940  26.971  0.00  0.00    +0.189 C 
BRANCH  30  31
ATOM     31  O   UNL     1       7.100  -6.016  26.402  0.00  0.00    -0.392 OA
ATOM     32  H   UNL     1       6.221  -5.640  26.206  0.00  0.00    +0.210 HD
ENDBRANCH  30  31
ENDBRANCH  27  30
ENDBRANCH  24  27
ENDBRANCH   2  24
TORSDOF 10
ENDMDL
MODEL 3
REMARK VINA RESULT:      -6.1      2.997      6.816
REMARK  Name = 
REMARK  11 active torsions:
REMARK  status: ('A' for Active; 'I' for Inactive)
REMARK    1  A    between atoms: C_1  and  C_2
REMARK    2  A    between atoms: N_4  and  C_5
REMARK    3  A    between atoms: C_7  and  N_25
REMARK    4  A    between atoms: C_10  and  C_22
REMARK    5  A    between atoms: C_12  and  C_14
REMARK    6  A    between atoms: C_14  and  C_16
REMARK    7  A    between atoms: C_14  and  O_21
REMARK    8  A    between atoms: C_16  and  C_18
REMARK    9  A    between atoms: C_16  and  O_20
REMARK   10  A    between atoms: C_18  and  O_19
REMARK   11  A    between atoms: C_22  and  O_24
REMARK                            x       y       z     vdW  Elec       q    Type
REMARK                         _______ _______ _______ _____ _____    ______ ____
ROOT
ATOM      1  C   UNL     1       8.557  -4.002  24.276  0.00  0.00    +0.160 C 
ATOM      2  C   UNL     1       8.042  -4.239  25.739  0.00  0.00    +0.229 C 
ATOM      3  O   UNL     1       7.928  -3.103  26.619  0.00  0.00    -0.477 OA
ATOM      4  C   UNL     1       8.339  -1.865  26.205  0.00  0.00    +0.204 C 
ATOM      5  C   UNL     1       8.939  -1.604  25.044  0.00  0.00    +0.071 C 
ATOM      6  C   UNL     1       9.297  -2.652  24.054  0.00  0.00    +0.238 C 
ENDROOT
BRANCH   6   7
ATOM      7  N   UNL     1       9.006  -2.174  22.689  0.00  0.00    -0.104 NA
ATOM      8  C   UNL     1       9.642  -1.186  22.187  0.00  0.00    +0.377 C 
ATOM      9  N   UNL     1       9.396  -0.832  20.907  0.00  0.00    -0.289 N 
ATOM     10  H   UNL     1      10.196  -0.545  20.361  0.00  0.00    +0.255 HD
ATOM     11  H   UNL     1       8.845  -1.535  20.426  0.00  0.00    +0.255 HD
ATOM     12  N   UNL     1      10.552  -0.371  22.751  0.00  0.00    -0.289 N 
ATOM     13  H   UNL     1      11.152   0.205  22.180  0.00  0.00    +0.255 HD
ATOM     14  H   UNL     1      10.832  -0.490  23.713  0.00  0.00    +0.255 HD
ENDBRANCH   6   7
BRANCH   1  17
ATOM     15  C   UNL     1       6.354  -5.443  21.513  0.00  0.00    +0.109 C 
ATOM     16  C   UNL     1       7.486  -5.387  22.498  0.00  0.00    +0.210 C 
ATOM     17  N   UNL     1       7.549  -4.229  23.229  0.00  0.00    -0.305 N 
ATOM     18  H   UNL     1       7.112  -3.380  22.878  0.00  0.00    +0.149 HD
ATOM     19  O   UNL     1       8.246  -6.337  22.667  0.00  0.00    -0.276 OA
ENDBRANCH   1  17
BRANCH   4  20
ATOM     20  C   UNL     1       8.148  -0.736  27.176  0.00  0.00    +0.372 C 
ATOM     21  O   UNL     1       7.102  -0.156  27.391  0.00  0.00    -0.242 OA
BRANCH  20  22
ATOM     22  O   UNL     1       9.328  -0.400  27.748  0.00  0.00    -0.475 OA
ATOM     23  H   UNL     1       9.543   0.533  27.543  0.00  0.00    +0.296 HD
ENDBRANCH  20  22
ENDBRANCH   4  20
BRANCH   2  24
ATOM     24  C   UNL     1       6.679  -4.984  25.812  0.00  0.00    +0.187 C 
BRANCH  24  25
ATOM     25  O   UNL     1       5.629  -4.102  25.377  0.00  0.00    -0.385 OA
ATOM     26  H   UNL     1       5.351  -4.396  24.492  0.00  0.00    +0.210 HD
ENDBRANCH  24  25
BRANCH  24  27
ATOM     27  C   UNL     1       6.292  -5.513  27.207  0.00  0.00    +0.172 C 
BRANCH  27  28
ATOM     28  O   UNL     1       7.430  -6.030  27.907  0.00  0.00    -0.387 OA
ATOM     29  H   UNL     1       7.098  -6.649  28.580  0.00  0.00    +0.210 HD
ENDBRANCH  27  28
BRANCH  27  30
ATOM     30  C   UNL     1       5.279  -6.661  27.054  0.00  0.00    +0.189 C 
BRANCH  30  31
ATOM     31  O   UNL     1       5.322  -7.506  28.201  0.00  0.00    -0.392 OA
ATOM     32  H   UNL     1       5.776  -8.316  27.899  0.00  0.00    +0.210 HD
ENDBRANCH  30  31
ENDBRANCH  27  30
ENDBRANCH  24  27
ENDBRANCH   2  24
TORSDOF 10
ENDMDL
MODEL 4
REMARK VINA RESULT:      -5.6      2.196      4.752
REMARK  Name = 
REMARK  11 active torsions:
REMARK  status: ('A' for Active; 'I' for Inactive)
REMARK    1  A    between atoms: C_1  and  C_2
REMARK    2  A    between atoms: N_4  and  C_5
REMARK    3  A    between atoms: C_7  and  N_25
REMARK    4  A    between atoms: C_10  and  C_22
REMARK    5  A    between atoms: C_12  and  C_14
REMARK    6  A    between atoms: C_14  and  C_16
REMARK    7  A    between atoms: C_14  and  O_21
REMARK    8  A    between atoms: C_16  and  C_18
REMARK    9  A    between atoms: C_16  and  O_20
REMARK   10  A    between atoms: C_18  and  O_19
REMARK   11  A    between atoms: C_22  and  O_24
REMARK                            x       y       z     vdW  Elec       q    Type
REMARK                         _______ _______ _______ _____ _____    ______ ____
ROOT
ATOM      1  C   UNL     1       6.515  -2.273  23.287  0.00  0.00    +0.160 C 
ATOM      2  C   UNL     1       7.627  -1.165  23.270  0.00  0.00    +0.229 C 
ATOM      3  O   UNL     1       8.037  -0.585  24.524  0.00  0.00    -0.477 OA
ATOM      4  C   UNL     1       7.407  -0.939  25.687  0.00  0.00    +0.204 C 
ATOM      5  C   UNL     1       6.348  -1.742  25.772  0.00  0.00    +0.071 C 
ATOM      6  C   UNL     1       5.666  -2.325  24.588  0.00  0.00    +0.238 C 
ENDROOT
BRANCH   6   7
ATOM      7  N   UNL     1       5.304  -3.730  24.858  0.00  0.00    -0.104 NA
ATOM      8  C   UNL     1       4.091  -4.068  25.077  0.00  0.00    +0.377 C 
ATOM      9  N   UNL     1       3.797  -5.376  25.243  0.00  0.00    -0.289 N 
ATOM     10  H   UNL     1       2.932  -5.695  24.830  0.00  0.00    +0.255 HD
ATOM     11  H   UNL     1       4.578  -5.969  24.984  0.00  0.00    +0.255 HD
ATOM     12  N   UNL     1       2.993  -3.302  25.204  0.00  0.00    -0.289 N 
ATOM     13  H   UNL     1       2.072  -3.706  25.129  0.00  0.00    +0.255 HD
ATOM     14  H   UNL     1       3.046  -2.298  25.126  0.00  0.00    +0.255 HD
ENDBRANCH   6   7
BRANCH   1  17
ATOM     15  C   UNL     1       7.122  -5.631  21.581  0.00  0.00    +0.109 C 
ATOM     16  C   UNL     1       6.477  -4.299  21.832  0.00  0.00    +0.210 C 
ATOM     17  N   UNL     1       6.982  -3.614  22.907  0.00  0.00    -0.305 N 
ATOM     18  H   UNL     1       7.466  -4.115  23.649  0.00  0.00    +0.149 HD
ATOM     19  O   UNL     1       5.613  -3.846  21.085  0.00  0.00    -0.276 OA
ENDBRANCH   1  17
BRANCH   4  20
ATOM     20  C   UNL     1       7.925  -0.310  26.948  0.00  0.00    +0.372 C 
ATOM     21  O   UNL     1       7.252   0.255  27.786  0.00  0.00    -0.242 OA
BRANCH  20  22
ATOM     22  O   UNL     1       9.275  -0.402  27.002  0.00  0.00    -0.475 OA
ATOM     23  H   UNL     1       9.677   0.453  26.748  0.00  0.00    +0.296 HD
ENDBRANCH  20  22
ENDBRANCH   4  20
BRANCH   2  24
ATOM     24  C   UNL     1       8.934  -1.598  22.545  0.00  0.00    +0.187 C 
BRANCH  24  25
ATOM     25  O   UNL     1       9.684  -2.479  23.400  0.00  0.00    -0.385 OA
ATOM     26  H   UNL     1       9.238  -3.344  23.389  0.00  0.00    +0.210 HD
ENDBRANCH  24  25
BRANCH  24  27
ATOM     27  C   UNL     1       9.868  -0.446  22.130  0.00  0.00    +0.172 C 
BRANCH  27  28
ATOM     28  O   UNL     1      10.509   0.146  23.266  0.00  0.00    -0.387 OA
ATOM     29  H   UNL     1       9.933   0.864  23.582  0.00  0.00    +0.210 HD
ENDBRANCH  27  28
BRANCH  27  30
ATOM     30  C   UNL     1       9.044   0.654  21.436  0.00  0.00    +0.189 C 
BRANCH  30  31
ATOM     31  O   UNL     1       9.774   1.877  21.426  0.00  0.00    -0.392 OA
ATOM     32  H   UNL     1       9.222   2.503  21.933  0.00  0.00    +0.210 HD
ENDBRANCH  30  31
ENDBRANCH  27  30
ENDBRANCH  24  27
ENDBRANCH   2  24
TORSDOF 10
ENDMDL
MODEL 5
REMARK VINA RESULT:      -5.6      2.804      4.683
REMARK  Name = 
REMARK  11 active torsions:
REMARK  status: ('A' for Active; 'I' for Inactive)
REMARK    1  A    between atoms: C_1  and  C_2
REMARK    2  A    between atoms: N_4  and  C_5
REMARK    3  A    between atoms: C_7  and  N_25
REMARK    4  A    between atoms: C_10  and  C_22
REMARK    5  A    between atoms: C_12  and  C_14
REMARK    6  A    between atoms: C_14  and  C_16
REMARK    7  A    between atoms: C_14  and  O_21
REMARK    8  A    between atoms: C_16  and  C_18
REMARK    9  A    between atoms: C_16  and  O_20
REMARK   10  A    between atoms: C_18  and  O_19
REMARK   11  A    between atoms: C_22  and  O_24
REMARK                            x       y       z     vdW  Elec       q    Type
REMARK                         _______ _______ _______ _____ _____    ______ ____
ROOT
ATOM      1  C   UNL     1       6.820  -2.455  24.174  0.00  0.00    +0.160 C 
ATOM      2  C   UNL     1       6.969  -1.910  25.638  0.00  0.00    +0.229 C 
ATOM      3  O   UNL     1       6.997  -2.858  26.723  0.00  0.00    -0.477 OA
ATOM      4  C   UNL     1       6.814  -4.192  26.479  0.00  0.00    +0.204 C 
ATOM      5  C   UNL     1       6.517  -4.722  25.294  0.00  0.00    +0.071 C 
ATOM      6  C   UNL     1       6.286  -3.912  24.070  0.00  0.00    +0.238 C 
ENDROOT
BRANCH   6   7
ATOM      7  N   UNL     1       6.920  -4.564  22.909  0.00  0.00    -0.104 NA
ATOM      8  C   UNL     1       6.290  -5.436  22.218  0.00  0.00    +0.377 C 
ATOM      9  N   UNL     1       6.882  -5.951  21.118  0.00  0.00    -0.289 N 
ATOM     10  H   UNL     1       6.282  -6.110  20.322  0.00  0.00    +0.255 HD
ATOM     11  H   UNL     1       7.714  -5.428  20.864  0.00  0.00    +0.255 HD
ATOM     12  N   UNL     1       5.078  -5.984  22.420  0.00  0.00    -0.289 N 
ATOM     13  H   UNL     1       4.602  -6.470  21.675  0.00  0.00    +0.255 HD
ATOM     14  H   UNL     1       4.513  -5.721  23.213  0.00  0.00    +0.255 HD
ENDBRANCH   6   7
BRANCH   1  17
ATOM     15  C   UNL     1       9.474  -1.149  21.764  0.00  0.00    +0.109 C 
ATOM     16  C   UNL     1       8.171  -1.180  22.507  0.00  0.00    +0.210 C 
ATOM     17  N   UNL     1       8.008  -2.267  23.327  0.00  0.00    -0.305 N 
ATOM     18  H   UNL     1       8.540  -3.118  23.158  0.00  0.00    +0.149 HD
ATOM     19  O   UNL     1       7.355  -0.265  22.425  0.00  0.00    -0.276 OA
ENDBRANCH   1  17
BRANCH   4  20
ATOM     20  C   UNL     1       6.895  -5.108  27.666  0.00  0.00    +0.372 C 
ATOM     21  O   UNL     1       6.181  -5.059  28.648  0.00  0.00    -0.242 OA
BRANCH  20  22
ATOM     22  O   UNL     1       7.928  -5.973  27.528  0.00  0.00    -0.475 OA
ATOM     23  H   UNL     1       7.604  -6.820  27.160  0.00  0.00    +0.296 HD
ENDBRANCH  20  22
ENDBRANCH   4  20
BRANCH   2  24
ATOM     24  C   UNL     1       8.202  -0.982  25.840  0.00  0.00    +0.187 C 
BRANCH  24  25
ATOM     25  O   UNL     1       8.823  -1.282  27.102  0.00  0.00    -0.385 OA
ATOM     26  H   UNL     1       9.498  -1.964  26.939  0.00  0.00    +0.210 HD
ENDBRANCH  24  25
BRANCH  24  27
ATOM     27  C   UNL     1       7.897   0.528  25.819  0.00  0.00    +0.172 C 
BRANCH  27  28
ATOM     28  O   UNL     1       6.703   0.814  25.082  0.00  0.00    -0.387 OA
ATOM     29  H   UNL     1       6.855   1.642  24.595  0.00  0.00    +0.210 HD
ENDBRANCH  27  28
BRANCH  27  30
ATOM     30  C   UNL     1       9.057   1.272  25.131  0.00  0.00    +0.189 C 
BRANCH  30  31
ATOM     31  O   UNL     1      10.256   0.509  25.237  0.00  0.00    -0.392 OA
ATOM     32  H   UNL     1      10.813   0.813  24.494  0.00  0.00    +0.210 HD
ENDBRANCH  30  31
ENDBRANCH  27  30
ENDBRANCH  24  27
ENDBRANCH   2  24
TORSDOF 10
ENDMDL
MODEL 6
REMARK VINA RESULT:      -5.4      2.889      4.283
REMARK  Name = 
REMARK  11 active torsions:
REMARK  status: ('A' for Active; 'I' for Inactive)
REMARK    1  A    between atoms: C_1  and  C_2
REMARK    2  A    between atoms: N_4  and  C_5
REMARK    3  A    between atoms: C_7  and  N_25
REMARK    4  A    between atoms: C_10  and  C_22
REMARK    5  A    between atoms: C_12  and  C_14
REMARK    6  A    between atoms: C_14  and  C_16
REMARK    7  A    between atoms: C_14  and  O_21
REMARK    8  A    between atoms: C_16  and  C_18
REMARK    9  A    between atoms: C_16  and  O_20
REMARK   10  A    between atoms: C_18  and  O_19
REMARK   11  A    between atoms: C_22  and  O_24
REMARK                            x       y       z     vdW  Elec       q    Type
REMARK                         _______ _______ _______ _____ _____    ______ ____
ROOT
ATOM      1  C   UNL     1       6.099  -5.357  25.577  0.00  0.00    +0.160 C 
ATOM      2  C   UNL     1       5.748  -5.644  24.075  0.00  0.00    +0.229 C 
ATOM      3  O   UNL     1       4.640  -6.518  23.784  0.00  0.00    -0.477 OA
ATOM      4  C   UNL     1       3.969  -7.144  24.799  0.00  0.00    +0.204 C 
ATOM      5  C   UNL     1       4.303  -7.089  26.088  0.00  0.00    +0.071 C 
ATOM      6  C   UNL     1       5.502  -6.373  26.593  0.00  0.00    +0.238 C 
ENDROOT
BRANCH   6   7
ATOM      7  N   UNL     1       5.172  -5.655  27.838  0.00  0.00    -0.104 NA
ATOM      8  C   UNL     1       5.660  -6.023  28.961  0.00  0.00    +0.377 C 
ATOM      9  N   UNL     1       5.391  -5.290  30.063  0.00  0.00    -0.289 N 
ATOM     10  H   UNL     1       6.149  -5.177  30.720  0.00  0.00    +0.255 HD
ATOM     11  H   UNL     1       4.965  -4.401  29.824  0.00  0.00    +0.255 HD
ATOM     12  N   UNL     1       6.421  -7.091  29.260  0.00  0.00    -0.289 N 
ATOM     13  H   UNL     1       6.938  -7.129  30.126  0.00  0.00    +0.255 HD
ATOM     14  H   UNL     1       6.695  -7.752  28.549  0.00  0.00    +0.255 HD
ENDBRANCH   6   7
BRANCH   1  17
ATOM     15  C   UNL     1       6.405  -1.745  26.769  0.00  0.00    +0.109 C 
ATOM     16  C   UNL     1       6.856  -3.132  26.415  0.00  0.00    +0.210 C 
ATOM     17  N   UNL     1       5.852  -3.973  26.010  0.00  0.00    -0.305 N 
ATOM     18  H   UNL     1       4.889  -3.783  26.277  0.00  0.00    +0.149 HD
ATOM     19  O   UNL     1       8.043  -3.452  26.433  0.00  0.00    -0.276 OA
ENDBRANCH   1  17
BRANCH   4  20
ATOM     20  C   UNL     1       2.807  -8.007  24.402  0.00  0.00    +0.372 C 
ATOM     21  O   UNL     1       2.385  -8.960  25.029  0.00  0.00    -0.242 OA
BRANCH  20  22
ATOM     22  O   UNL     1       2.317  -7.619  23.201  0.00  0.00    -0.475 OA
ATOM     23  H   UNL     1       1.347  -7.749  23.180  0.00  0.00    +0.296 HD
ENDBRANCH  20  22
ENDBRANCH   4  20
BRANCH   2  24
ATOM     24  C   UNL     1       5.521  -4.359  23.227  0.00  0.00    +0.187 C 
BRANCH  24  25
ATOM     25  O   UNL     1       4.156  -4.320  22.776  0.00  0.00    -0.385 OA
ATOM     26  H   UNL     1       3.809  -3.432  22.974  0.00  0.00    +0.210 HD
ENDBRANCH  24  25
BRANCH  24  27
ATOM     27  C   UNL     1       6.425  -4.223  21.986  0.00  0.00    +0.172 C 
BRANCH  27  28
ATOM     28  O   UNL     1       5.730  -3.608  20.895  0.00  0.00    -0.387 OA
ATOM     29  H   UNL     1       4.939  -3.177  21.262  0.00  0.00    +0.210 HD
ENDBRANCH  27  28
BRANCH  27  30
ATOM     30  C   UNL     1       6.871  -5.622  21.525  0.00  0.00    +0.189 C 
BRANCH  30  31
ATOM     31  O   UNL     1       5.774  -6.314  20.936  0.00  0.00    -0.392 OA
ATOM     32  H   UNL     1       6.044  -7.253  20.929  0.00  0.00    +0.210 HD
ENDBRANCH  30  31
ENDBRANCH  27  30
ENDBRANCH  24  27
ENDBRANCH   2  24
TORSDOF 10
ENDMDL
MODEL 7
REMARK VINA RESULT:      -5.4      2.911      4.031
REMARK  Name = 
REMARK  11 active torsions:
REMARK  status: ('A' for Active; 'I' for Inactive)
REMARK    1  A    between atoms: C_1  and  C_2
REMARK    2  A    between atoms: N_4  and  C_5
REMARK    3  A    between atoms: C_7  and  N_25
REMARK    4  A    between atoms: C_10  and  C_22
REMARK    5  A    between atoms: C_12  and  C_14
REMARK    6  A    between atoms: C_14  and  C_16
REMARK    7  A    between atoms: C_14  and  O_21
REMARK    8  A    between atoms: C_16  and  C_18
REMARK    9  A    between atoms: C_16  and  O_20
REMARK   10  A    between atoms: C_18  and  O_19
REMARK   11  A    between atoms: C_22  and  O_24
REMARK                            x       y       z     vdW  Elec       q    Type
REMARK                         _______ _______ _______ _____ _____    ______ ____
ROOT
ATOM      1  C   UNL     1       8.301  -0.075  25.099  0.00  0.00    +0.160 C 
ATOM      2  C   UNL     1       8.948  -1.118  24.121  0.00  0.00    +0.229 C 
ATOM      3  O   UNL     1       8.988  -2.501  24.523  0.00  0.00    -0.477 OA
ATOM      4  C   UNL     1       8.545  -2.874  25.763  0.00  0.00    +0.204 C 
ATOM      5  C   UNL     1       8.137  -2.037  26.716  0.00  0.00    +0.071 C 
ATOM      6  C   UNL     1       8.162  -0.559  26.571  0.00  0.00    +0.238 C 
ENDROOT
BRANCH   6   7
ATOM      7  N   UNL     1       6.933   0.023  27.143  0.00  0.00    -0.104 NA
ATOM      8  C   UNL     1       6.974   0.742  28.200  0.00  0.00    +0.377 C 
ATOM      9  N   UNL     1       5.835   1.316  28.645  0.00  0.00    -0.289 N 
ATOM     10  H   UNL     1       5.922   2.252  29.014  0.00  0.00    +0.255 HD
ATOM     11  H   UNL     1       5.092   1.251  27.956  0.00  0.00    +0.255 HD
ATOM     12  N   UNL     1       8.010   1.024  29.010  0.00  0.00    -0.289 N 
ATOM     13  H   UNL     1       7.960   1.794  29.660  0.00  0.00    +0.255 HD
ATOM     14  H   UNL     1       8.930   0.653  28.828  0.00  0.00    +0.255 HD
ENDBRANCH   6   7
BRANCH   1  17
ATOM     15  C   UNL     1       5.600   2.203  23.659  0.00  0.00    +0.109 C 
ATOM     16  C   UNL     1       6.961   1.804  24.152  0.00  0.00    +0.210 C 
ATOM     17  N   UNL     1       7.044   0.518  24.618  0.00  0.00    -0.305 N 
ATOM     18  H   UNL     1       6.206   0.034  24.932  0.00  0.00    +0.149 HD
ATOM     19  O   UNL     1       7.925   2.561  24.076  0.00  0.00    -0.276 OA
ENDBRANCH   1  17
BRANCH   4  20
ATOM     20  C   UNL     1       8.593  -4.341  26.079  0.00  0.00    +0.372 C 
ATOM     21  O   UNL     1       8.200  -4.858  27.106  0.00  0.00    -0.242 OA
BRANCH  20  22
ATOM     22  O   UNL     1       9.198  -5.022  25.077  0.00  0.00    -0.475 OA
ATOM     23  H   UNL     1       8.964  -4.623  24.215  0.00  0.00    +0.296 HD
ENDBRANCH  20  22
ENDBRANCH   4  20
BRANCH   2  24
ATOM     24  C   UNL     1       8.339  -1.098  22.690  0.00  0.00    +0.187 C 
BRANCH  24  25
ATOM     25  O   UNL     1       7.830  -2.405  22.370  0.00  0.00    -0.385 OA
ATOM     26  H   UNL     1       7.514  -2.805  23.199  0.00  0.00    +0.210 HD
ENDBRANCH  24  25
BRANCH  24  27
ATOM     27  C   UNL     1       9.312  -0.690  21.567  0.00  0.00    +0.172 C 
BRANCH  27  28
ATOM     28  O   UNL     1      10.442  -1.568  21.506  0.00  0.00    -0.387 OA
ATOM     29  H   UNL     1      10.561  -1.821  20.574  0.00  0.00    +0.210 HD
ENDBRANCH  27  28
BRANCH  27  30
ATOM     30  C   UNL     1       9.840   0.730  21.842  0.00  0.00    +0.189 C 
BRANCH  30  31
ATOM     31  O   UNL     1       8.974   1.694  21.250  0.00  0.00    -0.392 OA
ATOM     32  H   UNL     1       9.132   2.516  21.754  0.00  0.00    +0.210 HD
ENDBRANCH  30  31
ENDBRANCH  27  30
ENDBRANCH  24  27
ENDBRANCH   2  24
TORSDOF 10
ENDMDL
MODEL 8
REMARK VINA RESULT:      -5.2      2.303      2.970
REMARK  Name = 
REMARK  11 active torsions:
REMARK  status: ('A' for Active; 'I' for Inactive)
REMARK    1  A    between atoms: C_1  and  C_2
REMARK    2  A    between atoms: N_4  and  C_5
REMARK    3  A    between atoms: C_7  and  N_25
REMARK    4  A    between atoms: C_10  and  C_22
REMARK    5  A    between atoms: C_12  and  C_14
REMARK    6  A    between atoms: C_14  and  C_16
REMARK    7  A    between atoms: C_14  and  O_21
REMARK    8  A    between atoms: C_16  and  C_18
REMARK    9  A    between atoms: C_16  and  O_20
REMARK   10  A    between atoms: C_18  and  O_19
REMARK   11  A    between atoms: C_22  and  O_24
REMARK                            x       y       z     vdW  Elec       q    Type
REMARK                         _______ _______ _______ _____ _____    ______ ____
ROOT
ATOM      1  C   UNL     1       7.620  -0.830  24.387  0.00  0.00    +0.160 C 
ATOM      2  C   UNL     1       8.604  -1.377  23.293  0.00  0.00    +0.229 C 
ATOM      3  O   UNL     1       8.197  -2.518  22.514  0.00  0.00    -0.477 OA
ATOM      4  C   UNL     1       7.015  -3.154  22.783  0.00  0.00    +0.204 C 
ATOM      5  C   UNL     1       6.201  -2.861  23.796  0.00  0.00    +0.071 C 
ATOM      6  C   UNL     1       6.503  -1.824  24.816  0.00  0.00    +0.238 C 
ENDROOT
BRANCH   6   7
ATOM      7  N   UNL     1       5.283  -1.055  25.127  0.00  0.00    -0.104 NA
ATOM      8  C   UNL     1       4.874  -0.928  26.331  0.00  0.00    +0.377 C 
ATOM      9  N   UNL     1       3.796  -0.152  26.577  0.00  0.00    -0.289 N 
ATOM     10  H   UNL     1       3.832   0.410  27.416  0.00  0.00    +0.255 HD
ATOM     11  H   UNL     1       3.542   0.401  25.765  0.00  0.00    +0.255 HD
ATOM     12  N   UNL     1       5.341  -1.485  27.463  0.00  0.00    -0.289 N 
ATOM     13  H   UNL     1       5.085  -1.111  28.365  0.00  0.00    +0.255 HD
ATOM     14  H   UNL     1       6.133  -2.109  27.449  0.00  0.00    +0.255 HD
ENDBRANCH   6   7
BRANCH   1  17
ATOM     15  C   UNL     1       6.760   2.887  24.325  0.00  0.00    +0.109 C 
ATOM     16  C   UNL     1       7.402   1.619  24.809  0.00  0.00    +0.210 C 
ATOM     17  N   UNL     1       7.060   0.499  24.097  0.00  0.00    -0.305 N 
ATOM     18  H   UNL     1       6.199   0.481  23.556  0.00  0.00    +0.149 HD
ATOM     19  O   UNL     1       8.214   1.615  25.731  0.00  0.00    -0.276 OA
ENDBRANCH   1  17
BRANCH   4  20
ATOM     20  C   UNL     1       6.659  -4.311  21.896  0.00  0.00    +0.372 C 
ATOM     21  O   UNL     1       7.208  -5.395  21.890  0.00  0.00    -0.242 OA
BRANCH  20  22
ATOM     22  O   UNL     1       5.666  -3.964  21.043  0.00  0.00    -0.475 OA
ATOM     23  H   UNL     1       5.073  -3.312  21.469  0.00  0.00    +0.296 HD
ENDBRANCH  20  22
ENDBRANCH   4  20
BRANCH   2  24
ATOM     24  C   UNL     1       9.072  -0.299  22.274  0.00  0.00    +0.187 C 
BRANCH  24  25
ATOM     25  O   UNL     1       9.387  -0.931  21.021  0.00  0.00    -0.385 OA
ATOM     26  H   UNL     1       9.989  -0.338  20.539  0.00  0.00    +0.210 HD
ENDBRANCH  24  25
BRANCH  24  27
ATOM     27  C   UNL     1      10.304   0.521  22.704  0.00  0.00    +0.172 C 
BRANCH  27  28
ATOM     28  O   UNL     1      10.497   0.476  24.122  0.00  0.00    -0.387 OA
ATOM     29  H   UNL     1      10.450  -0.459  24.390  0.00  0.00    +0.210 HD
ENDBRANCH  27  28
BRANCH  27  30
ATOM     30  C   UNL     1      10.097   1.995  22.309  0.00  0.00    +0.189 C 
BRANCH  30  31
ATOM     31  O   UNL     1       9.096   2.094  21.300  0.00  0.00    -0.392 OA
ATOM     32  H   UNL     1       8.323   2.483  21.751  0.00  0.00    +0.210 HD
ENDBRANCH  30  31
ENDBRANCH  27  30
ENDBRANCH  24  27
ENDBRANCH   2  24
TORSDOF 10
ENDMDL
MODEL 9
REMARK VINA RESULT:      -5.2      2.091      5.130
REMARK  Name = 
REMARK  11 active torsions:
REMARK  status: ('A' for Active; 'I' for Inactive)
REMARK    1  A    between atoms: C_1  and  C_2
REMARK    2  A    between atoms: N_4  and  C_5
REMARK    3  A    between atoms: C_7  and  N_25
REMARK    4  A    between atoms: C_10  and  C_22
REMARK    5  A    between atoms: C_12  and  C_14
REMARK    6  A    between atoms: C_14  and  C_16
REMARK    7  A    between atoms: C_14  and  O_21
REMARK    8  A    between atoms: C_16  and  C_18
REMARK    9  A    between atoms: C_16  and  O_20
REMARK   10  A    between atoms: C_18  and  O_19
REMARK   11  A    between atoms: C_22  and  O_24
REMARK                            x       y       z     vdW  Elec       q    Type
REMARK                         _______ _______ _______ _____ _____    ______ ____
ROOT
ATOM      1  C   UNL     1       6.183  -1.837  24.648  0.00  0.00    +0.160 C 
ATOM      2  C   UNL     1       6.308  -2.564  23.262  0.00  0.00    +0.229 C 
ATOM      3  O   UNL     1       7.507  -2.365  22.489  0.00  0.00    -0.477 OA
ATOM      4  C   UNL     1       8.472  -1.497  22.921  0.00  0.00    +0.204 C 
ATOM      5  C   UNL     1       8.376  -0.715  23.996  0.00  0.00    +0.071 C 
ATOM      6  C   UNL     1       7.162  -0.644  24.849  0.00  0.00    +0.238 C 
ENDROOT
BRANCH   6   7
ATOM      7  N   UNL     1       7.550  -0.589  26.271  0.00  0.00    -0.104 NA
ATOM      8  C   UNL     1       7.687   0.529  26.874  0.00  0.00    +0.377 C 
ATOM      9  N   UNL     1       7.969   0.530  28.195  0.00  0.00    -0.289 N 
ATOM     10  H   UNL     1       7.513   1.241  28.749  0.00  0.00    +0.255 HD
ATOM     11  H   UNL     1       7.854  -0.393  28.601  0.00  0.00    +0.255 HD
ATOM     12  N   UNL     1       7.622   1.782  26.390  0.00  0.00    -0.289 N 
ATOM     13  H   UNL     1       7.504   2.569  27.011  0.00  0.00    +0.255 HD
ATOM     14  H   UNL     1       7.439   1.955  25.413  0.00  0.00    +0.255 HD
ENDBRANCH   6   7
BRANCH   1  17
ATOM     15  C   UNL     1       5.294  -3.961  27.689  0.00  0.00    +0.109 C 
ATOM     16  C   UNL     1       5.084  -2.978  26.575  0.00  0.00    +0.210 C 
ATOM     17  N   UNL     1       6.197  -2.733  25.813  0.00  0.00    -0.305 N 
ATOM     18  H   UNL     1       7.124  -2.912  26.192  0.00  0.00    +0.149 HD
ATOM     19  O   UNL     1       3.982  -2.489  26.340  0.00  0.00    -0.276 OA
ENDBRANCH   1  17
BRANCH   4  20
ATOM     20  C   UNL     1       9.702  -1.382  22.067  0.00  0.00    +0.372 C 
ATOM     21  O   UNL     1      10.795  -1.841  22.334  0.00  0.00    -0.242 OA
BRANCH  20  22
ATOM     22  O   UNL     1       9.446  -0.634  20.968  0.00  0.00    -0.475 OA
ATOM     23  H   UNL     1       8.826   0.088  21.194  0.00  0.00    +0.296 HD
ENDBRANCH  20  22
ENDBRANCH   4  20
BRANCH   2  24
ATOM     24  C   UNL     1       6.090  -4.103  23.340  0.00  0.00    +0.187 C 
BRANCH  24  25
ATOM     25  O   UNL     1       7.357  -4.754  23.541  0.00  0.00    -0.385 OA
ATOM     26  H   UNL     1       7.765  -4.359  24.332  0.00  0.00    +0.210 HD
ENDBRANCH  24  25
BRANCH  24  27
ATOM     27  C   UNL     1       5.434  -4.737  22.098  0.00  0.00    +0.172 C 
BRANCH  27  28
ATOM     28  O   UNL     1       4.265  -5.486  22.447  0.00  0.00    -0.387 OA
ATOM     29  H   UNL     1       4.538  -6.168  23.086  0.00  0.00    +0.210 HD
ENDBRANCH  27  28
BRANCH  27  30
ATOM     30  C   UNL     1       6.429  -5.708  21.436  0.00  0.00    +0.189 C 
BRANCH  30  31
ATOM     31  O   UNL     1       6.391  -6.970  22.096  0.00  0.00    -0.392 OA
ATOM     32  H   UNL     1       7.296  -7.102  22.438  0.00  0.00    +0.210 HD
ENDBRANCH  30  31
ENDBRANCH  27  30
ENDBRANCH  24  27
ENDBRANCH   2  24
TORSDOF 10
ENDMDL
