MODEL 1
REMARK VINA RESULT:      -5.9      0.000      0.000
REMARK  Name = 
REMARK  3 active torsions:
REMARK  status: ('A' for Active; 'I' for Inactive)
REMARK    1  A    between atoms: C_2  and  N_10
REMARK    2  A    between atoms: C_5  and  C_8
REMARK    3  A    between atoms: C_8  and  O_9
REMARK                            x       y       z     vdW  Elec       q    Type
REMARK                         _______ _______ _______ _____ _____    ______ ____
ROOT
ATOM      1  N   UNL     1       8.366  -1.511  22.514  0.00  0.00    -0.269 N 
ATOM      2  C   UNL     1       9.652  -1.079  22.143  0.00  0.00    +0.352 A 
ATOM      3  O   UNL     1      10.582  -1.878  22.061  0.00  0.00    -0.244 OA
ATOM      4  N   UNL     1       9.854   0.261  21.879  0.00  0.00    -0.175 NA
ATOM      5  C   UNL     1       8.893   1.114  22.076  0.00  0.00    +0.159 A 
ATOM      6  N   UNL     1       9.143   2.431  21.793  0.00  0.00    -0.341 N 
ATOM      7  H   UNL     1      10.131   2.657  21.738  0.00  0.00    +0.144 HD
ATOM      8  H   UNL     1       8.579   3.122  22.277  0.00  0.00    +0.144 HD
ATOM      9  C   UNL     1       7.578   0.706  22.607  0.00  0.00    +0.179 A 
ATOM     10  F   UNL     1       6.663   1.658  22.858  0.00  0.00    -0.200 F 
ATOM     11  C   UNL     1       7.380  -0.589  22.811  0.00  0.00    +0.135 A 
ENDROOT
BRANCH   1  16
ATOM     12  C   UNL     1       6.821  -3.365  23.356  0.00  0.00    +0.126 C 
ATOM     13  S   UNL     1       7.021  -3.071  25.121  0.00  0.00    -0.123 S 
ATOM     14  C   UNL     1       8.815  -3.260  25.001  0.00  0.00    +0.203 C 
ATOM     15  O   UNL     1       9.193  -3.474  23.627  0.00  0.00    -0.340 OA
ATOM     16  C   UNL     1       8.173  -2.949  22.749  0.00  0.00    +0.235 C 
BRANCH  14  17
ATOM     17  C   UNL     1       9.318  -4.427  25.862  0.00  0.00    +0.198 C 
BRANCH  17  18
ATOM     18  O   UNL     1      10.254  -5.253  25.166  0.00  0.00    -0.392 OA
ATOM     19  H   UNL     1       9.739  -5.982  24.774  0.00  0.00    +0.210 HD
ENDBRANCH  17  18
ENDBRANCH  14  17
ENDBRANCH   1  16
TORSDOF 3
ENDMDL
MODEL 2
REMARK VINA RESULT:      -5.8      3.804      5.919
REMARK  Name = 
REMARK  3 active torsions:
REMARK  status: ('A' for Active; 'I' for Inactive)
REMARK    1  A    between atoms: C_2  and  N_10
REMARK    2  A    between atoms: C_5  and  C_8
REMARK    3  A    between atoms: C_8  and  O_9
REMARK                            x       y       z     vdW  Elec       q    Type
REMARK                         _______ _______ _______ _____ _____    ______ ____
ROOT
ATOM      1  N   UNL     1       7.392  -4.908  24.778  0.00  0.00    -0.269 N 
ATOM      2  C   UNL     1       6.635  -5.615  25.730  0.00  0.00    +0.352 A 
ATOM      3  O   UNL     1       7.001  -5.674  26.901  0.00  0.00    -0.244 OA
ATOM      4  N   UNL     1       5.478  -6.247  25.323  0.00  0.00    -0.175 NA
ATOM      5  C   UNL     1       5.159  -6.272  24.063  0.00  0.00    +0.159 A 
ATOM      6  N   UNL     1       3.996  -6.908  23.714  0.00  0.00    -0.341 N 
ATOM      7  H   UNL     1       3.649  -7.545  24.424  0.00  0.00    +0.144 HD
ATOM      8  H   UNL     1       3.930  -7.259  22.764  0.00  0.00    +0.144 HD
ATOM      9  C   UNL     1       6.013  -5.665  23.026  0.00  0.00    +0.179 A 
ATOM     10  F   UNL     1       5.655  -5.802  21.737  0.00  0.00    -0.200 F 
ATOM     11  C   UNL     1       7.098  -5.019  23.432  0.00  0.00    +0.135 A 
ENDROOT
BRANCH   1  16
ATOM     12  C   UNL     1       8.369  -2.911  26.038  0.00  0.00    +0.126 C 
ATOM     13  S   UNL     1       8.106  -1.663  24.768  0.00  0.00    -0.123 S 
ATOM     14  C   UNL     1       9.045  -2.623  23.557  0.00  0.00    +0.203 C 
ATOM     15  O   UNL     1       9.465  -3.871  24.143  0.00  0.00    -0.340 OA
ATOM     16  C   UNL     1       8.598  -4.211  25.248  0.00  0.00    +0.235 C 
BRANCH  14  17
ATOM     17  C   UNL     1      10.273  -1.850  23.056  0.00  0.00    +0.198 C 
BRANCH  17  18
ATOM     18  O   UNL     1      10.222  -1.602  21.649  0.00  0.00    -0.392 OA
ATOM     19  H   UNL     1       9.477  -2.127  21.304  0.00  0.00    +0.210 HD
ENDBRANCH  17  18
ENDBRANCH  14  17
ENDBRANCH   1  16
TORSDOF 3
ENDMDL
MODEL 3
REMARK VINA RESULT:      -5.8      2.646      5.032
REMARK  Name = 
REMARK  3 active torsions:
REMARK  status: ('A' for Active; 'I' for Inactive)
REMARK    1  A    between atoms: C_2  and  N_10
REMARK    2  A    between atoms: C_5  and  C_8
REMARK    3  A    between atoms: C_8  and  O_9
REMARK                            x       y       z     vdW  Elec       q    Type
REMARK                         _______ _______ _______ _____ _____    ______ ____
ROOT
ATOM      1  N   UNL     1       8.607  -2.397  23.141  0.00  0.00    -0.269 N 
ATOM      2  C   UNL     1       8.864  -3.560  23.889  0.00  0.00    +0.352 A 
ATOM      3  O   UNL     1       9.951  -3.725  24.437  0.00  0.00    -0.244 OA
ATOM      4  N   UNL     1       7.875  -4.517  23.991  0.00  0.00    -0.175 NA
ATOM      5  C   UNL     1       6.771  -4.386  23.318  0.00  0.00    +0.159 A 
ATOM      6  N   UNL     1       5.819  -5.362  23.459  0.00  0.00    -0.341 N 
ATOM      7  H   UNL     1       6.178  -6.231  23.840  0.00  0.00    +0.144 HD
ATOM      8  H   UNL     1       5.160  -5.477  22.697  0.00  0.00    +0.144 HD
ATOM      9  C   UNL     1       6.537  -3.248  22.409  0.00  0.00    +0.179 A 
ATOM     10  F   UNL     1       5.403  -3.225  21.687  0.00  0.00    -0.200 F 
ATOM     11  C   UNL     1       7.473  -2.310  22.356  0.00  0.00    +0.135 A 
ENDROOT
BRANCH   1  16
ATOM     12  C   UNL     1       9.952  -0.620  24.392  0.00  0.00    +0.126 C 
ATOM     13  S   UNL     1       8.682   0.655  24.453  0.00  0.00    -0.123 S 
ATOM     14  C   UNL     1       8.504   0.635  22.653  0.00  0.00    +0.203 C 
ATOM     15  O   UNL     1       9.364  -0.374  22.088  0.00  0.00    -0.340 OA
ATOM     16  C   UNL     1       9.664  -1.377  23.084  0.00  0.00    +0.235 C 
BRANCH  14  17
ATOM     17  C   UNL     1       8.840   2.001  22.039  0.00  0.00    +0.198 C 
BRANCH  17  18
ATOM     18  O   UNL     1      10.182   2.063  21.550  0.00  0.00    -0.392 OA
ATOM     19  H   UNL     1      10.119   2.291  20.604  0.00  0.00    +0.210 HD
ENDBRANCH  17  18
ENDBRANCH  14  17
ENDBRANCH   1  16
TORSDOF 3
ENDMDL
MODEL 4
REMARK VINA RESULT:      -5.4      3.242      5.397
REMARK  Name = 
REMARK  3 active torsions:
REMARK  status: ('A' for Active; 'I' for Inactive)
REMARK    1  A    between atoms: C_2  and  N_10
REMARK    2  A    between atoms: C_5  and  C_8
REMARK    3  A    between atoms: C_8  and  O_9
REMARK                            x       y       z     vdW  Elec       q    Type
REMARK                         _______ _______ _______ _____ _____    ______ ____
ROOT
ATOM      1  N   UNL     1       8.601  -2.819  23.278  0.00  0.00    -0.269 N 
ATOM      2  C   UNL     1       7.395  -3.480  22.984  0.00  0.00    +0.352 A 
ATOM      3  O   UNL     1       6.817  -3.284  21.917  0.00  0.00    -0.244 OA
ATOM      4  N   UNL     1       6.867  -4.347  23.918  0.00  0.00    -0.175 NA
ATOM      5  C   UNL     1       7.425  -4.463  25.087  0.00  0.00    +0.159 A 
ATOM      6  N   UNL     1       6.864  -5.343  25.975  0.00  0.00    -0.341 N 
ATOM      7  H   UNL     1       5.908  -5.599  25.750  0.00  0.00    +0.144 HD
ATOM      8  H   UNL     1       7.033  -5.173  26.961  0.00  0.00    +0.144 HD
ATOM      9  C   UNL     1       8.606  -3.669  25.474  0.00  0.00    +0.179 A 
ATOM     10  F   UNL     1       9.077  -3.787  26.728  0.00  0.00    -0.200 F 
ATOM     11  C   UNL     1       9.134  -2.874  24.553  0.00  0.00    +0.135 A 
ENDROOT
BRANCH   1  16
ATOM     12  C   UNL     1      10.582  -1.402  22.503  0.00  0.00    +0.126 C 
ATOM     13  S   UNL     1      10.340  -0.007  23.616  0.00  0.00    -0.123 S 
ATOM     14  C   UNL     1       8.652   0.243  23.017  0.00  0.00    +0.203 C 
ATOM     15  O   UNL     1       8.322  -0.773  22.049  0.00  0.00    -0.340 OA
ATOM     16  C   UNL     1       9.161  -1.932  22.248  0.00  0.00    +0.235 C 
BRANCH  14  17
ATOM     17  C   UNL     1       8.479   1.632  22.387  0.00  0.00    +0.198 C 
BRANCH  17  18
ATOM     18  O   UNL     1       9.535   1.952  21.478  0.00  0.00    -0.392 OA
ATOM     19  H   UNL     1       9.542   1.247  20.805  0.00  0.00    +0.210 HD
ENDBRANCH  17  18
ENDBRANCH  14  17
ENDBRANCH   1  16
TORSDOF 3
ENDMDL
MODEL 5
REMARK VINA RESULT:      -5.4      3.805      5.745
REMARK  Name = 
REMARK  3 active torsions:
REMARK  status: ('A' for Active; 'I' for Inactive)
REMARK    1  A    between atoms: C_2  and  N_10
REMARK    2  A    between atoms: C_5  and  C_8
REMARK    3  A    between atoms: C_8  and  O_9
REMARK                            x       y       z     vdW  Elec       q    Type
REMARK                         _______ _______ _______ _____ _____    ______ ____
ROOT
ATOM      1  N   UNL     1       7.962  -2.598  24.908  0.00  0.00    -0.269 N 
ATOM      2  C   UNL     1       7.319  -2.605  26.159  0.00  0.00    +0.352 A 
ATOM      3  O   UNL     1       6.797  -1.584  26.601  0.00  0.00    -0.244 OA
ATOM      4  N   UNL     1       7.291  -3.777  26.887  0.00  0.00    -0.175 NA
ATOM      5  C   UNL     1       7.940  -4.821  26.463  0.00  0.00    +0.159 A 
ATOM      6  N   UNL     1       7.875  -5.962  27.220  0.00  0.00    -0.341 N 
ATOM      7  H   UNL     1       7.573  -5.801  28.176  0.00  0.00    +0.144 HD
ATOM      8  H   UNL     1       8.638  -6.623  27.124  0.00  0.00    +0.144 HD
ATOM      9  C   UNL     1       8.745  -4.796  25.228  0.00  0.00    +0.179 A 
ATOM     10  F   UNL     1       9.452  -5.891  24.899  0.00  0.00    -0.200 F 
ATOM     11  C   UNL     1       8.726  -3.680  24.512  0.00  0.00    +0.135 A 
ENDROOT
BRANCH   1  16
ATOM     12  C   UNL     1       8.400  -1.440  22.673  0.00  0.00    +0.126 C 
ATOM     13  S   UNL     1      10.197  -1.385  22.770  0.00  0.00    -0.123 S 
ATOM     14  C   UNL     1      10.136  -0.501  24.347  0.00  0.00    +0.203 C 
ATOM     15  O   UNL     1       8.766  -0.339  24.763  0.00  0.00    -0.340 OA
ATOM     16  C   UNL     1       7.941  -1.346  24.138  0.00  0.00    +0.235 C 
BRANCH  14  17
ATOM     17  C   UNL     1      10.811   0.874  24.247  0.00  0.00    +0.198 C 
BRANCH  17  18
ATOM     18  O   UNL     1      10.259   1.676  23.200  0.00  0.00    -0.392 OA
ATOM     19  H   UNL     1       9.292   1.661  23.323  0.00  0.00    +0.210 HD
ENDBRANCH  17  18
ENDBRANCH  14  17
ENDBRANCH   1  16
TORSDOF 3
ENDMDL
MODEL 6
REMARK VINA RESULT:      -5.4      3.804      5.405
REMARK  Name = 
REMARK  3 active torsions:
REMARK  status: ('A' for Active; 'I' for Inactive)
REMARK    1  A    between atoms: C_2  and  N_10
REMARK    2  A    between atoms: C_5  and  C_8
REMARK    3  A    between atoms: C_8  and  O_9
REMARK                            x       y       z     vdW  Elec       q    Type
REMARK                         _______ _______ _______ _____ _____    ______ ____
ROOT
ATOM      1  N   UNL     1       6.638  -3.324  23.165  0.00  0.00    -0.269 N 
ATOM      2  C   UNL     1       5.795  -3.830  22.159  0.00  0.00    +0.352 A 
ATOM      3  O   UNL     1       5.572  -3.177  21.142  0.00  0.00    -0.244 OA
ATOM      4  N   UNL     1       5.216  -5.069  22.337  0.00  0.00    -0.175 NA
ATOM      5  C   UNL     1       5.368  -5.702  23.462  0.00  0.00    +0.159 A 
ATOM      6  N   UNL     1       4.777  -6.933  23.586  0.00  0.00    -0.341 N 
ATOM      7  H   UNL     1       4.041  -7.103  22.907  0.00  0.00    +0.144 HD
ATOM      8  H   UNL     1       4.564  -7.250  24.526  0.00  0.00    +0.144 HD
ATOM      9  C   UNL     1       6.125  -5.127  24.590  0.00  0.00    +0.179 A 
ATOM     10  F   UNL     1       6.170  -5.808  25.748  0.00  0.00    -0.200 F 
ATOM     11  C   UNL     1       6.717  -3.957  24.391  0.00  0.00    +0.135 A 
ENDROOT
BRANCH   1  16
ATOM     12  C   UNL     1       8.668  -2.047  22.282  0.00  0.00    +0.126 C 
ATOM     13  S   UNL     1       9.785  -2.377  23.655  0.00  0.00    -0.123 S 
ATOM     14  C   UNL     1       8.616  -1.675  24.842  0.00  0.00    +0.203 C 
ATOM     15  O   UNL     1       7.408  -1.278  24.162  0.00  0.00    -0.340 OA
ATOM     16  C   UNL     1       7.273  -2.019  22.929  0.00  0.00    +0.235 C 
BRANCH  14  17
ATOM     17  C   UNL     1       9.215  -0.467  25.575  0.00  0.00    +0.198 C 
BRANCH  17  18
ATOM     18  O   UNL     1       9.156  -0.608  26.996  0.00  0.00    -0.392 OA
ATOM     19  H   UNL     1       8.954   0.277  27.352  0.00  0.00    +0.210 HD
ENDBRANCH  17  18
ENDBRANCH  14  17
ENDBRANCH   1  16
TORSDOF 3
ENDMDL
MODEL 7
REMARK VINA RESULT:      -5.4      3.164      4.140
REMARK  Name = 
REMARK  3 active torsions:
REMARK  status: ('A' for Active; 'I' for Inactive)
REMARK    1  A    between atoms: C_2  and  N_10
REMARK    2  A    between atoms: C_5  and  C_8
REMARK    3  A    between atoms: C_8  and  O_9
REMARK                            x       y       z     vdW  Elec       q    Type
REMARK                         _______ _______ _______ _____ _____    ______ ____
ROOT
ATOM      1  N   UNL     1       7.508  -4.276  24.957  0.00  0.00    -0.269 N 
ATOM      2  C   UNL     1       8.864  -4.517  24.672  0.00  0.00    +0.352 A 
ATOM      3  O   UNL     1       9.330  -5.651  24.760  0.00  0.00    -0.244 OA
ATOM      4  N   UNL     1       9.664  -3.457  24.298  0.00  0.00    -0.175 NA
ATOM      5  C   UNL     1       9.190  -2.247  24.314  0.00  0.00    +0.159 A 
ATOM      6  N   UNL     1      10.024  -1.231  23.928  0.00  0.00    -0.341 N 
ATOM      7  H   UNL     1      11.008  -1.480  23.947  0.00  0.00    +0.144 HD
ATOM      8  H   UNL     1       9.817  -0.304  24.284  0.00  0.00    +0.144 HD
ATOM      9  C   UNL     1       7.813  -1.950  24.753  0.00  0.00    +0.179 A 
ATOM     10  F   UNL     1       7.422  -0.665  24.819  0.00  0.00    -0.200 F 
ATOM     11  C   UNL     1       7.038  -2.980  25.065  0.00  0.00    +0.135 A 
ENDROOT
BRANCH   1  16
ATOM     12  C   UNL     1       5.162  -5.163  25.448  0.00  0.00    +0.126 C 
ATOM     13  S   UNL     1       4.980  -4.481  27.105  0.00  0.00    -0.123 S 
ATOM     14  C   UNL     1       6.487  -5.309  27.666  0.00  0.00    +0.203 C 
ATOM     15  O   UNL     1       7.096  -6.013  26.566  0.00  0.00    -0.340 OA
ATOM     16  C   UNL     1       6.671  -5.431  25.314  0.00  0.00    +0.235 C 
BRANCH  14  17
ATOM     17  C   UNL     1       6.197  -6.291  28.809  0.00  0.00    +0.198 C 
BRANCH  17  18
ATOM     18  O   UNL     1       5.569  -7.490  28.351  0.00  0.00    -0.392 OA
ATOM     19  H   UNL     1       6.288  -8.115  28.143  0.00  0.00    +0.210 HD
ENDBRANCH  17  18
ENDBRANCH  14  17
ENDBRANCH   1  16
TORSDOF 3
ENDMDL
MODEL 8
REMARK VINA RESULT:      -5.4      4.596      6.015
REMARK  Name = 
REMARK  3 active torsions:
REMARK  status: ('A' for Active; 'I' for Inactive)
REMARK    1  A    between atoms: C_2  and  N_10
REMARK    2  A    between atoms: C_5  and  C_8
REMARK    3  A    between atoms: C_8  and  O_9
REMARK                            x       y       z     vdW  Elec       q    Type
REMARK                         _______ _______ _______ _____ _____    ______ ____
ROOT
ATOM      1  N   UNL     1       6.464  -4.194  24.416  0.00  0.00    -0.269 N 
ATOM      2  C   UNL     1       7.511  -4.420  23.505  0.00  0.00    +0.352 A 
ATOM      3  O   UNL     1       7.357  -4.198  22.306  0.00  0.00    -0.244 OA
ATOM      4  N   UNL     1       8.714  -4.903  23.979  0.00  0.00    -0.175 NA
ATOM      5  C   UNL     1       8.831  -5.240  25.229  0.00  0.00    +0.159 A 
ATOM      6  N   UNL     1      10.048  -5.709  25.651  0.00  0.00    -0.341 N 
ATOM      7  H   UNL     1      10.649  -6.023  24.896  0.00  0.00    +0.144 HD
ATOM      8  H   UNL     1      10.053  -6.307  26.471  0.00  0.00    +0.144 HD
ATOM      9  C   UNL     1       7.702  -5.152  26.175  0.00  0.00    +0.179 A 
ATOM     10  F   UNL     1       7.881  -5.594  27.432  0.00  0.00    -0.200 F 
ATOM     11  C   UNL     1       6.566  -4.642  25.720  0.00  0.00    +0.135 A 
ENDROOT
BRANCH   1  16
ATOM     12  C   UNL     1       4.183  -3.163  24.929  0.00  0.00    +0.126 C 
ATOM     13  S   UNL     1       3.339  -4.668  25.441  0.00  0.00    -0.123 S 
ATOM     14  C   UNL     1       3.727  -5.480  23.872  0.00  0.00    +0.203 C 
ATOM     15  O   UNL     1       4.527  -4.604  23.054  0.00  0.00    -0.340 OA
ATOM     16  C   UNL     1       5.209  -3.641  23.887  0.00  0.00    +0.235 C 
BRANCH  14  17
ATOM     17  C   UNL     1       2.452  -5.873  23.112  0.00  0.00    +0.198 C 
BRANCH  17  18
ATOM     18  O   UNL     1       2.523  -7.196  22.578  0.00  0.00    -0.392 OA
ATOM     19  H   UNL     1       2.869  -7.763  23.293  0.00  0.00    +0.210 HD
ENDBRANCH  17  18
ENDBRANCH  14  17
ENDBRANCH   1  16
TORSDOF 3
ENDMDL
MODEL 9
REMARK VINA RESULT:      -5.3      2.120      2.469
REMARK  Name = 
REMARK  3 active torsions:
REMARK  status: ('A' for Active; 'I' for Inactive)
REMARK    1  A    between atoms: C_2  and  N_10
REMARK    2  A    between atoms: C_5  and  C_8
REMARK    3  A    between atoms: C_8  and  O_9
REMARK                            x       y       z     vdW  Elec       q    Type
REMARK                         _______ _______ _______ _____ _____    ______ ____
ROOT
ATOM      1  N   UNL     1       7.485  -1.173  23.518  0.00  0.00    -0.269 N 
ATOM      2  C   UNL     1       6.857   0.078  23.652  0.00  0.00    +0.352 A 
ATOM      3  O   UNL     1       5.821   0.193  24.304  0.00  0.00    -0.244 OA
ATOM      4  N   UNL     1       7.420   1.175  23.031  0.00  0.00    -0.175 NA
ATOM      5  C   UNL     1       8.450   1.024  22.254  0.00  0.00    +0.159 A 
ATOM      6  N   UNL     1       8.974   2.146  21.667  0.00  0.00    -0.341 N 
ATOM      7  H   UNL     1       8.339   2.938  21.659  0.00  0.00    +0.144 HD
ATOM      8  H   UNL     1       9.496   2.015  20.806  0.00  0.00    +0.144 HD
ATOM      9  C   UNL     1       9.038  -0.301  21.979  0.00  0.00    +0.179 A 
ATOM     10  F   UNL     1      10.053  -0.383  21.100  0.00  0.00    -0.200 F 
ATOM     11  C   UNL     1       8.520  -1.341  22.617  0.00  0.00    +0.135 A 
ENDROOT
BRANCH   1  16
ATOM     12  C   UNL     1       6.880  -2.242  25.759  0.00  0.00    +0.126 C 
ATOM     13  S   UNL     1       8.532  -2.778  26.232  0.00  0.00    -0.123 S 
ATOM     14  C   UNL     1       8.717  -3.727  24.703  0.00  0.00    +0.203 C 
ATOM     15  O   UNL     1       7.551  -3.549  23.874  0.00  0.00    -0.340 OA
ATOM     16  C   UNL     1       6.885  -2.315  24.223  0.00  0.00    +0.235 C 
BRANCH  14  17
ATOM     17  C   UNL     1       8.922  -5.221  24.989  0.00  0.00    +0.198 C 
BRANCH  17  18
ATOM     18  O   UNL     1      10.278  -5.529  25.321  0.00  0.00    -0.392 OA
ATOM     19  H   UNL     1      10.272  -5.827  26.250  0.00  0.00    +0.210 HD
ENDBRANCH  17  18
ENDBRANCH  14  17
ENDBRANCH   1  16
TORSDOF 3
ENDMDL
