MODEL 1
REMARK VINA RESULT:      -6.5      0.000      0.000
REMARK  Name = 
REMARK  6 active torsions:
REMARK  status: ('A' for Active; 'I' for Inactive)
REMARK    1  A    between atoms: C6_3  and  N6_23
REMARK    2  A    between atoms: N9_7  and  C1*_10
REMARK    3  A    between atoms: C2*_12  and  O2*_22
REMARK    4  A    between atoms: C3*_14  and  O3*_21
REMARK    5  A    between atoms: C4*_16  and  C5*_19
REMARK    6  A    between atoms: C5*_19  and  O5*_20
REMARK                            x       y       z     vdW  Elec       q    Type
REMARK                         _______ _______ _______ _____ _____    ______ ____
ROOT
ATOM      1  C2    A A   1      10.747   0.685  24.708  0.00  0.00    +0.225 A 
ATOM      2  N3    A A   1       9.998  -0.443  24.746  0.00  0.00    -0.216 NA
ATOM      3  C4    A A   1       8.866  -0.290  24.032  0.00  0.00    +0.167 A 
ATOM      4  N9    A A   1       7.853  -1.190  23.843  0.00  0.00    -0.286 N 
ATOM      5  C8    A A   1       6.906  -0.571  23.058  0.00  0.00    +0.203 A 
ATOM      6  N7    A A   1       7.255   0.651  22.722  0.00  0.00    -0.231 NA
ATOM      7  C5    A A   1       8.480   0.838  23.323  0.00  0.00    +0.147 A 
ATOM      8  C6    A A   1       9.358   1.934  23.336  0.00  0.00    +0.147 A 
ATOM      9  N1    A A   1      10.494   1.841  24.063  0.00  0.00    -0.219 NA
ENDROOT
BRANCH   4  10
ATOM     10  C1*   A A   1       7.763  -2.576  24.233  0.00  0.00    +0.253 C 
ATOM     11  O4*   A A   1       7.749  -2.650  25.680  0.00  0.00    -0.346 OA
ATOM     12  C4*   A A   1       8.329  -3.926  26.052  0.00  0.00    +0.177 C 
ATOM     13  C3*   A A   1       8.512  -4.721  24.755  0.00  0.00    +0.178 C 
ATOM     14  C2*   A A   1       8.798  -3.606  23.759  0.00  0.00    +0.195 C 
BRANCH  13  15
ATOM     15  O3*   A A   1       9.584  -5.651  24.833  0.00  0.00    -0.386 OA
ATOM     16  H3*   A A   1      10.107  -5.512  24.015  0.00  0.00    +0.210 HD
ENDBRANCH  13  15
BRANCH  14  17
ATOM     17  O2*   A A   1      10.171  -3.228  23.954  0.00  0.00    -0.385 OA
ATOM     18  H2*   A A   1      10.184  -2.246  23.964  0.00  0.00    +0.210 HD
ENDBRANCH  14  17
BRANCH  12  19
ATOM     19  C5*   A A   1       7.405  -4.611  27.054  0.00  0.00    +0.190 C 
BRANCH  19  20
ATOM     20  O5*   A A   1       7.956  -5.866  27.457  0.00  0.00    -0.392 OA
ATOM     21  H5*   A A   1       7.726  -5.967  28.399  0.00  0.00    +0.210 HD
ENDBRANCH  19  20
ENDBRANCH  12  19
ENDBRANCH   4  10
BRANCH   8  22
ATOM     22  N6    A A   1       9.107   3.115  22.649  0.00  0.00    -0.341 N 
ATOM     23  H61   A A   1       8.872   3.892  23.258  0.00  0.00    +0.144 HD
ATOM     24  H62   A A   1       9.774   3.282  21.908  0.00  0.00    +0.144 HD
ENDBRANCH   8  22
TORSDOF 6
ENDMDL
MODEL 2
REMARK VINA RESULT:      -6.0      3.318      6.277
REMARK  Name = 
REMARK  6 active torsions:
REMARK  status: ('A' for Active; 'I' for Inactive)
REMARK    1  A    between atoms: C6_3  and  N6_23
REMARK    2  A    between atoms: N9_7  and  C1*_10
REMARK    3  A    between atoms: C2*_12  and  O2*_22
REMARK    4  A    between atoms: C3*_14  and  O3*_21
REMARK    5  A    between atoms: C4*_16  and  C5*_19
REMARK    6  A    between atoms: C5*_19  and  O5*_20
REMARK                            x       y       z     vdW  Elec       q    Type
REMARK                         _______ _______ _______ _____ _____    ______ ____
ROOT
ATOM      1  C2    A A   1       7.129  -3.807  26.860  0.00  0.00    +0.225 A 
ATOM      2  N3    A A   1       7.326  -2.628  26.223  0.00  0.00    -0.216 NA
ATOM      3  C4    A A   1       8.334  -2.727  25.336  0.00  0.00    +0.167 A 
ATOM      4  N9    A A   1       8.842  -1.756  24.516  0.00  0.00    -0.286 N 
ATOM      5  C8    A A   1       9.874  -2.328  23.806  0.00  0.00    +0.203 A 
ATOM      6  N7    A A   1      10.045  -3.597  24.106  0.00  0.00    -0.231 NA
ATOM      7  C5    A A   1       9.087  -3.859  25.058  0.00  0.00    +0.147 A 
ATOM      8  C6    A A   1       8.765  -5.030  25.764  0.00  0.00    +0.147 A 
ATOM      9  N1    A A   1       7.781  -4.975  26.689  0.00  0.00    -0.219 NA
ENDROOT
BRANCH   4  10
ATOM     10  C1*   A A   1       8.375  -0.412  24.274  0.00  0.00    +0.253 C 
ATOM     11  O4*   A A   1       8.724  -0.038  22.918  0.00  0.00    -0.346 OA
ATOM     12  C4*   A A   1       8.893   1.402  22.899  0.00  0.00    +0.177 C 
ATOM     13  C3*   A A   1       8.428   1.918  24.266  0.00  0.00    +0.178 C 
ATOM     14  C2*   A A   1       8.812   0.755  25.170  0.00  0.00    +0.195 C 
BRANCH  13  15
ATOM     15  O3*   A A   1       9.081   3.123  24.643  0.00  0.00    -0.386 OA
ATOM     16  H3*   A A   1       8.601   3.439  25.439  0.00  0.00    +0.210 HD
ENDBRANCH  13  15
BRANCH  14  17
ATOM     17  O2*   A A   1      10.228   0.861  25.390  0.00  0.00    -0.385 OA
ATOM     18  H2*   A A   1      10.603  -0.022  25.182  0.00  0.00    +0.210 HD
ENDBRANCH  14  17
BRANCH  12  19
ATOM     19  C5*   A A   1       8.090   1.973  21.734  0.00  0.00    +0.190 C 
BRANCH  19  20
ATOM     20  O5*   A A   1       7.977   3.393  21.861  0.00  0.00    -0.392 OA
ATOM     21  H5*   A A   1       8.087   3.583  22.810  0.00  0.00    +0.210 HD
ENDBRANCH  19  20
ENDBRANCH  12  19
ENDBRANCH   4  10
BRANCH   8  22
ATOM     22  N6    A A   1       9.420  -6.238  25.568  0.00  0.00    -0.341 N 
ATOM     23  H61   A A   1       9.799  -6.634  26.422  0.00  0.00    +0.144 HD
ATOM     24  H62   A A   1       8.918  -6.855  24.944  0.00  0.00    +0.144 HD
ENDBRANCH   8  22
TORSDOF 6
ENDMDL
MODEL 3
REMARK VINA RESULT:      -5.9      1.821      2.477
REMARK  Name = 
REMARK  6 active torsions:
REMARK  status: ('A' for Active; 'I' for Inactive)
REMARK    1  A    between atoms: C6_3  and  N6_23
REMARK    2  A    between atoms: N9_7  and  C1*_10
REMARK    3  A    between atoms: C2*_12  and  O2*_22
REMARK    4  A    between atoms: C3*_14  and  O3*_21
REMARK    5  A    between atoms: C4*_16  and  C5*_19
REMARK    6  A    between atoms: C5*_19  and  O5*_20
REMARK                            x       y       z     vdW  Elec       q    Type
REMARK                         _______ _______ _______ _____ _____    ______ ____
ROOT
ATOM      1  C2    A A   1       6.870   1.455  22.547  0.00  0.00    +0.225 A 
ATOM      2  N3    A A   1       6.835   0.196  23.044  0.00  0.00    -0.216 NA
ATOM      3  C4    A A   1       8.056  -0.369  23.003  0.00  0.00    +0.167 A 
ATOM      4  N9    A A   1       8.424  -1.627  23.396  0.00  0.00    -0.286 N 
ATOM      5  C8    A A   1       9.772  -1.750  23.143  0.00  0.00    +0.203 A 
ATOM      6  N7    A A   1      10.287  -0.653  22.632  0.00  0.00    -0.231 NA
ATOM      7  C5    A A   1       9.226   0.218  22.542  0.00  0.00    +0.147 A 
ATOM      8  C6    A A   1       9.139   1.542  22.080  0.00  0.00    +0.147 A 
ATOM      9  N1    A A   1       7.928   2.143  22.072  0.00  0.00    -0.219 NA
ENDROOT
BRANCH   4  10
ATOM     10  C1*   A A   1       7.658  -2.645  24.074  0.00  0.00    +0.253 C 
ATOM     11  O4*   A A   1       8.571  -3.507  24.796  0.00  0.00    -0.346 OA
ATOM     12  C4*   A A   1       7.954  -4.817  24.876  0.00  0.00    +0.177 C 
ATOM     13  C3*   A A   1       6.524  -4.663  24.347  0.00  0.00    +0.178 C 
ATOM     14  C2*   A A   1       6.709  -3.572  23.302  0.00  0.00    +0.195 C 
BRANCH  13  15
ATOM     15  O3*   A A   1       6.022  -5.865  23.778  0.00  0.00    -0.386 OA
ATOM     16  H3*   A A   1       6.676  -6.119  23.091  0.00  0.00    +0.210 HD
ENDBRANCH  13  15
BRANCH  14  17
ATOM     17  O2*   A A   1       7.279  -4.208  22.146  0.00  0.00    -0.385 OA
ATOM     18  H2*   A A   1       8.214  -4.404  22.376  0.00  0.00    +0.210 HD
ENDBRANCH  14  17
BRANCH  12  19
ATOM     19  C5*   A A   1       8.013  -5.298  26.323  0.00  0.00    +0.190 C 
BRANCH  19  20
ATOM     20  O5*   A A   1       6.830  -6.031  26.649  0.00  0.00    -0.392 OA
ATOM     21  H5*   A A   1       6.260  -5.978  25.860  0.00  0.00    +0.210 HD
ENDBRANCH  19  20
ENDBRANCH  12  19
ENDBRANCH   4  10
BRANCH   8  22
ATOM     22  N6    A A   1      10.234   2.256  21.615  0.00  0.00    -0.341 N 
ATOM     23  H61   A A   1      11.094   1.716  21.607  0.00  0.00    +0.144 HD
ATOM     24  H62   A A   1      10.018   2.810  20.797  0.00  0.00    +0.144 HD
ENDBRANCH   8  22
TORSDOF 6
ENDMDL
MODEL 4
REMARK VINA RESULT:      -5.9      3.269      6.082
REMARK  Name = 
REMARK  6 active torsions:
REMARK  status: ('A' for Active; 'I' for Inactive)
REMARK    1  A    between atoms: C6_3  and  N6_23
REMARK    2  A    between atoms: N9_7  and  C1*_10
REMARK    3  A    between atoms: C2*_12  and  O2*_22
REMARK    4  A    between atoms: C3*_14  and  O3*_21
REMARK    5  A    between atoms: C4*_16  and  C5*_19
REMARK    6  A    between atoms: C5*_19  and  O5*_20
REMARK                            x       y       z     vdW  Elec       q    Type
REMARK                         _______ _______ _______ _____ _____    ______ ____
ROOT
ATOM      1  C2    A A   1       5.848  -2.630  22.244  0.00  0.00    +0.225 A 
ATOM      2  N3    A A   1       6.858  -1.804  22.611  0.00  0.00    -0.216 NA
ATOM      3  C4    A A   1       7.841  -2.492  23.221  0.00  0.00    +0.167 A 
ATOM      4  N9    A A   1       9.011  -2.016  23.746  0.00  0.00    -0.286 N 
ATOM      5  C8    A A   1       9.681  -3.095  24.280  0.00  0.00    +0.203 A 
ATOM      6  N7    A A   1       9.026  -4.223  24.115  0.00  0.00    -0.231 NA
ATOM      7  C5    A A   1       7.875  -3.860  23.453  0.00  0.00    +0.147 A 
ATOM      8  C6    A A   1       6.781  -4.614  22.997  0.00  0.00    +0.147 A 
ATOM      9  N1    A A   1       5.753  -3.965  22.405  0.00  0.00    -0.219 NA
ENDROOT
BRANCH   4  10
ATOM     10  C1*   A A   1       9.581  -0.692  23.685  0.00  0.00    +0.253 C 
ATOM     11  O4*   A A   1       8.617   0.252  24.212  0.00  0.00    -0.346 OA
ATOM     12  C4*   A A   1       8.858   1.524  23.558  0.00  0.00    +0.177 C 
ATOM     13  C3*   A A   1      10.152   1.367  22.753  0.00  0.00    +0.178 C 
ATOM     14  C2*   A A   1      10.082  -0.102  22.359  0.00  0.00    +0.195 C 
BRANCH  13  15
ATOM     15  O3*   A A   1      10.193   2.220  21.617  0.00  0.00    -0.386 OA
ATOM     16  H3*   A A   1       9.568   2.949  21.819  0.00  0.00    +0.210 HD
ENDBRANCH  13  15
BRANCH  14  17
ATOM     17  O2*   A A   1       9.157  -0.186  21.262  0.00  0.00    -0.385 OA
ATOM     18  H2*   A A   1       8.397  -0.716  21.588  0.00  0.00    +0.210 HD
ENDBRANCH  14  17
BRANCH  12  19
ATOM     19  C5*   A A   1       8.938   2.614  24.622  0.00  0.00    +0.190 C 
BRANCH  19  20
ATOM     20  O5*   A A   1       9.503   3.804  24.069  0.00  0.00    -0.392 OA
ATOM     21  H5*   A A   1       9.071   4.544  24.534  0.00  0.00    +0.210 HD
ENDBRANCH  19  20
ENDBRANCH  12  19
ENDBRANCH   4  10
BRANCH   8  22
ATOM     22  N6    A A   1       6.697  -5.992  23.140  0.00  0.00    -0.341 N 
ATOM     23  H61   A A   1       5.781  -6.311  23.438  0.00  0.00    +0.144 HD
ATOM     24  H62   A A   1       7.146  -6.489  22.384  0.00  0.00    +0.144 HD
ENDBRANCH   8  22
TORSDOF 6
ENDMDL
MODEL 5
REMARK VINA RESULT:      -5.8      3.105      6.082
REMARK  Name = 
REMARK  6 active torsions:
REMARK  status: ('A' for Active; 'I' for Inactive)
REMARK    1  A    between atoms: C6_3  and  N6_23
REMARK    2  A    between atoms: N9_7  and  C1*_10
REMARK    3  A    between atoms: C2*_12  and  O2*_22
REMARK    4  A    between atoms: C3*_14  and  O3*_21
REMARK    5  A    between atoms: C4*_16  and  C5*_19
REMARK    6  A    between atoms: C5*_19  and  O5*_20
REMARK                            x       y       z     vdW  Elec       q    Type
REMARK                         _______ _______ _______ _____ _____    ______ ____
ROOT
ATOM      1  C2    A A   1       7.865  -3.995  22.971  0.00  0.00    +0.225 A 
ATOM      2  N3    A A   1       8.052  -2.661  23.111  0.00  0.00    -0.216 NA
ATOM      3  C4    A A   1       8.280  -2.343  24.399  0.00  0.00    +0.167 A 
ATOM      4  N9    A A   1       8.498  -1.106  24.942  0.00  0.00    -0.286 N 
ATOM      5  C8    A A   1       8.661  -1.285  26.298  0.00  0.00    +0.203 A 
ATOM      6  N7    A A   1       8.579  -2.550  26.649  0.00  0.00    -0.231 NA
ATOM      7  C5    A A   1       8.344  -3.221  25.471  0.00  0.00    +0.147 A 
ATOM      8  C6    A A   1       8.164  -4.586  25.192  0.00  0.00    +0.147 A 
ATOM      9  N1    A A   1       7.901  -4.953  23.918  0.00  0.00    -0.219 NA
ENDROOT
BRANCH   4  10
ATOM     10  C1*   A A   1       8.672   0.171  24.295  0.00  0.00    +0.253 C 
ATOM     11  O4*   A A   1       7.523   0.422  23.449  0.00  0.00    -0.346 OA
ATOM     12  C4*   A A   1       7.968   1.264  22.355  0.00  0.00    +0.177 C 
ATOM     13  C3*   A A   1       9.405   1.688  22.682  0.00  0.00    +0.178 C 
ATOM     14  C2*   A A   1       9.911   0.467  23.438  0.00  0.00    +0.195 C 
BRANCH  13  15
ATOM     15  O3*   A A   1      10.174   1.949  21.517  0.00  0.00    -0.386 OA
ATOM     16  H3*   A A   1       9.669   2.630  21.021  0.00  0.00    +0.210 HD
ENDBRANCH  13  15
BRANCH  14  17
ATOM     17  O2*   A A   1      10.220  -0.526  22.445  0.00  0.00    -0.385 OA
ATOM     18  H2*   A A   1      10.607  -0.040  21.685  0.00  0.00    +0.210 HD
ENDBRANCH  14  17
BRANCH  12  19
ATOM     19  C5*   A A   1       7.008   2.442  22.221  0.00  0.00    +0.190 C 
BRANCH  19  20
ATOM     20  O5*   A A   1       7.734   3.643  21.952  0.00  0.00    -0.392 OA
ATOM     21  H5*   A A   1       7.063   4.315  21.736  0.00  0.00    +0.210 HD
ENDBRANCH  19  20
ENDBRANCH  12  19
ENDBRANCH   4  10
BRANCH   8  22
ATOM     22  N6    A A   1       8.227  -5.574  26.165  0.00  0.00    -0.341 N 
ATOM     23  H61   A A   1       7.389  -5.632  26.735  0.00  0.00    +0.144 HD
ATOM     24  H62   A A   1       8.621  -6.437  25.817  0.00  0.00    +0.144 HD
ENDBRANCH   8  22
TORSDOF 6
ENDMDL
MODEL 6
REMARK VINA RESULT:      -5.8      3.719      6.882
REMARK  Name = 
REMARK  6 active torsions:
REMARK  status: ('A' for Active; 'I' for Inactive)
REMARK    1  A    between atoms: C6_3  and  N6_23
REMARK    2  A    between atoms: N9_7  and  C1*_10
REMARK    3  A    between atoms: C2*_12  and  O2*_22
REMARK    4  A    between atoms: C3*_14  and  O3*_21
REMARK    5  A    between atoms: C4*_16  and  C5*_19
REMARK    6  A    between atoms: C5*_19  and  O5*_20
REMARK                            x       y       z     vdW  Elec       q    Type
REMARK                         _______ _______ _______ _____ _____    ______ ____
ROOT
ATOM      1  C2    A A   1       4.113  -6.161  25.290  0.00  0.00    +0.225 A 
ATOM      2  N3    A A   1       5.035  -5.315  24.771  0.00  0.00    -0.216 NA
ATOM      3  C4    A A   1       6.094  -5.199  25.594  0.00  0.00    +0.167 A 
ATOM      4  N9    A A   1       7.216  -4.432  25.431  0.00  0.00    -0.286 N 
ATOM      5  C8    A A   1       8.004  -4.631  26.544  0.00  0.00    +0.203 A 
ATOM      6  N7    A A   1       7.469  -5.482  27.391  0.00  0.00    -0.231 NA
ATOM      7  C5    A A   1       6.276  -5.846  26.808  0.00  0.00    +0.147 A 
ATOM      8  C6    A A   1       5.261  -6.724  27.223  0.00  0.00    +0.147 A 
ATOM      9  N1    A A   1       4.162  -6.851  26.447  0.00  0.00    -0.219 NA
ENDROOT
BRANCH   4  10
ATOM     10  C1*   A A   1       7.642  -3.644  24.300  0.00  0.00    +0.253 C 
ATOM     11  O4*   A A   1       8.976  -3.144  24.561  0.00  0.00    -0.346 OA
ATOM     12  C4*   A A   1       9.116  -1.893  23.839  0.00  0.00    +0.177 C 
ATOM     13  C3*   A A   1       7.872  -1.753  22.956  0.00  0.00    +0.178 C 
ATOM     14  C2*   A A   1       6.819  -2.443  23.812  0.00  0.00    +0.195 C 
BRANCH  13  15
ATOM     15  O3*   A A   1       7.539  -0.396  22.695  0.00  0.00    -0.386 OA
ATOM     16  H3*   A A   1       7.748  -0.257  21.746  0.00  0.00    +0.210 HD
ENDBRANCH  13  15
BRANCH  14  17
ATOM     17  O2*   A A   1       6.444  -1.502  24.832  0.00  0.00    -0.385 OA
ATOM     18  H2*   A A   1       6.445  -0.619  24.402  0.00  0.00    +0.210 HD
ENDBRANCH  14  17
BRANCH  12  19
ATOM     19  C5*   A A   1      10.418  -1.930  23.045  0.00  0.00    +0.190 C 
BRANCH  19  20
ATOM     20  O5*   A A   1      10.173  -1.591  21.678  0.00  0.00    -0.392 OA
ATOM     21  H5*   A A   1       9.541  -2.257  21.350  0.00  0.00    +0.210 HD
ENDBRANCH  19  20
ENDBRANCH  12  19
ENDBRANCH   4  10
BRANCH   8  22
ATOM     22  N6    A A   1       5.326  -7.454  28.402  0.00  0.00    -0.341 N 
ATOM     23  H61   A A   1       6.051  -8.163  28.397  0.00  0.00    +0.144 HD
ATOM     24  H62   A A   1       5.241  -6.872  29.224  0.00  0.00    +0.144 HD
ENDBRANCH   8  22
TORSDOF 6
ENDMDL
MODEL 7
REMARK VINA RESULT:      -5.7      1.507      2.107
REMARK  Name = 
REMARK  6 active torsions:
REMARK  status: ('A' for Active; 'I' for Inactive)
REMARK    1  A    between atoms: C6_3  and  N6_23
REMARK    2  A    between atoms: N9_7  and  C1*_10
REMARK    3  A    between atoms: C2*_12  and  O2*_22
REMARK    4  A    between atoms: C3*_14  and  O3*_21
REMARK    5  A    between atoms: C4*_16  and  C5*_19
REMARK    6  A    between atoms: C5*_19  and  O5*_20
REMARK                            x       y       z     vdW  Elec       q    Type
REMARK                         _______ _______ _______ _____ _____    ______ ____
ROOT
ATOM      1  C2    A A   1       6.729   1.069  23.103  0.00  0.00    +0.225 A 
ATOM      2  N3    A A   1       6.833  -0.217  23.515  0.00  0.00    -0.216 NA
ATOM      3  C4    A A   1       8.030  -0.732  23.176  0.00  0.00    +0.167 A 
ATOM      4  N9    A A   1       8.505  -1.995  23.401  0.00  0.00    -0.286 N 
ATOM      5  C8    A A   1       9.769  -2.053  22.856  0.00  0.00    +0.203 A 
ATOM      6  N7    A A   1      10.134  -0.910  22.317  0.00  0.00    -0.231 NA
ATOM      7  C5    A A   1       9.057  -0.076  22.513  0.00  0.00    +0.147 A 
ATOM      8  C6    A A   1       8.839   1.268  22.165  0.00  0.00    +0.147 A 
ATOM      9  N1    A A   1       7.641   1.822  22.456  0.00  0.00    -0.219 NA
ENDROOT
BRANCH   4  10
ATOM     10  C1*   A A   1       7.930  -3.078  24.161  0.00  0.00    +0.253 C 
ATOM     11  O4*   A A   1       7.667  -2.611  25.507  0.00  0.00    -0.346 OA
ATOM     12  C4*   A A   1       7.759  -3.760  26.387  0.00  0.00    +0.177 C 
ATOM     13  C3*   A A   1       7.888  -4.995  25.488  0.00  0.00    +0.178 C 
ATOM     14  C2*   A A   1       8.657  -4.423  24.305  0.00  0.00    +0.195 C 
BRANCH  13  15
ATOM     15  O3*   A A   1       8.593  -6.056  26.118  0.00  0.00    -0.386 OA
ATOM     16  H3*   A A   1       9.450  -5.666  26.398  0.00  0.00    +0.210 HD
ENDBRANCH  13  15
BRANCH  14  17
ATOM     17  O2*   A A   1      10.031  -4.335  24.717  0.00  0.00    -0.385 OA
ATOM     18  H2*   A A   1      10.259  -5.213  25.093  0.00  0.00    +0.210 HD
ENDBRANCH  14  17
BRANCH  12  19
ATOM     19  C5*   A A   1       6.523  -3.792  27.281  0.00  0.00    +0.190 C 
BRANCH  19  20
ATOM     20  O5*   A A   1       6.555  -4.943  28.127  0.00  0.00    -0.392 OA
ATOM     21  H5*   A A   1       7.202  -5.550  27.725  0.00  0.00    +0.210 HD
ENDBRANCH  19  20
ENDBRANCH  12  19
ENDBRANCH   4  10
BRANCH   8  22
ATOM     22  N6    A A   1       9.790   2.048  21.522  0.00  0.00    -0.341 N 
ATOM     23  H61   A A   1       9.981   1.748  20.571  0.00  0.00    +0.144 HD
ATOM     24  H62   A A   1       9.656   3.036  21.686  0.00  0.00    +0.144 HD
ENDBRANCH   8  22
TORSDOF 6
ENDMDL
MODEL 8
REMARK VINA RESULT:      -5.7      1.938      2.292
REMARK  Name = 
REMARK  6 active torsions:
REMARK  status: ('A' for Active; 'I' for Inactive)
REMARK    1  A    between atoms: C6_3  and  N6_23
REMARK    2  A    between atoms: N9_7  and  C1*_10
REMARK    3  A    between atoms: C2*_12  and  O2*_22
REMARK    4  A    between atoms: C3*_14  and  O3*_21
REMARK    5  A    between atoms: C4*_16  and  C5*_19
REMARK    6  A    between atoms: C5*_19  and  O5*_20
REMARK                            x       y       z     vdW  Elec       q    Type
REMARK                         _______ _______ _______ _____ _____    ______ ____
ROOT
ATOM      1  C2    A A   1      10.577  -1.316  22.454  0.00  0.00    +0.225 A 
ATOM      2  N3    A A   1       9.835  -2.229  23.126  0.00  0.00    -0.216 NA
ATOM      3  C4    A A   1       8.552  -1.829  23.217  0.00  0.00    +0.167 A 
ATOM      4  N9    A A   1       7.506  -2.464  23.829  0.00  0.00    -0.286 N 
ATOM      5  C8    A A   1       6.400  -1.659  23.673  0.00  0.00    +0.203 A 
ATOM      6  N7    A A   1       6.667  -0.567  22.990  0.00  0.00    -0.231 NA
ATOM      7  C5    A A   1       8.008  -0.663  22.697  0.00  0.00    +0.147 A 
ATOM      8  C6    A A   1       8.876   0.189  21.993  0.00  0.00    +0.147 A 
ATOM      9  N1    A A   1      10.180  -0.153  21.900  0.00  0.00    -0.219 NA
ENDROOT
BRANCH   4  10
ATOM     10  C1*   A A   1       7.443  -3.775  24.429  0.00  0.00    +0.253 C 
ATOM     11  O4*   A A   1       6.102  -3.988  24.935  0.00  0.00    -0.346 OA
ATOM     12  C4*   A A   1       6.206  -4.898  26.059  0.00  0.00    +0.177 C 
ATOM     13  C3*   A A   1       7.656  -5.397  26.090  0.00  0.00    +0.178 C 
ATOM     14  C2*   A A   1       8.400  -4.180  25.558  0.00  0.00    +0.195 C 
BRANCH  13  15
ATOM     15  O3*   A A   1       8.082  -5.751  27.398  0.00  0.00    -0.386 OA
ATOM     16  H3*   A A   1       8.545  -6.611  27.295  0.00  0.00    +0.210 HD
ENDBRANCH  13  15
BRANCH  14  17
ATOM     17  O2*   A A   1       8.490  -3.249  26.649  0.00  0.00    -0.385 OA
ATOM     18  H2*   A A   1       9.096  -2.536  26.350  0.00  0.00    +0.210 HD
ENDBRANCH  14  17
BRANCH  12  19
ATOM     19  C5*   A A   1       5.187  -6.019  25.878  0.00  0.00    +0.190 C 
BRANCH  19  20
ATOM     20  O5*   A A   1       5.308  -6.973  26.935  0.00  0.00    -0.392 OA
ATOM     21  H5*   A A   1       5.935  -7.647  26.613  0.00  0.00    +0.210 HD
ENDBRANCH  19  20
ENDBRANCH  12  19
ENDBRANCH   4  10
BRANCH   8  22
ATOM     22  N6    A A   1       8.459   1.373  21.401  0.00  0.00    -0.341 N 
ATOM     23  H61   A A   1       9.170   2.098  21.406  0.00  0.00    +0.144 HD
ATOM     24  H62   A A   1       7.949   1.220  20.542  0.00  0.00    +0.144 HD
ENDBRANCH   8  22
TORSDOF 6
ENDMDL
MODEL 9
REMARK VINA RESULT:      -5.6      1.461      2.675
REMARK  Name = 
REMARK  6 active torsions:
REMARK  status: ('A' for Active; 'I' for Inactive)
REMARK    1  A    between atoms: C6_3  and  N6_23
REMARK    2  A    between atoms: N9_7  and  C1*_10
REMARK    3  A    between atoms: C2*_12  and  O2*_22
REMARK    4  A    between atoms: C3*_14  and  O3*_21
REMARK    5  A    between atoms: C4*_16  and  C5*_19
REMARK    6  A    between atoms: C5*_19  and  O5*_20
REMARK                            x       y       z     vdW  Elec       q    Type
REMARK                         _______ _______ _______ _____ _____    ______ ____
ROOT
ATOM      1  C2    A A   1       7.190   2.607  22.911  0.00  0.00    +0.225 A 
ATOM      2  N3    A A   1       7.363   1.306  23.245  0.00  0.00    -0.216 NA
ATOM      3  C4    A A   1       8.623   1.084  23.666  0.00  0.00    +0.167 A 
ATOM      4  N9    A A   1       9.187  -0.094  24.072  0.00  0.00    -0.286 N 
ATOM      5  C8    A A   1      10.500   0.177  24.389  0.00  0.00    +0.203 A 
ATOM      6  N7    A A   1      10.803   1.446  24.227  0.00  0.00    -0.231 NA
ATOM      7  C5    A A   1       9.637   2.025  23.778  0.00  0.00    +0.147 A 
ATOM      8  C6    A A   1       9.323   3.349  23.430  0.00  0.00    +0.147 A 
ATOM      9  N1    A A   1       8.080   3.617  22.972  0.00  0.00    -0.219 NA
ENDROOT
BRANCH   4  10
ATOM     10  C1*   A A   1       8.580  -1.385  24.288  0.00  0.00    +0.253 C 
ATOM     11  O4*   A A   1       9.593  -2.297  24.779  0.00  0.00    -0.346 OA
ATOM     12  C4*   A A   1       9.213  -3.631  24.355  0.00  0.00    +0.177 C 
ATOM     13  C3*   A A   1       7.807  -3.519  23.755  0.00  0.00    +0.178 C 
ATOM     14  C2*   A A   1       7.849  -2.120  23.156  0.00  0.00    +0.195 C 
BRANCH  13  15
ATOM     15  O3*   A A   1       7.554  -4.512  22.771  0.00  0.00    -0.386 OA
ATOM     16  H3*   A A   1       8.216  -5.217  22.940  0.00  0.00    +0.210 HD
ENDBRANCH  13  15
BRANCH  14  17
ATOM     17  O2*   A A   1       8.581  -2.227  21.923  0.00  0.00    -0.385 OA
ATOM     18  H2*   A A   1       8.179  -2.977  21.433  0.00  0.00    +0.210 HD
ENDBRANCH  14  17
BRANCH  12  19
ATOM     19  C5*   A A   1       9.282  -4.565  25.559  0.00  0.00    +0.190 C 
BRANCH  19  20
ATOM     20  O5*   A A   1      10.243  -5.598  25.329  0.00  0.00    -0.392 OA
ATOM     21  H5*   A A   1       9.782  -6.277  24.804  0.00  0.00    +0.210 HD
ENDBRANCH  19  20
ENDBRANCH  12  19
ENDBRANCH   4  10
BRANCH   8  22
ATOM     22  N6    A A   1      10.235   4.392  23.518  0.00  0.00    -0.341 N 
ATOM     23  H61   A A   1      10.877   4.301  24.299  0.00  0.00    +0.144 HD
ATOM     24  H62   A A   1      10.620   4.648  22.619  0.00  0.00    +0.144 HD
ENDBRANCH   8  22
TORSDOF 6
ENDMDL
