MODEL 1
REMARK VINA RESULT:      -5.7      0.000      0.000
REMARK  Name = 
REMARK  7 active torsions:
REMARK  status: ('A' for Active; 'I' for Inactive)
REMARK    1  A    between atoms: N_11  and  C_12
REMARK    2  A    between atoms: C_12  and  O_13
REMARK    3  A    between atoms: O_13  and  C_14
REMARK    4  A    between atoms: C_14  and  C_15
REMARK    5  A    between atoms: C_14  and  C_17
REMARK    6  A    between atoms: C_15  and  O_16
REMARK    7  A    between atoms: C_17  and  O_18
REMARK                            x       y       z     vdW  Elec       q    Type
REMARK                         _______ _______ _______ _____ _____    ______ ____
ROOT
ATOM      1  C   UNL     1       6.540  -1.552  23.157  0.00  0.00    +0.304 C 
ATOM      2  N   UNL     1       6.370  -2.837  23.579  0.00  0.00    -0.154 N 
ATOM      3  C   UNL     1       7.554  -3.278  24.136  0.00  0.00    +0.338 C 
ATOM      4  N   UNL     1       8.020  -4.408  24.571  0.00  0.00    +0.023 NA
ATOM      5  C   UNL     1       9.383  -4.438  24.812  0.00  0.00    +0.450 C 
ATOM      6  N   UNL     1       9.915  -5.392  25.619  0.00  0.00    -0.241 N 
ATOM      7  H   UNL     1      10.897  -5.196  25.804  0.00  0.00    +0.242 HD
ATOM      8  H   UNL     1       9.393  -5.562  26.468  0.00  0.00    +0.242 HD
ATOM      9  N   UNL     1      10.242  -3.601  24.302  0.00  0.00    +0.008 NA
ATOM     10  C   UNL     1       9.763  -2.543  23.585  0.00  0.00    +0.347 C 
ATOM     11  O   UNL     1      10.381  -2.004  22.673  0.00  0.00    -0.251 OA
ATOM     12  C   UNL     1       8.449  -2.053  24.130  0.00  0.00    +0.329 C 
ATOM     13  N   UNL     1       7.713  -1.013  23.334  0.00  0.00    -0.228 NA
ENDROOT
BRANCH   2  14
ATOM     14  C   UNL     1       5.064  -3.460  23.605  0.00  0.00    +0.400 C 
BRANCH  14  15
ATOM     15  O   UNL     1       4.694  -4.116  22.366  0.00  0.00    -0.334 OA
BRANCH  15  16
ATOM     16  C   UNL     1       4.923  -5.539  22.287  0.00  0.00    +0.173 C 
BRANCH  16  17
ATOM     17  C   UNL     1       5.105  -6.113  23.716  0.00  0.00    +0.189 C 
BRANCH  17  18
ATOM     18  O   UNL     1       4.673  -7.465  23.817  0.00  0.00    -0.392 OA
ATOM     19  H   UNL     1       5.265  -7.995  23.255  0.00  0.00    +0.210 HD
ENDBRANCH  17  18
ENDBRANCH  16  17
BRANCH  16  20
ATOM     20  C   UNL     1       6.205  -5.891  21.516  0.00  0.00    +0.189 C 
BRANCH  20  21
ATOM     21  O   UNL     1       7.263  -6.298  22.371  0.00  0.00    -0.392 OA
ATOM     22  H   UNL     1       7.827  -6.927  21.884  0.00  0.00    +0.210 HD
ENDBRANCH  20  21
ENDBRANCH  16  20
ENDBRANCH  15  16
ENDBRANCH  14  15
ENDBRANCH   2  14
TORSDOF 7
ENDMDL
MODEL 2
REMARK VINA RESULT:      -5.7      2.340      5.342
REMARK  Name = 
REMARK  7 active torsions:
REMARK  status: ('A' for Active; 'I' for Inactive)
REMARK    1  A    between atoms: N_11  and  C_12
REMARK    2  A    between atoms: C_12  and  O_13
REMARK    3  A    between atoms: O_13  and  C_14
REMARK    4  A    between atoms: C_14  and  C_15
REMARK    5  A    between atoms: C_14  and  C_17
REMARK    6  A    between atoms: C_15  and  O_16
REMARK    7  A    between atoms: C_17  and  O_18
REMARK                            x       y       z     vdW  Elec       q    Type
REMARK                         _______ _______ _______ _____ _____    ______ ____
ROOT
ATOM      1  C   UNL     1       6.700  -2.631  22.498  0.00  0.00    +0.304 C 
ATOM      2  N   UNL     1       8.038  -2.574  22.752  0.00  0.00    -0.154 N 
ATOM      3  C   UNL     1       8.368  -3.604  23.611  0.00  0.00    +0.338 C 
ATOM      4  N   UNL     1       9.418  -3.965  24.281  0.00  0.00    +0.023 NA
ATOM      5  C   UNL     1       9.210  -4.945  25.235  0.00  0.00    +0.450 C 
ATOM      6  N   UNL     1      10.254  -5.673  25.708  0.00  0.00    -0.241 N 
ATOM      7  H   UNL     1       9.921  -6.437  26.293  0.00  0.00    +0.242 HD
ATOM      8  H   UNL     1      10.901  -5.990  24.998  0.00  0.00    +0.242 HD
ATOM      9  N   UNL     1       8.051  -5.239  25.752  0.00  0.00    +0.008 NA
ATOM     10  C   UNL     1       6.942  -4.634  25.232  0.00  0.00    +0.347 C 
ATOM     11  O   UNL     1       5.925  -4.408  25.879  0.00  0.00    -0.251 OA
ATOM     12  C   UNL     1       7.082  -4.398  23.753  0.00  0.00    +0.329 C 
ATOM     13  N   UNL     1       6.019  -3.577  23.080  0.00  0.00    -0.228 NA
ENDROOT
BRANCH   2  14
ATOM     14  C   UNL     1       8.913  -1.689  22.014  0.00  0.00    +0.400 C 
BRANCH  14  15
ATOM     15  O   UNL     1      10.086  -1.262  22.751  0.00  0.00    -0.334 OA
BRANCH  15  16
ATOM     16  C   UNL     1      10.264   0.159  22.930  0.00  0.00    +0.173 C 
BRANCH  16  17
ATOM     17  C   UNL     1       9.588   0.602  24.254  0.00  0.00    +0.189 C 
BRANCH  17  18
ATOM     18  O   UNL     1      10.490   0.585  25.354  0.00  0.00    -0.392 OA
ATOM     19  H   UNL     1      10.806  -0.330  25.449  0.00  0.00    +0.210 HD
ENDBRANCH  17  18
ENDBRANCH  16  17
BRANCH  16  20
ATOM     20  C   UNL     1       9.604   0.984  21.814  0.00  0.00    +0.189 C 
BRANCH  20  21
ATOM     21  O   UNL     1      10.228   2.244  21.621  0.00  0.00    -0.392 OA
ATOM     22  H   UNL     1      10.129   2.496  20.684  0.00  0.00    +0.210 HD
ENDBRANCH  20  21
ENDBRANCH  16  20
ENDBRANCH  15  16
ENDBRANCH  14  15
ENDBRANCH   2  14
TORSDOF 7
ENDMDL
MODEL 3
REMARK VINA RESULT:      -5.5      2.397      5.361
REMARK  Name = 
REMARK  7 active torsions:
REMARK  status: ('A' for Active; 'I' for Inactive)
REMARK    1  A    between atoms: N_11  and  C_12
REMARK    2  A    between atoms: C_12  and  O_13
REMARK    3  A    between atoms: O_13  and  C_14
REMARK    4  A    between atoms: C_14  and  C_15
REMARK    5  A    between atoms: C_14  and  C_17
REMARK    6  A    between atoms: C_15  and  O_16
REMARK    7  A    between atoms: C_17  and  O_18
REMARK                            x       y       z     vdW  Elec       q    Type
REMARK                         _______ _______ _______ _____ _____    ______ ____
ROOT
ATOM      1  C   UNL     1       6.510  -3.013  22.372  0.00  0.00    +0.304 C 
ATOM      2  N   UNL     1       7.780  -2.700  22.759  0.00  0.00    -0.154 N 
ATOM      3  C   UNL     1       8.249  -3.706  23.581  0.00  0.00    +0.338 C 
ATOM      4  N   UNL     1       9.294  -3.893  24.327  0.00  0.00    +0.023 NA
ATOM      5  C   UNL     1       9.221  -4.969  25.196  0.00  0.00    +0.450 C 
ATOM      6  N   UNL     1      10.354  -5.501  25.723  0.00  0.00    -0.241 N 
ATOM      7  H   UNL     1      10.144  -6.361  26.225  0.00  0.00    +0.242 HD
ATOM      8  H   UNL     1      11.110  -5.619  25.061  0.00  0.00    +0.242 HD
ATOM      9  N   UNL     1       8.113  -5.536  25.578  0.00  0.00    +0.008 NA
ATOM     10  C   UNL     1       6.947  -5.135  24.990  0.00  0.00    +0.347 C 
ATOM     11  O   UNL     1       5.856  -5.176  25.547  0.00  0.00    -0.251 OA
ATOM     12  C   UNL     1       7.155  -4.757  23.549  0.00  0.00    +0.329 C 
ATOM     13  N   UNL     1       6.001  -4.123  22.826  0.00  0.00    -0.228 NA
ENDROOT
BRANCH   2  14
ATOM     14  C   UNL     1       8.503  -1.597  22.165  0.00  0.00    +0.400 C 
BRANCH  14  15
ATOM     15  O   UNL     1       8.056  -0.289  22.601  0.00  0.00    -0.334 OA
BRANCH  15  16
ATOM     16  C   UNL     1       9.036   0.559  23.235  0.00  0.00    +0.173 C 
BRANCH  16  17
ATOM     17  C   UNL     1      10.077   1.021  22.182  0.00  0.00    +0.189 C 
BRANCH  17  18
ATOM     18  O   UNL     1       9.634   2.152  21.441  0.00  0.00    -0.392 OA
ATOM     19  H   UNL     1      10.256   2.876  21.628  0.00  0.00    +0.210 HD
ENDBRANCH  17  18
ENDBRANCH  16  17
BRANCH  16  20
ATOM     20  C   UNL     1       9.829  -0.170  24.332  0.00  0.00    +0.189 C 
BRANCH  20  21
ATOM     21  O   UNL     1      10.504   0.724  25.205  0.00  0.00    -0.392 OA
ATOM     22  H   UNL     1      11.350   0.977  24.792  0.00  0.00    +0.210 HD
ENDBRANCH  20  21
ENDBRANCH  16  20
ENDBRANCH  15  16
ENDBRANCH  14  15
ENDBRANCH   2  14
TORSDOF 7
ENDMDL
MODEL 4
REMARK VINA RESULT:      -5.5      3.364      5.047
REMARK  Name = 
REMARK  7 active torsions:
REMARK  status: ('A' for Active; 'I' for Inactive)
REMARK    1  A    between atoms: N_11  and  C_12
REMARK    2  A    between atoms: C_12  and  O_13
REMARK    3  A    between atoms: O_13  and  C_14
REMARK    4  A    between atoms: C_14  and  C_15
REMARK    5  A    between atoms: C_14  and  C_17
REMARK    6  A    between atoms: C_15  and  O_16
REMARK    7  A    between atoms: C_17  and  O_18
REMARK                            x       y       z     vdW  Elec       q    Type
REMARK                         _______ _______ _______ _____ _____    ______ ____
ROOT
ATOM      1  C   UNL     1       9.731  -1.887  22.816  0.00  0.00    +0.304 C 
ATOM      2  N   UNL     1       8.514  -1.671  23.393  0.00  0.00    -0.154 N 
ATOM      3  C   UNL     1       7.977  -0.513  22.865  0.00  0.00    +0.338 C 
ATOM      4  N   UNL     1       6.948   0.238  23.111  0.00  0.00    +0.023 NA
ATOM      5  C   UNL     1       6.944   1.470  22.480  0.00  0.00    +0.450 C 
ATOM      6  N   UNL     1       5.784   2.160  22.333  0.00  0.00    -0.241 N 
ATOM      7  H   UNL     1       5.925   2.971  21.734  0.00  0.00    +0.242 HD
ATOM      8  H   UNL     1       4.996   1.599  22.038  0.00  0.00    +0.242 HD
ATOM      9  N   UNL     1       8.003   2.058  22.001  0.00  0.00    +0.008 NA
ATOM     10  C   UNL     1       9.180   1.366  22.001  0.00  0.00    +0.347 C 
ATOM     11  O   UNL     1      10.282   1.899  22.073  0.00  0.00    -0.251 OA
ATOM     12  C   UNL     1       8.957  -0.105  21.781  0.00  0.00    +0.329 C 
ATOM     13  N   UNL     1      10.142  -1.016  21.939  0.00  0.00    -0.228 NA
ENDROOT
BRANCH   2  14
ATOM     14  C   UNL     1       7.884  -2.668  24.230  0.00  0.00    +0.400 C 
BRANCH  14  15
ATOM     15  O   UNL     1       8.339  -2.663  25.607  0.00  0.00    -0.334 OA
BRANCH  15  16
ATOM     16  C   UNL     1       8.728  -3.934  26.171  0.00  0.00    +0.173 C 
BRANCH  16  17
ATOM     17  C   UNL     1       9.153  -4.896  25.031  0.00  0.00    +0.189 C 
BRANCH  17  18
ATOM     18  O   UNL     1      10.274  -5.697  25.389  0.00  0.00    -0.392 OA
ATOM     19  H   UNL     1      10.788  -5.846  24.576  0.00  0.00    +0.210 HD
ENDBRANCH  17  18
ENDBRANCH  16  17
BRANCH  16  20
ATOM     20  C   UNL     1       7.575  -4.629  26.913  0.00  0.00    +0.189 C 
BRANCH  20  21
ATOM     21  O   UNL     1       7.964  -5.866  27.492  0.00  0.00    -0.392 OA
ATOM     22  H   UNL     1       8.804  -6.146  27.082  0.00  0.00    +0.210 HD
ENDBRANCH  20  21
ENDBRANCH  16  20
ENDBRANCH  15  16
ENDBRANCH  14  15
ENDBRANCH   2  14
TORSDOF 7
ENDMDL
MODEL 5
REMARK VINA RESULT:      -5.4      2.832      5.238
REMARK  Name = 
REMARK  7 active torsions:
REMARK  status: ('A' for Active; 'I' for Inactive)
REMARK    1  A    between atoms: N_11  and  C_12
REMARK    2  A    between atoms: C_12  and  O_13
REMARK    3  A    between atoms: O_13  and  C_14
REMARK    4  A    between atoms: C_14  and  C_15
REMARK    5  A    between atoms: C_14  and  C_17
REMARK    6  A    between atoms: C_15  and  O_16
REMARK    7  A    between atoms: C_17  and  O_18
REMARK                            x       y       z     vdW  Elec       q    Type
REMARK                         _______ _______ _______ _____ _____    ______ ____
ROOT
ATOM      1  C   UNL     1       8.391  -1.540  26.087  0.00  0.00    +0.304 C 
ATOM      2  N   UNL     1       7.887  -1.282  24.846  0.00  0.00    -0.154 N 
ATOM      3  C   UNL     1       7.646  -2.484  24.211  0.00  0.00    +0.338 C 
ATOM      4  N   UNL     1       7.305  -2.860  23.017  0.00  0.00    +0.023 NA
ATOM      5  C   UNL     1       7.432  -4.213  22.758  0.00  0.00    +0.450 C 
ATOM      6  N   UNL     1       6.756  -4.779  21.725  0.00  0.00    -0.241 N 
ATOM      7  H   UNL     1       6.845  -5.793  21.753  0.00  0.00    +0.242 HD
ATOM      8  H   UNL     1       5.793  -4.483  21.641  0.00  0.00    +0.242 HD
ATOM      9  N   UNL     1       8.183  -5.029  23.441  0.00  0.00    +0.008 NA
ATOM     10  C   UNL     1       8.790  -4.554  24.569  0.00  0.00    +0.347 C 
ATOM     11  O   UNL     1       9.854  -4.985  25.001  0.00  0.00    -0.251 OA
ATOM     12  C   UNL     1       7.937  -3.532  25.269  0.00  0.00    +0.329 C 
ATOM     13  N   UNL     1       8.552  -2.789  26.421  0.00  0.00    -0.228 NA
ENDROOT
BRANCH   2  14
ATOM     14  C   UNL     1       7.492   0.053  24.451  0.00  0.00    +0.400 C 
BRANCH  14  15
ATOM     15  O   UNL     1       7.980   0.454  23.146  0.00  0.00    -0.334 OA
BRANCH  15  16
ATOM     16  C   UNL     1       9.393   0.293  22.898  0.00  0.00    +0.173 C 
BRANCH  16  17
ATOM     17  C   UNL     1      10.068   1.688  22.839  0.00  0.00    +0.189 C 
BRANCH  17  18
ATOM     18  O   UNL     1      10.026   2.256  21.536  0.00  0.00    -0.392 OA
ATOM     19  H   UNL     1       9.455   1.683  20.994  0.00  0.00    +0.210 HD
ENDBRANCH  17  18
ENDBRANCH  16  17
BRANCH  16  20
ATOM     20  C   UNL     1       9.684  -0.382  21.548  0.00  0.00    +0.189 C 
BRANCH  20  21
ATOM     21  O   UNL     1       9.998  -1.760  21.683  0.00  0.00    -0.392 OA
ATOM     22  H   UNL     1      10.967  -1.849  21.743  0.00  0.00    +0.210 HD
ENDBRANCH  20  21
ENDBRANCH  16  20
ENDBRANCH  15  16
ENDBRANCH  14  15
ENDBRANCH   2  14
TORSDOF 7
ENDMDL
MODEL 6
REMARK VINA RESULT:      -5.2      2.731      5.181
REMARK  Name = 
REMARK  7 active torsions:
REMARK  status: ('A' for Active; 'I' for Inactive)
REMARK    1  A    between atoms: N_11  and  C_12
REMARK    2  A    between atoms: C_12  and  O_13
REMARK    3  A    between atoms: O_13  and  C_14
REMARK    4  A    between atoms: C_14  and  C_15
REMARK    5  A    between atoms: C_14  and  C_17
REMARK    6  A    between atoms: C_15  and  O_16
REMARK    7  A    between atoms: C_17  and  O_18
REMARK                            x       y       z     vdW  Elec       q    Type
REMARK                         _______ _______ _______ _____ _____    ______ ____
ROOT
ATOM      1  C   UNL     1       8.511  -1.521  25.694  0.00  0.00    +0.304 C 
ATOM      2  N   UNL     1       8.038  -1.383  24.423  0.00  0.00    -0.154 N 
ATOM      3  C   UNL     1       7.735  -2.636  23.928  0.00  0.00    +0.338 C 
ATOM      4  N   UNL     1       7.387  -3.129  22.780  0.00  0.00    +0.023 NA
ATOM      5  C   UNL     1       7.439  -4.509  22.684  0.00  0.00    +0.450 C 
ATOM      6  N   UNL     1       6.744  -5.154  21.711  0.00  0.00    -0.241 N 
ATOM      7  H   UNL     1       6.775  -6.161  21.859  0.00  0.00    +0.242 HD
ATOM      8  H   UNL     1       5.801  -4.816  21.575  0.00  0.00    +0.242 HD
ATOM      9  N   UNL     1       8.134  -5.280  23.471  0.00  0.00    +0.008 NA
ATOM     10  C   UNL     1       8.755  -4.710  24.546  0.00  0.00    +0.347 C 
ATOM     11  O   UNL     1       9.786  -5.146  25.045  0.00  0.00    -0.251 OA
ATOM     12  C   UNL     1       7.954  -3.567  25.106  0.00  0.00    +0.329 C 
ATOM     13  N   UNL     1       8.596  -2.729  26.175  0.00  0.00    -0.228 NA
ENDROOT
BRANCH   2  14
ATOM     14  C   UNL     1       7.725  -0.084  23.868  0.00  0.00    +0.400 C 
BRANCH  14  15
ATOM     15  O   UNL     1       7.754  -0.035  22.419  0.00  0.00    -0.334 OA
BRANCH  15  16
ATOM     16  C   UNL     1       8.941   0.515  21.807  0.00  0.00    +0.173 C 
BRANCH  16  17
ATOM     17  C   UNL     1      10.123  -0.470  21.997  0.00  0.00    +0.189 C 
BRANCH  17  18
ATOM     18  O   UNL     1       9.892  -1.722  21.362  0.00  0.00    -0.392 OA
ATOM     19  H   UNL     1      10.613  -1.854  20.722  0.00  0.00    +0.210 HD
ENDBRANCH  17  18
ENDBRANCH  16  17
BRANCH  16  20
ATOM     20  C   UNL     1       9.378   1.841  22.451  0.00  0.00    +0.189 C 
BRANCH  20  21
ATOM     21  O   UNL     1      10.406   2.492  21.719  0.00  0.00    -0.392 OA
ATOM     22  H   UNL     1      10.021   3.270  21.275  0.00  0.00    +0.210 HD
ENDBRANCH  20  21
ENDBRANCH  16  20
ENDBRANCH  15  16
ENDBRANCH  14  15
ENDBRANCH   2  14
TORSDOF 7
ENDMDL
MODEL 7
REMARK VINA RESULT:      -5.2      2.063      3.499
REMARK  Name = 
REMARK  7 active torsions:
REMARK  status: ('A' for Active; 'I' for Inactive)
REMARK    1  A    between atoms: N_11  and  C_12
REMARK    2  A    between atoms: C_12  and  O_13
REMARK    3  A    between atoms: O_13  and  C_14
REMARK    4  A    between atoms: C_14  and  C_15
REMARK    5  A    between atoms: C_14  and  C_17
REMARK    6  A    between atoms: C_15  and  O_16
REMARK    7  A    between atoms: C_17  and  O_18
REMARK                            x       y       z     vdW  Elec       q    Type
REMARK                         _______ _______ _______ _____ _____    ______ ____
ROOT
ATOM      1  C   UNL     1       8.861  -3.044  23.641  0.00  0.00    +0.304 C 
ATOM      2  N   UNL     1       8.005  -2.273  22.913  0.00  0.00    -0.154 N 
ATOM      3  C   UNL     1       8.640  -1.086  22.600  0.00  0.00    +0.338 C 
ATOM      4  N   UNL     1       8.299   0.043  22.061  0.00  0.00    +0.023 NA
ATOM      5  C   UNL     1       9.224   1.066  22.184  0.00  0.00    +0.450 C 
ATOM      6  N   UNL     1       9.173   2.138  21.351  0.00  0.00    -0.241 N 
ATOM      7  H   UNL     1       9.994   2.726  21.477  0.00  0.00    +0.242 HD
ATOM      8  H   UNL     1       9.014   1.907  20.379  0.00  0.00    +0.242 HD
ATOM      9  N   UNL     1      10.175   1.099  23.073  0.00  0.00    +0.008 NA
ATOM     10  C   UNL     1      10.361  -0.003  23.858  0.00  0.00    +0.347 C 
ATOM     11  O   UNL     1      10.817   0.043  24.995  0.00  0.00    -0.251 OA
ATOM     12  C   UNL     1      10.055  -1.273  23.112  0.00  0.00    +0.329 C 
ATOM     13  N   UNL     1      10.039  -2.552  23.901  0.00  0.00    -0.228 NA
ENDROOT
BRANCH   2  14
ATOM     14  C   UNL     1       6.754  -2.797  22.409  0.00  0.00    +0.400 C 
BRANCH  14  15
ATOM     15  O   UNL     1       6.092  -3.722  23.309  0.00  0.00    -0.334 OA
BRANCH  15  16
ATOM     16  C   UNL     1       5.371  -4.817  22.705  0.00  0.00    +0.173 C 
BRANCH  16  17
ATOM     17  C   UNL     1       4.935  -5.817  23.808  0.00  0.00    +0.189 C 
BRANCH  17  18
ATOM     18  O   UNL     1       4.971  -7.167  23.360  0.00  0.00    -0.392 OA
ATOM     19  H   UNL     1       5.585  -7.200  22.605  0.00  0.00    +0.210 HD
ENDBRANCH  17  18
ENDBRANCH  16  17
BRANCH  16  20
ATOM     20  C   UNL     1       6.232  -5.618  21.715  0.00  0.00    +0.189 C 
BRANCH  20  21
ATOM     21  O   UNL     1       7.433  -6.100  22.299  0.00  0.00    -0.392 OA
ATOM     22  H   UNL     1       7.535  -5.686  23.176  0.00  0.00    +0.210 HD
ENDBRANCH  20  21
ENDBRANCH  16  20
ENDBRANCH  15  16
ENDBRANCH  14  15
ENDBRANCH   2  14
TORSDOF 7
ENDMDL
MODEL 8
REMARK VINA RESULT:      -5.2      2.523      5.753
REMARK  Name = 
REMARK  7 active torsions:
REMARK  status: ('A' for Active; 'I' for Inactive)
REMARK    1  A    between atoms: N_11  and  C_12
REMARK    2  A    between atoms: C_12  and  O_13
REMARK    3  A    between atoms: O_13  and  C_14
REMARK    4  A    between atoms: C_14  and  C_15
REMARK    5  A    between atoms: C_14  and  C_17
REMARK    6  A    between atoms: C_15  and  O_16
REMARK    7  A    between atoms: C_17  and  O_18
REMARK                            x       y       z     vdW  Elec       q    Type
REMARK                         _______ _______ _______ _____ _____    ______ ____
ROOT
ATOM      1  C   UNL     1       8.535  -2.790  25.717  0.00  0.00    +0.304 C 
ATOM      2  N   UNL     1       8.775  -3.138  24.420  0.00  0.00    -0.154 N 
ATOM      3  C   UNL     1       7.744  -3.947  23.984  0.00  0.00    +0.338 C 
ATOM      4  N   UNL     1       7.498  -4.661  22.929  0.00  0.00    +0.023 NA
ATOM      5  C   UNL     1       6.428  -5.533  23.036  0.00  0.00    +0.450 C 
ATOM      6  N   UNL     1       5.832  -6.026  21.919  0.00  0.00    -0.241 N 
ATOM      7  H   UNL     1       4.985  -6.535  22.162  0.00  0.00    +0.242 HD
ATOM      8  H   UNL     1       5.672  -5.342  21.192  0.00  0.00    +0.242 HD
ATOM      9  N   UNL     1       5.923  -5.949  24.162  0.00  0.00    +0.008 NA
ATOM     10  C   UNL     1       6.390  -5.396  25.321  0.00  0.00    +0.347 C 
ATOM     11  O   UNL     1       6.411  -5.987  26.395  0.00  0.00    -0.251 OA
ATOM     12  C   UNL     1       6.757  -3.950  25.136  0.00  0.00    +0.329 C 
ATOM     13  N   UNL     1       7.455  -3.261  26.274  0.00  0.00    -0.228 NA
ENDROOT
BRANCH   2  14
ATOM     14  C   UNL     1       9.835  -2.520  23.654  0.00  0.00    +0.400 C 
BRANCH  14  15
ATOM     15  O   UNL     1       9.373  -1.587  22.645  0.00  0.00    -0.334 OA
BRANCH  15  16
ATOM     16  C   UNL     1      10.029  -0.302  22.593  0.00  0.00    +0.173 C 
BRANCH  16  17
ATOM     17  C   UNL     1       9.959   0.369  23.990  0.00  0.00    +0.189 C 
BRANCH  17  18
ATOM     18  O   UNL     1      11.098   1.178  24.260  0.00  0.00    -0.392 OA
ATOM     19  H   UNL     1      10.786   1.949  24.764  0.00  0.00    +0.210 HD
ENDBRANCH  17  18
ENDBRANCH  16  17
BRANCH  16  20
ATOM     20  C   UNL     1       9.350   0.670  21.615  0.00  0.00    +0.189 C 
BRANCH  20  21
ATOM     21  O   UNL     1       9.982   1.941  21.581  0.00  0.00    -0.392 OA
ATOM     22  H   UNL     1       9.750   2.421  22.398  0.00  0.00    +0.210 HD
ENDBRANCH  20  21
ENDBRANCH  16  20
ENDBRANCH  15  16
ENDBRANCH  14  15
ENDBRANCH   2  14
TORSDOF 7
ENDMDL
MODEL 9
REMARK VINA RESULT:      -5.2      3.254      4.685
REMARK  Name = 
REMARK  7 active torsions:
REMARK  status: ('A' for Active; 'I' for Inactive)
REMARK    1  A    between atoms: N_11  and  C_12
REMARK    2  A    between atoms: C_12  and  O_13
REMARK    3  A    between atoms: O_13  and  C_14
REMARK    4  A    between atoms: C_14  and  C_15
REMARK    5  A    between atoms: C_14  and  C_17
REMARK    6  A    between atoms: C_15  and  O_16
REMARK    7  A    between atoms: C_17  and  O_18
REMARK                            x       y       z     vdW  Elec       q    Type
REMARK                         _______ _______ _______ _____ _____    ______ ____
ROOT
ATOM      1  C   UNL     1       8.388  -1.359  25.824  0.00  0.00    +0.304 C 
ATOM      2  N   UNL     1       8.389  -1.516  24.469  0.00  0.00    -0.154 N 
ATOM      3  C   UNL     1       8.858  -0.352  23.892  0.00  0.00    +0.338 C 
ATOM      4  N   UNL     1       8.957   0.122  22.689  0.00  0.00    +0.023 NA
ATOM      5  C   UNL     1       9.262   1.470  22.602  0.00  0.00    +0.450 C 
ATOM      6  N   UNL     1       9.773   1.983  21.452  0.00  0.00    -0.241 N 
ATOM      7  H   UNL     1      10.068   2.947  21.593  0.00  0.00    +0.242 HD
ATOM      8  H   UNL     1      10.496   1.419  21.026  0.00  0.00    +0.242 HD
ATOM      9  N   UNL     1       9.085   2.331  23.562  0.00  0.00    +0.008 NA
ATOM     10  C   UNL     1       8.694   1.862  24.784  0.00  0.00    +0.347 C 
ATOM     11  O   UNL     1       8.030   2.514  25.582  0.00  0.00    -0.251 OA
ATOM     12  C   UNL     1       9.280   0.507  25.070  0.00  0.00    +0.329 C 
ATOM     13  N   UNL     1       8.793  -0.214  26.295  0.00  0.00    -0.228 NA
ENDROOT
BRANCH   2  14
ATOM     14  C   UNL     1       8.143  -2.802  23.855  0.00  0.00    +0.400 C 
BRANCH  14  15
ATOM     15  O   UNL     1       7.208  -3.639  24.581  0.00  0.00    -0.334 OA
BRANCH  15  16
ATOM     16  C   UNL     1       7.741  -4.828  25.202  0.00  0.00    +0.173 C 
BRANCH  16  17
ATOM     17  C   UNL     1       7.243  -4.913  26.668  0.00  0.00    +0.189 C 
BRANCH  17  18
ATOM     18  O   UNL     1       7.983  -5.854  27.438  0.00  0.00    -0.392 OA
ATOM     19  H   UNL     1       8.923  -5.618  27.349  0.00  0.00    +0.210 HD
ENDBRANCH  17  18
ENDBRANCH  16  17
BRANCH  16  20
ATOM     20  C   UNL     1       9.277  -4.823  25.270  0.00  0.00    +0.189 C 
BRANCH  20  21
ATOM     21  O   UNL     1       9.833  -6.126  25.181  0.00  0.00    -0.392 OA
ATOM     22  H   UNL     1       9.398  -6.691  25.846  0.00  0.00    +0.210 HD
ENDBRANCH  20  21
ENDBRANCH  16  20
ENDBRANCH  15  16
ENDBRANCH  14  15
ENDBRANCH   2  14
TORSDOF 7
ENDMDL
