MODEL 1
REMARK VINA RESULT:      -6.7      0.000      0.000
REMARK  Name = 
REMARK  16 active torsions:
REMARK  status: ('A' for Active; 'I' for Inactive)
REMARK    1  A    between atoms: C_1  and  C_2
REMARK    2  A    between atoms: C_2  and  C_3
REMARK    3  A    between atoms: C_2  and  C_4
REMARK    4  A    between atoms: C_4  and  N_5
REMARK    5  A    between atoms: N_5  and  C_6
REMARK    6  A    between atoms: N_5  and  S_29
REMARK    7  A    between atoms: C_6  and  C_7
REMARK    8  A    between atoms: C_7  and  C_8
REMARK    9  A    between atoms: C_7  and  O_28
REMARK   10  A    between atoms: C_8  and  C_9
REMARK   11  A    between atoms: C_8  and  N_16
REMARK   12  A    between atoms: C_9  and  C_10
REMARK   13  A    between atoms: C_17  and  O_19
REMARK   14  A    between atoms: O_19  and  C_20
REMARK   15  A    between atoms: S_29  and  C_32
REMARK   16  A    between atoms: C_35  and  N_38
REMARK                            x       y       z     vdW  Elec       q    Type
REMARK                         _______ _______ _______ _____ _____    ______ ____
ROOT
ATOM      1  C   UNL     1       6.647  -1.861  22.990  0.00  0.00    +0.151 C 
ENDROOT
BRANCH   1   2
ATOM      2  O   UNL     1       5.637  -2.067  21.979  0.00  0.00    -0.389 OA
ATOM      3  H   UNL     1       5.661  -1.298  21.386  0.00  0.00    +0.210 HD
ENDBRANCH   1   2
BRANCH   1   4
ATOM      4  C   UNL     1       5.943  -1.745  24.374  0.00  0.00    +0.142 C 
BRANCH   4   5
ATOM      5  N   UNL     1       6.791  -1.048  25.520  0.00  0.00    -0.174 NA
BRANCH   5   6
ATOM      6  S   UNL     1       5.942   0.378  26.064  0.00  0.00    +0.061 S 
ATOM      7  O   UNL     1       6.240   0.578  27.454  0.00  0.00    -0.153 OA
ATOM      8  O   UNL     1       4.571   0.303  25.611  0.00  0.00    -0.153 OA
BRANCH   6   9
ATOM      9  C   UNL     1       6.679   1.675  25.098  0.00  0.00    +0.106 A 
ATOM     10  C   UNL     1       7.451   2.665  25.706  0.00  0.00    +0.030 A 
ATOM     11  C   UNL     1       8.001   3.683  24.918  0.00  0.00    +0.024 A 
ATOM     12  C   UNL     1       7.800   3.706  23.533  0.00  0.00    +0.025 A 
ATOM     13  C   UNL     1       6.927   2.774  22.964  0.00  0.00    +0.024 A 
ATOM     14  C   UNL     1       6.381   1.748  23.737  0.00  0.00    +0.030 A 
BRANCH  12  15
ATOM     15  N   UNL     1       8.275   4.779  22.770  0.00  0.00    -0.358 N 
ATOM     16  H   UNL     1       7.577   5.172  22.144  0.00  0.00    +0.142 HD
ATOM     17  H   UNL     1       8.738   5.497  23.320  0.00  0.00    +0.142 HD
ENDBRANCH  12  15
ENDBRANCH   6   9
ENDBRANCH   5   6
BRANCH   5  18
ATOM     18  C   UNL     1       7.299  -2.007  26.575  0.00  0.00    +0.112 C 
BRANCH  18  20
ATOM     19  C   UNL     1       8.430  -4.425  26.500  0.00  0.00    +0.008 C 
ATOM     20  C   UNL     1       7.165  -3.563  26.554  0.00  0.00    -0.001 C 
ATOM     21  C   UNL     1       6.114  -4.212  27.456  0.00  0.00    +0.008 C 
ENDBRANCH  18  20
ENDBRANCH   5  18
ENDBRANCH   4   5
ENDBRANCH   1   4
BRANCH   1  22
ATOM     22  C   UNL     1       7.756  -2.980  22.766  0.00  0.00    +0.110 C 
BRANCH  22  23
ATOM     23  N   UNL     1       7.211  -4.379  23.006  0.00  0.00    -0.275 N 
ATOM     24  H   UNL     1       7.235  -4.635  23.984  0.00  0.00    +0.152 HD
ATOM     25  C   UNL     1       6.344  -5.187  22.309  0.00  0.00    +0.401 C 
ATOM     26  O   UNL     1       6.007  -5.049  21.148  0.00  0.00    -0.226 OA
BRANCH  25  27
ATOM     27  O   UNL     1       5.866  -6.193  23.134  0.00  0.00    -0.444 OA
BRANCH  27  28
ATOM     28  C   UNL     1       5.068  -5.848  24.333  0.00  0.00    +0.212 C 
ATOM     29  C   UNL     1       3.758  -5.144  23.937  0.00  0.00    +0.090 C 
ATOM     30  C   UNL     1       2.909  -4.510  25.057  0.00  0.00    +0.040 C 
ATOM     31  C   UNL     1       1.665  -5.375  25.184  0.00  0.00    +0.163 C 
ATOM     32  O   UNL     1       1.550  -6.041  23.931  0.00  0.00    -0.351 OA
ATOM     33  C   UNL     1       2.883  -6.307  23.490  0.00  0.00    +0.257 C 
ATOM     34  O   UNL     1       3.393  -7.495  24.116  0.00  0.00    -0.347 OA
ATOM     35  C   UNL     1       4.509  -7.123  24.946  0.00  0.00    +0.208 C 
ENDBRANCH  27  28
ENDBRANCH  25  27
ENDBRANCH  22  23
BRANCH  22  36
ATOM     36  C   UNL     1       9.182  -2.623  23.291  0.00  0.00    +0.060 C 
BRANCH  36  37
ATOM     37  C   UNL     1       9.605  -1.143  23.272  0.00  0.00    -0.046 A 
ATOM     38  C   UNL     1       9.661  -0.354  22.112  0.00  0.00    +0.004 A 
ATOM     39  C   UNL     1      10.081   0.990  22.143  0.00  0.00    +0.000 A 
ATOM     40  C   UNL     1      10.492   1.570  23.349  0.00  0.00    +0.000 A 
ATOM     41  C   UNL     1      10.497   0.798  24.495  0.00  0.00    +0.000 A 
ATOM     42  C   UNL     1      10.071  -0.539  24.462  0.00  0.00    +0.004 A 
ENDBRANCH  36  37
ENDBRANCH  22  36
ENDBRANCH   1  22
TORSDOF 14
ENDMDL
MODEL 2
REMARK VINA RESULT:      -6.6      1.862      4.058
REMARK  Name = 
REMARK  16 active torsions:
REMARK  status: ('A' for Active; 'I' for Inactive)
REMARK    1  A    between atoms: C_1  and  C_2
REMARK    2  A    between atoms: C_2  and  C_3
REMARK    3  A    between atoms: C_2  and  C_4
REMARK    4  A    between atoms: C_4  and  N_5
REMARK    5  A    between atoms: N_5  and  C_6
REMARK    6  A    between atoms: N_5  and  S_29
REMARK    7  A    between atoms: C_6  and  C_7
REMARK    8  A    between atoms: C_7  and  C_8
REMARK    9  A    between atoms: C_7  and  O_28
REMARK   10  A    between atoms: C_8  and  C_9
REMARK   11  A    between atoms: C_8  and  N_16
REMARK   12  A    between atoms: C_9  and  C_10
REMARK   13  A    between atoms: C_17  and  O_19
REMARK   14  A    between atoms: O_19  and  C_20
REMARK   15  A    between atoms: S_29  and  C_32
REMARK   16  A    between atoms: C_35  and  N_38
REMARK                            x       y       z     vdW  Elec       q    Type
REMARK                         _______ _______ _______ _____ _____    ______ ____
ROOT
ATOM      1  C   UNL     1       8.044  -2.502  26.640  0.00  0.00    +0.151 C 
ENDROOT
BRANCH   1   2
ATOM      2  O   UNL     1       9.074  -3.410  27.086  0.00  0.00    -0.389 OA
ATOM      3  H   UNL     1       8.768  -3.808  27.917  0.00  0.00    +0.210 HD
ENDBRANCH   1   2
BRANCH   1   4
ATOM      4  C   UNL     1       8.690  -1.107  26.388  0.00  0.00    +0.142 C 
BRANCH   4   5
ATOM      5  N   UNL     1       8.164  -0.327  25.110  0.00  0.00    -0.174 NA
BRANCH   5   6
ATOM      6  S   UNL     1       6.938   0.812  25.608  0.00  0.00    +0.061 S 
ATOM      7  O   UNL     1       7.257   1.271  26.930  0.00  0.00    -0.153 OA
ATOM      8  O   UNL     1       5.638   0.249  25.322  0.00  0.00    -0.153 OA
BRANCH   6   9
ATOM      9  C   UNL     1       7.132   2.143  24.446  0.00  0.00    +0.106 A 
ATOM     10  C   UNL     1       7.933   3.244  24.751  0.00  0.00    +0.030 A 
ATOM     11  C   UNL     1       8.049   4.283  23.821  0.00  0.00    +0.024 A 
ATOM     12  C   UNL     1       7.390   4.220  22.588  0.00  0.00    +0.025 A 
ATOM     13  C   UNL     1       6.502   3.165  22.353  0.00  0.00    +0.024 A 
ATOM     14  C   UNL     1       6.385   2.118  23.268  0.00  0.00    +0.030 A 
BRANCH  12  15
ATOM     15  N   UNL     1       7.437   5.306  21.706  0.00  0.00    -0.358 N 
ATOM     16  H   UNL     1       6.721   6.005  21.885  0.00  0.00    +0.142 HD
ATOM     17  H   UNL     1       8.360   5.721  21.621  0.00  0.00    +0.142 HD
ENDBRANCH  12  15
ENDBRANCH   6   9
ENDBRANCH   5   6
BRANCH   5  18
ATOM     18  C   UNL     1       9.267   0.181  24.206  0.00  0.00    +0.112 C 
BRANCH  18  20
ATOM     19  C   UNL     1       9.722   1.154  21.761  0.00  0.00    +0.008 C 
ATOM     20  C   UNL     1       9.372  -0.034  22.663  0.00  0.00    -0.001 C 
ATOM     21  C   UNL     1      10.046  -1.309  22.152  0.00  0.00    +0.008 C 
ENDBRANCH  18  20
ENDBRANCH   5  18
ENDBRANCH   4   5
ENDBRANCH   1   4
BRANCH   1  22
ATOM     22  C   UNL     1       7.269  -3.231  25.457  0.00  0.00    +0.110 C 
BRANCH  22  23
ATOM     23  N   UNL     1       6.256  -4.238  25.976  0.00  0.00    -0.275 N 
ATOM     24  H   UNL     1       5.340  -4.103  25.567  0.00  0.00    +0.152 HD
ATOM     25  C   UNL     1       6.367  -5.494  26.523  0.00  0.00    +0.401 C 
ATOM     26  O   UNL     1       7.380  -5.996  26.974  0.00  0.00    -0.226 OA
BRANCH  25  27
ATOM     27  O   UNL     1       5.145  -6.148  26.465  0.00  0.00    -0.444 OA
BRANCH  27  28
ATOM     28  C   UNL     1       4.103  -5.681  25.522  0.00  0.00    +0.212 C 
ATOM     29  C   UNL     1       4.020  -6.604  24.293  0.00  0.00    +0.090 C 
ATOM     30  C   UNL     1       3.153  -6.149  23.102  0.00  0.00    +0.040 C 
ATOM     31  C   UNL     1       1.943  -7.071  23.086  0.00  0.00    +0.163 C 
ATOM     32  O   UNL     1       2.358  -8.236  23.790  0.00  0.00    -0.351 OA
ATOM     33  C   UNL     1       3.233  -7.792  24.829  0.00  0.00    +0.257 C 
ATOM     34  O   UNL     1       2.478  -7.334  25.961  0.00  0.00    -0.347 OA
ATOM     35  C   UNL     1       2.732  -5.926  26.131  0.00  0.00    +0.208 C 
ENDBRANCH  27  28
ENDBRANCH  25  27
ENDBRANCH  22  23
BRANCH  22  36
ATOM     36  C   UNL     1       8.139  -3.602  24.215  0.00  0.00    +0.060 C 
BRANCH  36  37
ATOM     37  C   UNL     1       7.439  -4.276  23.022  0.00  0.00    -0.046 A 
ATOM     38  C   UNL     1       6.602  -3.604  22.116  0.00  0.00    +0.004 A 
ATOM     39  C   UNL     1       5.962  -4.271  21.054  0.00  0.00    +0.000 A 
ATOM     40  C   UNL     1       6.121  -5.652  20.895  0.00  0.00    +0.000 A 
ATOM     41  C   UNL     1       6.896  -6.346  21.805  0.00  0.00    +0.000 A 
ATOM     42  C   UNL     1       7.539  -5.677  22.859  0.00  0.00    +0.004 A 
ENDBRANCH  36  37
ENDBRANCH  22  36
ENDBRANCH   1  22
TORSDOF 14
ENDMDL
MODEL 3
REMARK VINA RESULT:      -6.5      1.882      3.460
REMARK  Name = 
REMARK  16 active torsions:
REMARK  status: ('A' for Active; 'I' for Inactive)
REMARK    1  A    between atoms: C_1  and  C_2
REMARK    2  A    between atoms: C_2  and  C_3
REMARK    3  A    between atoms: C_2  and  C_4
REMARK    4  A    between atoms: C_4  and  N_5
REMARK    5  A    between atoms: N_5  and  C_6
REMARK    6  A    between atoms: N_5  and  S_29
REMARK    7  A    between atoms: C_6  and  C_7
REMARK    8  A    between atoms: C_7  and  C_8
REMARK    9  A    between atoms: C_7  and  O_28
REMARK   10  A    between atoms: C_8  and  C_9
REMARK   11  A    between atoms: C_8  and  N_16
REMARK   12  A    between atoms: C_9  and  C_10
REMARK   13  A    between atoms: C_17  and  O_19
REMARK   14  A    between atoms: O_19  and  C_20
REMARK   15  A    between atoms: S_29  and  C_32
REMARK   16  A    between atoms: C_35  and  N_38
REMARK                            x       y       z     vdW  Elec       q    Type
REMARK                         _______ _______ _______ _____ _____    ______ ____
ROOT
ATOM      1  C   UNL     1       8.186  -1.457  26.632  0.00  0.00    +0.151 C 
ENDROOT
BRANCH   1   2
ATOM      2  O   UNL     1       9.004  -0.542  27.391  0.00  0.00    -0.389 OA
ATOM      3  H   UNL     1       9.838  -0.428  26.905  0.00  0.00    +0.210 HD
ENDBRANCH   1   2
BRANCH   1   4
ATOM      4  C   UNL     1       6.698  -1.244  27.039  0.00  0.00    +0.142 C 
BRANCH   4   5
ATOM      5  N   UNL     1       6.194   0.261  27.039  0.00  0.00    -0.174 NA
BRANCH   5   6
ATOM      6  S   UNL     1       5.260   0.544  25.591  0.00  0.00    +0.061 S 
ATOM      7  O   UNL     1       3.942   0.963  25.978  0.00  0.00    -0.153 OA
ATOM      8  O   UNL     1       5.439  -0.577  24.696  0.00  0.00    -0.153 OA
BRANCH   6   9
ATOM      9  C   UNL     1       6.118   1.895  24.819  0.00  0.00    +0.106 A 
ATOM     10  C   UNL     1       5.834   2.262  23.504  0.00  0.00    +0.030 A 
ATOM     11  C   UNL     1       6.542   3.319  22.921  0.00  0.00    +0.024 A 
ATOM     12  C   UNL     1       7.512   4.019  23.646  0.00  0.00    +0.025 A 
ATOM     13  C   UNL     1       7.863   3.559  24.919  0.00  0.00    +0.024 A 
ATOM     14  C   UNL     1       7.158   2.513  25.516  0.00  0.00    +0.030 A 
BRANCH  12  15
ATOM     15  N   UNL     1       8.279   5.011  23.023  0.00  0.00    -0.358 N 
ATOM     16  H   UNL     1       9.241   5.045  23.349  0.00  0.00    +0.142 HD
ATOM     17  H   UNL     1       8.224   4.991  22.009  0.00  0.00    +0.142 HD
ENDBRANCH  12  15
ENDBRANCH   6   9
ENDBRANCH   5   6
BRANCH   5  18
ATOM     18  C   UNL     1       5.598   0.707  28.357  0.00  0.00    +0.112 C 
BRANCH  18  20
ATOM     19  C   UNL     1       7.159   2.584  29.439  0.00  0.00    +0.008 C 
ATOM     20  C   UNL     1       5.764   2.111  29.021  0.00  0.00    -0.001 C 
ATOM     21  C   UNL     1       4.950   3.279  28.460  0.00  0.00    +0.008 C 
ENDBRANCH  18  20
ENDBRANCH   5  18
ENDBRANCH   4   5
ENDBRANCH   1   4
BRANCH   1  22
ATOM     22  C   UNL     1       8.611  -1.297  25.107  0.00  0.00    +0.110 C 
BRANCH  22  23
ATOM     23  N   UNL     1       8.106  -2.447  24.251  0.00  0.00    -0.275 N 
ATOM     24  H   UNL     1       7.468  -2.135  23.531  0.00  0.00    +0.152 HD
ATOM     25  C   UNL     1       8.603  -3.695  23.958  0.00  0.00    +0.401 C 
ATOM     26  O   UNL     1       9.480  -4.281  24.563  0.00  0.00    -0.226 OA
BRANCH  25  27
ATOM     27  O   UNL     1       7.974  -4.202  22.830  0.00  0.00    -0.444 OA
BRANCH  27  28
ATOM     28  C   UNL     1       7.115  -5.404  22.941  0.00  0.00    +0.212 C 
ATOM     29  C   UNL     1       5.845  -5.098  23.754  0.00  0.00    +0.090 C 
ATOM     30  C   UNL     1       4.946  -6.281  24.165  0.00  0.00    +0.040 C 
ATOM     31  C   UNL     1       3.679  -6.156  23.333  0.00  0.00    +0.163 C 
ATOM     32  O   UNL     1       3.624  -4.786  22.949  0.00  0.00    -0.351 OA
ATOM     33  C   UNL     1       4.974  -4.370  22.739  0.00  0.00    +0.257 C 
ATOM     34  O   UNL     1       5.422  -4.755  21.431  0.00  0.00    -0.347 OA
ATOM     35  C   UNL     1       6.497  -5.702  21.585  0.00  0.00    +0.208 C 
ENDBRANCH  27  28
ENDBRANCH  25  27
ENDBRANCH  22  23
BRANCH  22  36
ATOM     36  C   UNL     1      10.054  -0.751  24.868  0.00  0.00    +0.060 C 
BRANCH  36  37
ATOM     37  C   UNL     1      10.226   0.422  23.887  0.00  0.00    -0.046 A 
ATOM     38  C   UNL     1      10.889   1.620  24.198  0.00  0.00    +0.004 A 
ATOM     39  C   UNL     1      10.997   2.676  23.273  0.00  0.00    +0.000 A 
ATOM     40  C   UNL     1      10.404   2.566  22.010  0.00  0.00    +0.000 A 
ATOM     41  C   UNL     1       9.699   1.419  21.698  0.00  0.00    +0.000 A 
ATOM     42  C   UNL     1       9.600   0.365  22.620  0.00  0.00    +0.004 A 
ENDBRANCH  36  37
ENDBRANCH  22  36
ENDBRANCH   1  22
TORSDOF 14
ENDMDL
MODEL 4
REMARK VINA RESULT:      -6.5      2.485      6.328
REMARK  Name = 
REMARK  16 active torsions:
REMARK  status: ('A' for Active; 'I' for Inactive)
REMARK    1  A    between atoms: C_1  and  C_2
REMARK    2  A    between atoms: C_2  and  C_3
REMARK    3  A    between atoms: C_2  and  C_4
REMARK    4  A    between atoms: C_4  and  N_5
REMARK    5  A    between atoms: N_5  and  C_6
REMARK    6  A    between atoms: N_5  and  S_29
REMARK    7  A    between atoms: C_6  and  C_7
REMARK    8  A    between atoms: C_7  and  C_8
REMARK    9  A    between atoms: C_7  and  O_28
REMARK   10  A    between atoms: C_8  and  C_9
REMARK   11  A    between atoms: C_8  and  N_16
REMARK   12  A    between atoms: C_9  and  C_10
REMARK   13  A    between atoms: C_17  and  O_19
REMARK   14  A    between atoms: O_19  and  C_20
REMARK   15  A    between atoms: S_29  and  C_32
REMARK   16  A    between atoms: C_35  and  N_38
REMARK                            x       y       z     vdW  Elec       q    Type
REMARK                         _______ _______ _______ _____ _____    ______ ____
ROOT
ATOM      1  C   UNL     1       8.894  -4.375  24.845  0.00  0.00    +0.151 C 
ENDROOT
BRANCH   1   2
ATOM      2  O   UNL     1      10.236  -4.904  24.780  0.00  0.00    -0.389 OA
ATOM      3  H   UNL     1      10.840  -4.195  25.056  0.00  0.00    +0.210 HD
ENDBRANCH   1   2
BRANCH   1   4
ATOM      4  C   UNL     1       8.191  -4.967  26.103  0.00  0.00    +0.142 C 
BRANCH   4   5
ATOM      5  N   UNL     1       6.811  -5.703  25.835  0.00  0.00    -0.174 NA
BRANCH   5   6
ATOM      6  S   UNL     1       5.933  -5.822  27.340  0.00  0.00    +0.061 S 
ATOM      7  O   UNL     1       6.789  -5.373  28.400  0.00  0.00    -0.153 OA
ATOM      8  O   UNL     1       5.302  -7.121  27.408  0.00  0.00    -0.153 OA
BRANCH   6   9
ATOM      9  C   UNL     1       4.598  -4.670  27.116  0.00  0.00    +0.106 A 
ATOM     10  C   UNL     1       4.802  -3.301  27.288  0.00  0.00    +0.030 A 
ATOM     11  C   UNL     1       3.725  -2.423  27.122  0.00  0.00    +0.024 A 
ATOM     12  C   UNL     1       2.458  -2.900  26.769  0.00  0.00    +0.025 A 
ATOM     13  C   UNL     1       2.250  -4.282  26.719  0.00  0.00    +0.024 A 
ATOM     14  C   UNL     1       3.318  -5.168  26.872  0.00  0.00    +0.030 A 
BRANCH  12  15
ATOM     15  N   UNL     1       1.368  -2.024  26.700  0.00  0.00    -0.358 N 
ATOM     16  H   UNL     1       1.470  -1.203  27.289  0.00  0.00    +0.142 HD
ATOM     17  H   UNL     1       1.102  -1.781  25.751  0.00  0.00    +0.142 HD
ENDBRANCH  12  15
ENDBRANCH   6   9
ENDBRANCH   5   6
BRANCH   5  18
ATOM     18  C   UNL     1       6.064  -5.183  24.626  0.00  0.00    +0.112 C 
BRANCH  18  20
ATOM     19  C   UNL     1       4.032  -5.881  23.040  0.00  0.00    +0.008 C 
ATOM     20  C   UNL     1       5.499  -6.039  23.448  0.00  0.00    -0.001 C 
ATOM     21  C   UNL     1       6.378  -6.240  22.211  0.00  0.00    +0.008 C 
ENDBRANCH  18  20
ENDBRANCH   5  18
ENDBRANCH   4   5
ENDBRANCH   1   4
BRANCH   1  22
ATOM     22  C   UNL     1       9.014  -2.797  24.685  0.00  0.00    +0.110 C 
BRANCH  22  23
ATOM     23  N   UNL     1       7.656  -2.116  24.716  0.00  0.00    -0.275 N 
ATOM     24  H   UNL     1       7.557  -1.499  25.512  0.00  0.00    +0.152 HD
ATOM     25  C   UNL     1       6.724  -1.822  23.749  0.00  0.00    +0.401 C 
ATOM     26  O   UNL     1       6.668  -2.302  22.633  0.00  0.00    -0.226 OA
BRANCH  25  27
ATOM     27  O   UNL     1       5.846  -0.854  24.216  0.00  0.00    -0.444 OA
BRANCH  27  28
ATOM     28  C   UNL     1       6.317   0.167  25.180  0.00  0.00    +0.212 C 
ATOM     29  C   UNL     1       6.782   1.439  24.450  0.00  0.00    +0.090 C 
ATOM     30  C   UNL     1       7.514   2.520  25.271  0.00  0.00    +0.040 C 
ATOM     31  C   UNL     1       6.552   3.693  25.375  0.00  0.00    +0.163 C 
ATOM     32  O   UNL     1       5.655   3.532  24.281  0.00  0.00    -0.351 OA
ATOM     33  C   UNL     1       5.464   2.126  24.118  0.00  0.00    +0.257 C 
ATOM     34  O   UNL     1       4.480   1.640  25.043  0.00  0.00    -0.347 OA
ATOM     35  C   UNL     1       5.125   0.720  25.944  0.00  0.00    +0.208 C 
ENDBRANCH  27  28
ENDBRANCH  25  27
ENDBRANCH  22  23
BRANCH  22  36
ATOM     36  C   UNL     1      10.083  -2.308  23.657  0.00  0.00    +0.060 C 
BRANCH  36  37
ATOM     37  C   UNL     1      10.185  -0.796  23.390  0.00  0.00    -0.046 A 
ATOM     38  C   UNL     1      10.596   0.148  24.345  0.00  0.00    +0.004 A 
ATOM     39  C   UNL     1      10.647   1.526  24.059  0.00  0.00    +0.000 A 
ATOM     40  C   UNL     1      10.250   1.997  22.803  0.00  0.00    +0.000 A 
ATOM     41  C   UNL     1       9.790   1.094  21.863  0.00  0.00    +0.000 A 
ATOM     42  C   UNL     1       9.748  -0.280  22.148  0.00  0.00    +0.004 A 
ENDBRANCH  36  37
ENDBRANCH  22  36
ENDBRANCH   1  22
TORSDOF 14
ENDMDL
MODEL 5
REMARK VINA RESULT:      -6.5      3.144      8.015
REMARK  Name = 
REMARK  16 active torsions:
REMARK  status: ('A' for Active; 'I' for Inactive)
REMARK    1  A    between atoms: C_1  and  C_2
REMARK    2  A    between atoms: C_2  and  C_3
REMARK    3  A    between atoms: C_2  and  C_4
REMARK    4  A    between atoms: C_4  and  N_5
REMARK    5  A    between atoms: N_5  and  C_6
REMARK    6  A    between atoms: N_5  and  S_29
REMARK    7  A    between atoms: C_6  and  C_7
REMARK    8  A    between atoms: C_7  and  C_8
REMARK    9  A    between atoms: C_7  and  O_28
REMARK   10  A    between atoms: C_8  and  C_9
REMARK   11  A    between atoms: C_8  and  N_16
REMARK   12  A    between atoms: C_9  and  C_10
REMARK   13  A    between atoms: C_17  and  O_19
REMARK   14  A    between atoms: O_19  and  C_20
REMARK   15  A    between atoms: S_29  and  C_32
REMARK   16  A    between atoms: C_35  and  N_38
REMARK                            x       y       z     vdW  Elec       q    Type
REMARK                         _______ _______ _______ _____ _____    ______ ____
ROOT
ATOM      1  C   UNL     1       8.533  -5.051  25.479  0.00  0.00    +0.151 C 
ENDROOT
BRANCH   1   2
ATOM      2  O   UNL     1       9.783  -5.712  25.772  0.00  0.00    -0.389 OA
ATOM      3  H   UNL     1       9.610  -6.668  25.773  0.00  0.00    +0.210 HD
ENDBRANCH   1   2
BRANCH   1   4
ATOM      4  C   UNL     1       8.173  -4.122  26.676  0.00  0.00    +0.142 C 
BRANCH   4   5
ATOM      5  N   UNL     1       6.623  -3.932  26.955  0.00  0.00    -0.174 NA
BRANCH   5   6
ATOM      6  S   UNL     1       6.110  -5.117  28.130  0.00  0.00    +0.061 S 
ATOM      7  O   UNL     1       5.743  -4.430  29.336  0.00  0.00    -0.153 OA
ATOM      8  O   UNL     1       7.079  -6.188  28.163  0.00  0.00    -0.153 OA
BRANCH   6   9
ATOM      9  C   UNL     1       4.663  -5.825  27.379  0.00  0.00    +0.106 A 
ATOM     10  C   UNL     1       4.773  -6.888  26.482  0.00  0.00    +0.030 A 
ATOM     11  C   UNL     1       3.615  -7.410  25.894  0.00  0.00    +0.024 A 
ATOM     12  C   UNL     1       2.354  -6.891  26.210  0.00  0.00    +0.025 A 
ATOM     13  C   UNL     1       2.278  -5.752  27.017  0.00  0.00    +0.024 A 
ATOM     14  C   UNL     1       3.424  -5.228  27.618  0.00  0.00    +0.030 A 
BRANCH  12  15
ATOM     15  N   UNL     1       1.214  -7.356  25.545  0.00  0.00    -0.358 N 
ATOM     16  H   UNL     1       0.723  -6.633  25.026  0.00  0.00    +0.142 HD
ATOM     17  H   UNL     1       1.382  -8.182  24.977  0.00  0.00    +0.142 HD
ENDBRANCH  12  15
ENDBRANCH   6   9
ENDBRANCH   5   6
BRANCH   5  18
ATOM     18  C   UNL     1       6.215  -2.492  27.188  0.00  0.00    +0.112 C 
BRANCH  18  20
ATOM     19  C   UNL     1       5.832  -0.365  25.619  0.00  0.00    +0.008 C 
ATOM     20  C   UNL     1       6.779  -1.239  26.446  0.00  0.00    -0.001 C 
ATOM     21  C   UNL     1       7.810  -0.371  27.171  0.00  0.00    +0.008 C 
ENDBRANCH  18  20
ENDBRANCH   5  18
ENDBRANCH   4   5
ENDBRANCH   1   4
BRANCH   1  22
ATOM     22  C   UNL     1       8.673  -4.430  24.020  0.00  0.00    +0.110 C 
BRANCH  22  23
ATOM     23  N   UNL     1       8.904  -2.928  24.060  0.00  0.00    -0.275 N 
ATOM     24  H   UNL     1       9.030  -2.586  25.004  0.00  0.00    +0.152 HD
ATOM     25  C   UNL     1       9.379  -2.021  23.143  0.00  0.00    +0.401 C 
ATOM     26  O   UNL     1       9.481  -2.196  21.943  0.00  0.00    -0.226 OA
BRANCH  25  27
ATOM     27  O   UNL     1       9.766  -0.855  23.786  0.00  0.00    -0.444 OA
BRANCH  27  28
ATOM     28  C   UNL     1       8.896   0.343  23.733  0.00  0.00    +0.212 C 
ATOM     29  C   UNL     1       9.522   1.512  24.514  0.00  0.00    +0.090 C 
ATOM     30  C   UNL     1       8.658   2.764  24.759  0.00  0.00    +0.040 C 
ATOM     31  C   UNL     1       9.248   3.861  23.886  0.00  0.00    +0.163 C 
ATOM     32  O   UNL     1      10.591   3.456  23.643  0.00  0.00    -0.351 OA
ATOM     33  C   UNL     1      10.572   2.031  23.540  0.00  0.00    +0.257 C 
ATOM     34  O   UNL     1      10.173   1.627  22.222  0.00  0.00    -0.347 OA
ATOM     35  C   UNL     1       8.924   0.918  22.326  0.00  0.00    +0.208 C 
ENDBRANCH  27  28
ENDBRANCH  25  27
ENDBRANCH  22  23
BRANCH  22  36
ATOM     36  C   UNL     1       7.706  -5.020  22.947  0.00  0.00    +0.060 C 
BRANCH  36  37
ATOM     37  C   UNL     1       6.193  -4.841  23.165  0.00  0.00    -0.046 A 
ATOM     38  C   UNL     1       5.619  -3.763  23.858  0.00  0.00    +0.004 A 
ATOM     39  C   UNL     1       4.228  -3.657  24.054  0.00  0.00    +0.000 A 
ATOM     40  C   UNL     1       3.375  -4.662  23.584  0.00  0.00    +0.000 A 
ATOM     41  C   UNL     1       3.920  -5.760  22.947  0.00  0.00    +0.000 A 
ATOM     42  C   UNL     1       5.306  -5.859  22.745  0.00  0.00    +0.004 A 
ENDBRANCH  36  37
ENDBRANCH  22  36
ENDBRANCH   1  22
TORSDOF 14
ENDMDL
MODEL 6
REMARK VINA RESULT:      -6.4      2.712      4.890
REMARK  Name = 
REMARK  16 active torsions:
REMARK  status: ('A' for Active; 'I' for Inactive)
REMARK    1  A    between atoms: C_1  and  C_2
REMARK    2  A    between atoms: C_2  and  C_3
REMARK    3  A    between atoms: C_2  and  C_4
REMARK    4  A    between atoms: C_4  and  N_5
REMARK    5  A    between atoms: N_5  and  C_6
REMARK    6  A    between atoms: N_5  and  S_29
REMARK    7  A    between atoms: C_6  and  C_7
REMARK    8  A    between atoms: C_7  and  C_8
REMARK    9  A    between atoms: C_7  and  O_28
REMARK   10  A    between atoms: C_8  and  C_9
REMARK   11  A    between atoms: C_8  and  N_16
REMARK   12  A    between atoms: C_9  and  C_10
REMARK   13  A    between atoms: C_17  and  O_19
REMARK   14  A    between atoms: O_19  and  C_20
REMARK   15  A    between atoms: S_29  and  C_32
REMARK   16  A    between atoms: C_35  and  N_38
REMARK                            x       y       z     vdW  Elec       q    Type
REMARK                         _______ _______ _______ _____ _____    ______ ____
ROOT
ATOM      1  C   UNL     1       9.277  -0.969  24.587  0.00  0.00    +0.151 C 
ENDROOT
BRANCH   1   2
ATOM      2  O   UNL     1      10.179  -1.509  23.599  0.00  0.00    -0.389 OA
ATOM      3  H   UNL     1       9.711  -1.507  22.748  0.00  0.00    +0.210 HD
ENDBRANCH   1   2
BRANCH   1   4
ATOM      4  C   UNL     1       8.391   0.116  23.907  0.00  0.00    +0.142 C 
BRANCH   4   5
ATOM      5  N   UNL     1       8.677   1.613  24.349  0.00  0.00    -0.174 NA
BRANCH   5   6
ATOM      6  S   UNL     1       8.835   2.604  22.920  0.00  0.00    +0.061 S 
ATOM      7  O   UNL     1       7.558   3.194  22.635  0.00  0.00    -0.153 OA
ATOM      8  O   UNL     1       9.536   1.849  21.906  0.00  0.00    -0.153 OA
BRANCH   6   9
ATOM      9  C   UNL     1       9.979   3.864  23.431  0.00  0.00    +0.106 A 
ATOM     10  C   UNL     1       9.521   5.059  23.989  0.00  0.00    +0.030 A 
ATOM     11  C   UNL     1      10.448   6.037  24.364  0.00  0.00    +0.024 A 
ATOM     12  C   UNL     1      11.822   5.824  24.203  0.00  0.00    +0.025 A 
ATOM     13  C   UNL     1      12.250   4.672  23.536  0.00  0.00    +0.024 A 
ATOM     14  C   UNL     1      11.337   3.684  23.166  0.00  0.00    +0.030 A 
BRANCH  12  15
ATOM     15  N   UNL     1      12.734   6.846  24.493  0.00  0.00    -0.358 N 
ATOM     16  H   UNL     1      13.141   7.273  23.666  0.00  0.00    +0.142 HD
ATOM     17  H   UNL     1      12.373   7.541  25.140  0.00  0.00    +0.142 HD
ENDBRANCH  12  15
ENDBRANCH   6   9
ENDBRANCH   5   6
BRANCH   5  18
ATOM     18  C   UNL     1       7.765   2.111  25.449  0.00  0.00    +0.112 C 
BRANCH  18  20
ATOM     19  C   UNL     1       5.931   1.536  27.304  0.00  0.00    +0.008 C 
ATOM     20  C   UNL     1       6.372   1.519  25.837  0.00  0.00    -0.001 C 
ATOM     21  C   UNL     1       5.182   1.801  24.918  0.00  0.00    +0.008 C 
ENDBRANCH  18  20
ENDBRANCH   5  18
ENDBRANCH   4   5
ENDBRANCH   1   4
BRANCH   1  22
ATOM     22  C   UNL     1       8.585  -2.209  25.305  0.00  0.00    +0.110 C 
BRANCH  22  23
ATOM     23  N   UNL     1       8.126  -3.260  24.309  0.00  0.00    -0.275 N 
ATOM     24  H   UNL     1       7.643  -2.853  23.519  0.00  0.00    +0.152 HD
ATOM     25  C   UNL     1       8.551  -4.535  24.018  0.00  0.00    +0.401 C 
ATOM     26  O   UNL     1       9.263  -5.234  24.715  0.00  0.00    -0.226 OA
BRANCH  25  27
ATOM     27  O   UNL     1       8.072  -4.923  22.776  0.00  0.00    -0.444 OA
BRANCH  27  28
ATOM     28  C   UNL     1       6.956  -5.893  22.684  0.00  0.00    +0.212 C 
ATOM     29  C   UNL     1       5.799  -5.489  23.615  0.00  0.00    +0.090 C 
ATOM     30  C   UNL     1       4.651  -6.496  23.823  0.00  0.00    +0.040 C 
ATOM     31  C   UNL     1       3.442  -5.911  23.109  0.00  0.00    +0.163 C 
ATOM     32  O   UNL     1       3.707  -4.514  23.023  0.00  0.00    -0.351 OA
ATOM     33  C   UNL     1       5.116  -4.380  22.826  0.00  0.00    +0.257 C 
ATOM     34  O   UNL     1       5.451  -4.567  21.443  0.00  0.00    -0.347 OA
ATOM     35  C   UNL     1       6.274  -5.743  21.333  0.00  0.00    +0.208 C 
ENDBRANCH  27  28
ENDBRANCH  25  27
ENDBRANCH  22  23
BRANCH  22  36
ATOM     36  C   UNL     1       7.660  -1.853  26.511  0.00  0.00    +0.060 C 
BRANCH  36  37
ATOM     37  C   UNL     1       6.297  -2.561  26.605  0.00  0.00    -0.046 A 
ATOM     38  C   UNL     1       6.098  -3.813  27.208  0.00  0.00    +0.004 A 
ATOM     39  C   UNL     1       4.834  -4.432  27.246  0.00  0.00    +0.000 A 
ATOM     40  C   UNL     1       3.732  -3.816  26.640  0.00  0.00    +0.000 A 
ATOM     41  C   UNL     1       3.913  -2.608  25.992  0.00  0.00    +0.000 A 
ATOM     42  C   UNL     1       5.173  -1.990  25.964  0.00  0.00    +0.004 A 
ENDBRANCH  36  37
ENDBRANCH  22  36
ENDBRANCH   1  22
TORSDOF 14
ENDMDL
MODEL 7
REMARK VINA RESULT:      -6.3      2.236      4.377
REMARK  Name = 
REMARK  16 active torsions:
REMARK  status: ('A' for Active; 'I' for Inactive)
REMARK    1  A    between atoms: C_1  and  C_2
REMARK    2  A    between atoms: C_2  and  C_3
REMARK    3  A    between atoms: C_2  and  C_4
REMARK    4  A    between atoms: C_4  and  N_5
REMARK    5  A    between atoms: N_5  and  C_6
REMARK    6  A    between atoms: N_5  and  S_29
REMARK    7  A    between atoms: C_6  and  C_7
REMARK    8  A    between atoms: C_7  and  C_8
REMARK    9  A    between atoms: C_7  and  O_28
REMARK   10  A    between atoms: C_8  and  C_9
REMARK   11  A    between atoms: C_8  and  N_16
REMARK   12  A    between atoms: C_9  and  C_10
REMARK   13  A    between atoms: C_17  and  O_19
REMARK   14  A    between atoms: O_19  and  C_20
REMARK   15  A    between atoms: S_29  and  C_32
REMARK   16  A    between atoms: C_35  and  N_38
REMARK                            x       y       z     vdW  Elec       q    Type
REMARK                         _______ _______ _______ _____ _____    ______ ____
ROOT
ATOM      1  C   UNL     1       6.964  -0.286  27.406  0.00  0.00    +0.151 C 
ENDROOT
BRANCH   1   2
ATOM      2  O   UNL     1       7.929   0.659  27.915  0.00  0.00    -0.389 OA
ATOM      3  H   UNL     1       7.529   1.094  28.685  0.00  0.00    +0.210 HD
ENDBRANCH   1   2
BRANCH   1   4
ATOM      4  C   UNL     1       5.583   0.425  27.302  0.00  0.00    +0.142 C 
BRANCH   4   5
ATOM      5  N   UNL     1       5.632   1.977  26.975  0.00  0.00    -0.174 NA
BRANCH   5   6
ATOM      6  S   UNL     1       5.167   2.220  25.310  0.00  0.00    +0.061 S 
ATOM      7  O   UNL     1       3.952   2.985  25.286  0.00  0.00    -0.153 OA
ATOM      8  O   UNL     1       5.251   0.955  24.616  0.00  0.00    -0.153 OA
BRANCH   6   9
ATOM      9  C   UNL     1       6.504   3.195  24.660  0.00  0.00    +0.106 A 
ATOM     10  C   UNL     1       7.630   3.469  25.436  0.00  0.00    +0.030 A 
ATOM     11  C   UNL     1       8.655   4.255  24.899  0.00  0.00    +0.024 A 
ATOM     12  C   UNL     1       8.571   4.751  23.593  0.00  0.00    +0.025 A 
ATOM     13  C   UNL     1       7.384   4.563  22.878  0.00  0.00    +0.024 A 
ATOM     14  C   UNL     1       6.358   3.772  23.397  0.00  0.00    +0.030 A 
BRANCH  12  15
ATOM     15  N   UNL     1       9.557   5.614  23.101  0.00  0.00    -0.358 N 
ATOM     16  H   UNL     1      10.124   6.040  23.829  0.00  0.00    +0.142 HD
ATOM     17  H   UNL     1      10.128   5.204  22.367  0.00  0.00    +0.142 HD
ENDBRANCH  12  15
ENDBRANCH   6   9
ENDBRANCH   5   6
BRANCH   5  18
ATOM     18  C   UNL     1       4.967   2.845  28.023  0.00  0.00    +0.112 C 
BRANCH  18  20
ATOM     19  C   UNL     1       6.748   4.436  29.217  0.00  0.00    +0.008 C 
ATOM     20  C   UNL     1       5.422   4.270  28.470  0.00  0.00    -0.001 C 
ATOM     21  C   UNL     1       5.204   5.437  27.504  0.00  0.00    +0.008 C 
ENDBRANCH  18  20
ENDBRANCH   5  18
ENDBRANCH   4   5
ENDBRANCH   1   4
BRANCH   1  22
ATOM     22  C   UNL     1       7.606  -0.945  26.107  0.00  0.00    +0.110 C 
BRANCH  22  23
ATOM     23  N   UNL     1       7.209  -2.404  25.952  0.00  0.00    -0.275 N 
ATOM     24  H   UNL     1       6.438  -2.523  25.308  0.00  0.00    +0.152 HD
ATOM     25  C   UNL     1       7.878  -3.590  26.141  0.00  0.00    +0.401 C 
ATOM     26  O   UNL     1       8.917  -3.741  26.756  0.00  0.00    -0.226 OA
BRANCH  25  27
ATOM     27  O   UNL     1       7.211  -4.618  25.492  0.00  0.00    -0.444 OA
BRANCH  27  28
ATOM     28  C   UNL     1       7.644  -5.043  24.140  0.00  0.00    +0.212 C 
ATOM     29  C   UNL     1       6.449  -5.554  23.316  0.00  0.00    +0.090 C 
ATOM     30  C   UNL     1       6.741  -6.247  21.970  0.00  0.00    +0.040 C 
ATOM     31  C   UNL     1       6.264  -5.288  20.890  0.00  0.00    +0.163 C 
ATOM     32  O   UNL     1       5.312  -4.449  21.536  0.00  0.00    -0.351 OA
ATOM     33  C   UNL     1       5.781  -4.259  22.872  0.00  0.00    +0.257 C 
ATOM     34  O   UNL     1       6.774  -3.224  22.915  0.00  0.00    -0.347 OA
ATOM     35  C   UNL     1       8.022  -3.814  23.328  0.00  0.00    +0.208 C 
ENDBRANCH  27  28
ENDBRANCH  25  27
ENDBRANCH  22  23
BRANCH  22  36
ATOM     36  C   UNL     1       9.078  -0.523  25.801  0.00  0.00    +0.060 C 
BRANCH  36  37
ATOM     37  C   UNL     1       9.349   0.243  24.494  0.00  0.00    -0.046 A 
ATOM     38  C   UNL     1      10.449   1.092  24.291  0.00  0.00    +0.004 A 
ATOM     39  C   UNL     1      10.639   1.792  23.084  0.00  0.00    +0.000 A 
ATOM     40  C   UNL     1       9.699   1.682  22.053  0.00  0.00    +0.000 A 
ATOM     41  C   UNL     1       8.580   0.895  22.248  0.00  0.00    +0.000 A 
ATOM     42  C   UNL     1       8.397   0.191  23.449  0.00  0.00    +0.004 A 
ENDBRANCH  36  37
ENDBRANCH  22  36
ENDBRANCH   1  22
TORSDOF 14
ENDMDL
MODEL 8
REMARK VINA RESULT:      -6.3      2.881      4.922
REMARK  Name = 
REMARK  16 active torsions:
REMARK  status: ('A' for Active; 'I' for Inactive)
REMARK    1  A    between atoms: C_1  and  C_2
REMARK    2  A    between atoms: C_2  and  C_3
REMARK    3  A    between atoms: C_2  and  C_4
REMARK    4  A    between atoms: C_4  and  N_5
REMARK    5  A    between atoms: N_5  and  C_6
REMARK    6  A    between atoms: N_5  and  S_29
REMARK    7  A    between atoms: C_6  and  C_7
REMARK    8  A    between atoms: C_7  and  C_8
REMARK    9  A    between atoms: C_7  and  O_28
REMARK   10  A    between atoms: C_8  and  C_9
REMARK   11  A    between atoms: C_8  and  N_16
REMARK   12  A    between atoms: C_9  and  C_10
REMARK   13  A    between atoms: C_17  and  O_19
REMARK   14  A    between atoms: O_19  and  C_20
REMARK   15  A    between atoms: S_29  and  C_32
REMARK   16  A    between atoms: C_35  and  N_38
REMARK                            x       y       z     vdW  Elec       q    Type
REMARK                         _______ _______ _______ _____ _____    ______ ____
ROOT
ATOM      1  C   UNL     1      10.054  -1.372  23.225  0.00  0.00    +0.151 C 
ENDROOT
BRANCH   1   2
ATOM      2  O   UNL     1      10.163  -1.015  21.831  0.00  0.00    -0.389 OA
ATOM      3  H   UNL     1      11.089  -0.772  21.667  0.00  0.00    +0.210 HD
ENDBRANCH   1   2
BRANCH   1   4
ATOM      4  C   UNL     1      10.493  -0.150  24.085  0.00  0.00    +0.142 C 
BRANCH   4   5
ATOM      5  N   UNL     1       9.451   1.044  24.165  0.00  0.00    -0.174 NA
BRANCH   5   6
ATOM      6  S   UNL     1       9.953   2.308  23.071  0.00  0.00    +0.061 S 
ATOM      7  O   UNL     1       9.892   1.797  21.731  0.00  0.00    -0.153 OA
ATOM      8  O   UNL     1      11.171   2.901  23.575  0.00  0.00    -0.153 OA
BRANCH   6   9
ATOM      9  C   UNL     1       8.704   3.553  23.298  0.00  0.00    +0.106 A 
ATOM     10  C   UNL     1       7.681   3.715  22.363  0.00  0.00    +0.030 A 
ATOM     11  C   UNL     1       6.725   4.716  22.563  0.00  0.00    +0.024 A 
ATOM     12  C   UNL     1       6.774   5.540  23.694  0.00  0.00    +0.025 A 
ATOM     13  C   UNL     1       7.872   5.438  24.553  0.00  0.00    +0.024 A 
ATOM     14  C   UNL     1       8.827   4.436  24.371  0.00  0.00    +0.030 A 
BRANCH  12  15
ATOM     15  N   UNL     1       5.870   6.599  23.834  0.00  0.00    -0.358 N 
ATOM     16  H   UNL     1       5.507   6.943  22.950  0.00  0.00    +0.142 HD
ATOM     17  H   UNL     1       5.128   6.414  24.503  0.00  0.00    +0.142 HD
ENDBRANCH  12  15
ENDBRANCH   6   9
ENDBRANCH   5   6
BRANCH   5  18
ATOM     18  C   UNL     1       8.005   0.598  24.106  0.00  0.00    +0.112 C 
BRANCH  18  20
ATOM     19  C   UNL     1       7.229   1.781  26.371  0.00  0.00    +0.008 C 
ATOM     20  C   UNL     1       6.873   0.992  25.108  0.00  0.00    -0.001 C 
ATOM     21  C   UNL     1       5.535   1.470  24.539  0.00  0.00    +0.008 C 
ENDBRANCH  18  20
ENDBRANCH   5  18
ENDBRANCH   4   5
ENDBRANCH   1   4
BRANCH   1  22
ATOM     22  C   UNL     1       8.603  -1.992  23.429  0.00  0.00    +0.110 C 
BRANCH  22  23
ATOM     23  N   UNL     1       8.475  -2.721  24.756  0.00  0.00    -0.275 N 
ATOM     24  H   UNL     1       7.637  -2.458  25.258  0.00  0.00    +0.152 HD
ATOM     25  C   UNL     1       8.979  -3.908  25.234  0.00  0.00    +0.401 C 
ATOM     26  O   UNL     1       9.901  -4.543  24.757  0.00  0.00    -0.226 OA
BRANCH  25  27
ATOM     27  O   UNL     1       8.259  -4.315  26.347  0.00  0.00    -0.444 OA
BRANCH  27  28
ATOM     28  C   UNL     1       6.789  -4.477  26.257  0.00  0.00    +0.212 C 
ATOM     29  C   UNL     1       6.391  -5.959  26.376  0.00  0.00    +0.090 C 
ATOM     30  C   UNL     1       4.928  -6.343  26.078  0.00  0.00    +0.040 C 
ATOM     31  C   UNL     1       4.312  -6.724  27.415  0.00  0.00    +0.163 C 
ATOM     32  O   UNL     1       5.416  -7.073  28.243  0.00  0.00    -0.351 OA
ATOM     33  C   UNL     1       6.489  -6.204  27.876  0.00  0.00    +0.257 C 
ATOM     34  O   UNL     1       6.354  -4.934  28.530  0.00  0.00    -0.347 OA
ATOM     35  C   UNL     1       6.147  -3.927  27.520  0.00  0.00    +0.208 C 
ENDBRANCH  27  28
ENDBRANCH  25  27
ENDBRANCH  22  23
BRANCH  22  36
ATOM     36  C   UNL     1       7.959  -2.621  22.153  0.00  0.00    +0.060 C 
BRANCH  36  37
ATOM     37  C   UNL     1       6.925  -3.745  22.349  0.00  0.00    -0.046 A 
ATOM     38  C   UNL     1       7.168  -5.098  22.065  0.00  0.00    +0.004 A 
ATOM     39  C   UNL     1       6.180  -6.086  22.236  0.00  0.00    +0.000 A 
ATOM     40  C   UNL     1       4.897  -5.729  22.669  0.00  0.00    +0.000 A 
ATOM     41  C   UNL     1       4.617  -4.396  22.903  0.00  0.00    +0.000 A 
ATOM     42  C   UNL     1       5.607  -3.414  22.739  0.00  0.00    +0.004 A 
ENDBRANCH  36  37
ENDBRANCH  22  36
ENDBRANCH   1  22
TORSDOF 14
ENDMDL
MODEL 9
REMARK VINA RESULT:      -6.3      2.276      5.316
REMARK  Name = 
REMARK  16 active torsions:
REMARK  status: ('A' for Active; 'I' for Inactive)
REMARK    1  A    between atoms: C_1  and  C_2
REMARK    2  A    between atoms: C_2  and  C_3
REMARK    3  A    between atoms: C_2  and  C_4
REMARK    4  A    between atoms: C_4  and  N_5
REMARK    5  A    between atoms: N_5  and  C_6
REMARK    6  A    between atoms: N_5  and  S_29
REMARK    7  A    between atoms: C_6  and  C_7
REMARK    8  A    between atoms: C_7  and  C_8
REMARK    9  A    between atoms: C_7  and  O_28
REMARK   10  A    between atoms: C_8  and  C_9
REMARK   11  A    between atoms: C_8  and  N_16
REMARK   12  A    between atoms: C_9  and  C_10
REMARK   13  A    between atoms: C_17  and  O_19
REMARK   14  A    between atoms: O_19  and  C_20
REMARK   15  A    between atoms: S_29  and  C_32
REMARK   16  A    between atoms: C_35  and  N_38
REMARK                            x       y       z     vdW  Elec       q    Type
REMARK                         _______ _______ _______ _____ _____    ______ ____
ROOT
ATOM      1  C   UNL     1       8.677  -0.728  25.836  0.00  0.00    +0.151 C 
ENDROOT
BRANCH   1   2
ATOM      2  O   UNL     1       9.413  -0.397  27.032  0.00  0.00    -0.389 OA
ATOM      3  H   UNL     1       9.085  -0.973  27.742  0.00  0.00    +0.210 HD
ENDBRANCH   1   2
BRANCH   1   4
ATOM      4  C   UNL     1       9.680  -0.820  24.648  0.00  0.00    +0.142 C 
BRANCH   4   5
ATOM      5  N   UNL     1       9.698   0.426  23.665  0.00  0.00    -0.174 NA
BRANCH   5   6
ATOM      6  S   UNL     1       8.506   0.176  22.414  0.00  0.00    +0.061 S 
ATOM      7  O   UNL     1       8.111  -1.204  22.434  0.00  0.00    -0.153 OA
ATOM      8  O   UNL     1       8.981   0.785  21.192  0.00  0.00    -0.153 OA
BRANCH   6   9
ATOM      9  C   UNL     1       7.151   1.197  22.943  0.00  0.00    +0.106 A 
ATOM     10  C   UNL     1       6.388   0.848  24.058  0.00  0.00    +0.030 A 
ATOM     11  C   UNL     1       5.316   1.664  24.436  0.00  0.00    +0.024 A 
ATOM     12  C   UNL     1       5.015   2.830  23.722  0.00  0.00    +0.025 A 
ATOM     13  C   UNL     1       5.717   3.096  22.542  0.00  0.00    +0.024 A 
ATOM     14  C   UNL     1       6.794   2.296  22.160  0.00  0.00    +0.030 A 
BRANCH  12  15
ATOM     15  N   UNL     1       3.885   3.586  24.052  0.00  0.00    -0.358 N 
ATOM     16  H   UNL     1       3.589   4.217  23.312  0.00  0.00    +0.142 HD
ATOM     17  H   UNL     1       3.113   3.030  24.407  0.00  0.00    +0.142 HD
ENDBRANCH  12  15
ENDBRANCH   6   9
ENDBRANCH   5   6
BRANCH   5  18
ATOM     18  C   UNL     1       9.702   1.764  24.373  0.00  0.00    +0.112 C 
BRANCH  18  20
ATOM     19  C   UNL     1       9.106   4.362  24.211  0.00  0.00    +0.008 C 
ATOM     20  C   UNL     1       9.915   3.162  23.710  0.00  0.00    -0.001 C 
ATOM     21  C   UNL     1      11.342   3.589  23.360  0.00  0.00    +0.008 C 
ENDBRANCH  18  20
ENDBRANCH   5  18
ENDBRANCH   4   5
ENDBRANCH   1   4
BRANCH   1  22
ATOM     22  C   UNL     1       7.764  -1.982  26.190  0.00  0.00    +0.110 C 
BRANCH  22  23
ATOM     23  N   UNL     1       7.655  -2.954  25.027  0.00  0.00    -0.275 N 
ATOM     24  H   UNL     1       7.107  -2.577  24.264  0.00  0.00    +0.152 HD
ATOM     25  C   UNL     1       8.430  -4.006  24.599  0.00  0.00    +0.401 C 
ATOM     26  O   UNL     1       9.283  -4.582  25.248  0.00  0.00    -0.226 OA
BRANCH  25  27
ATOM     27  O   UNL     1       8.125  -4.315  23.282  0.00  0.00    -0.444 OA
BRANCH  27  28
ATOM     28  C   UNL     1       7.189  -5.422  22.980  0.00  0.00    +0.212 C 
ATOM     29  C   UNL     1       5.885  -5.274  23.785  0.00  0.00    +0.090 C 
ATOM     30  C   UNL     1       4.889  -6.451  23.773  0.00  0.00    +0.040 C 
ATOM     31  C   UNL     1       3.694  -5.983  22.956  0.00  0.00    +0.163 C 
ATOM     32  O   UNL     1       3.749  -4.561  23.003  0.00  0.00    -0.351 OA
ATOM     33  C   UNL     1       5.134  -4.209  22.996  0.00  0.00    +0.257 C 
ATOM     34  O   UNL     1       5.650  -4.221  21.657  0.00  0.00    -0.347 OA
ATOM     35  C   UNL     1       6.651  -5.252  21.569  0.00  0.00    +0.208 C 
ENDBRANCH  27  28
ENDBRANCH  25  27
ENDBRANCH  22  23
BRANCH  22  36
ATOM     36  C   UNL     1       6.490  -1.665  27.035  0.00  0.00    +0.060 C 
BRANCH  36  37
ATOM     37  C   UNL     1       5.242  -2.538  26.810  0.00  0.00    -0.046 A 
ATOM     38  C   UNL     1       4.067  -2.088  26.187  0.00  0.00    +0.004 A 
ATOM     39  C   UNL     1       2.941  -2.918  26.028  0.00  0.00    +0.000 A 
ATOM     40  C   UNL     1       2.957  -4.226  26.528  0.00  0.00    +0.000 A 
ATOM     41  C   UNL     1       4.082  -4.675  27.193  0.00  0.00    +0.000 A 
ATOM     42  C   UNL     1       5.206  -3.847  27.343  0.00  0.00    +0.004 A 
ENDBRANCH  36  37
ENDBRANCH  22  36
ENDBRANCH   1  22
TORSDOF 14
ENDMDL
