MODEL 1
REMARK VINA RESULT:      -6.9      0.000      0.000
REMARK  Name = 
REMARK  18 active torsions:
REMARK  status: ('A' for Active; 'I' for Inactive)
REMARK    1  A    between atoms: C_1  and  C_2
REMARK    2  A    between atoms: C_2  and  C_3
REMARK    3  A    between atoms: C_3  and  C_4
REMARK    4  A    between atoms: C_4  and  C_6
REMARK    5  A    between atoms: C_4  and  N_14
REMARK    6  A    between atoms: C_6  and  C_8
REMARK    7  A    between atoms: N_10  and  C_11
REMARK    8  A    between atoms: C_15  and  C_17
REMARK    9  A    between atoms: C_28  and  C_30
REMARK   10  A    between atoms: C_30  and  C_32
REMARK   11  A    between atoms: C_30  and  N_36
REMARK   12  A    between atoms: C_32  and  C_33
REMARK   13  A    between atoms: C_32  and  C_34
REMARK   14  A    between atoms: C_32  and  C_35
REMARK   15  A    between atoms: C_37  and  C_39
REMARK   16  A    between atoms: C_39  and  C_41
REMARK   17  A    between atoms: C_39  and  N_47
REMARK   18  A    between atoms: C_48  and  C_50
REMARK                            x       y       z     vdW  Elec       q    Type
REMARK                         _______ _______ _______ _____ _____    ______ ____
ROOT
ATOM      1  C   UNL     1       4.954   3.419  26.973  0.00  0.00    +0.165 C 
ATOM      2  N   UNL     1       6.117   2.781  27.638  0.00  0.00    -0.288 N 
ATOM      3  C   UNL     1       6.422   1.430  27.849  0.00  0.00    +0.237 C 
ATOM      4  O   UNL     1       7.224   1.098  28.732  0.00  0.00    -0.274 OA
ATOM      5  C   UNL     1       6.751   3.749  28.541  0.00  0.00    +0.112 C 
ATOM      6  C   UNL     1       6.029   5.081  28.357  0.00  0.00    +0.012 C 
ATOM      7  C   UNL     1       4.910   5.396  29.362  0.00  0.00    +0.005 C 
ATOM      8  C   UNL     1       3.704   5.868  28.544  0.00  0.00    +0.001 C 
ATOM      9  C   UNL     1       4.166   5.910  27.094  0.00  0.00    +0.006 C 
ATOM     10  C   UNL     1       5.323   4.928  27.022  0.00  0.00    +0.023 C 
ENDROOT
BRANCH   1  13
ATOM     11  N   UNL     1       5.419   3.633  24.561  0.00  0.00    -0.304 N 
ATOM     12  H   UNL     1       6.403   3.617  24.811  0.00  0.00    +0.149 HD
ATOM     13  C   UNL     1       4.572   3.114  25.515  0.00  0.00    +0.234 C 
ATOM     14  O   UNL     1       3.493   2.593  25.229  0.00  0.00    -0.274 OA
BRANCH  11  15
ATOM     15  C   UNL     1       5.079   3.528  23.141  0.00  0.00    +0.149 C 
BRANCH  15  16
ATOM     16  C   UNL     1       4.033   4.572  22.724  0.00  0.00    +0.237 C 
ATOM     17  O   UNL     1       4.062   5.764  23.030  0.00  0.00    -0.285 OA
BRANCH  16  18
ATOM     18  C   UNL     1       2.875   4.077  21.841  0.00  0.00    +0.282 C 
ATOM     19  N   UNL     1       2.573   4.953  20.817  0.00  0.00    -0.306 N 
ATOM     20  H   UNL     1       3.129   5.799  20.782  0.00  0.00    +0.149 HD
ATOM     21  O   UNL     1       2.314   3.013  22.068  0.00  0.00    -0.267 OA
BRANCH  19  22
ATOM     22  C   UNL     1       1.589   4.711  19.813  0.00  0.00    +0.073 C 
ATOM     23  C   UNL     1       1.884   3.799  18.648  0.00  0.00    +0.024 C 
ATOM     24  C   UNL     1       1.776   5.280  18.426  0.00  0.00    +0.024 C 
ENDBRANCH  19  22
ENDBRANCH  16  18
ENDBRANCH  15  16
BRANCH  15  25
ATOM     25  C   UNL     1       6.324   3.596  22.247  0.00  0.00    +0.030 C 
BRANCH  25  27
ATOM     26  C   UNL     1       7.392   5.985  21.904  0.00  0.00    +0.004 C 
ATOM     27  C   UNL     1       7.453   4.600  22.533  0.00  0.00    -0.001 C 
ENDBRANCH  25  27
ENDBRANCH  15  25
ENDBRANCH  11  15
ENDBRANCH   1  13
BRANCH   3  28
ATOM     28  C   UNL     1       5.822   0.310  26.946  0.00  0.00    +0.164 C 
BRANCH  28  29
ATOM     29  N   UNL     1       6.980  -0.543  26.387  0.00  0.00    -0.302 N 
ATOM     30  H   UNL     1       7.512  -1.012  27.103  0.00  0.00    +0.150 HD
ATOM     31  C   UNL     1       7.684  -0.209  25.225  0.00  0.00    +0.234 C 
ATOM     32  O   UNL     1       7.262   0.747  24.553  0.00  0.00    -0.274 OA
BRANCH  31  33
ATOM     33  C   UNL     1       8.928  -1.170  24.629  0.00  0.00    +0.162 C 
BRANCH  33  34
ATOM     34  C   UNL     1      10.251  -0.579  23.959  0.00  0.00    +0.018 C 
ATOM     35  C   UNL     1      10.755   0.864  24.342  0.00  0.00    +0.006 C 
ATOM     36  C   UNL     1      10.224   2.091  23.578  0.00  0.00    +0.000 C 
ATOM     37  C   UNL     1       9.723   1.875  22.156  0.00  0.00    +0.000 C 
ATOM     38  C   UNL     1       9.470   0.433  21.734  0.00  0.00    +0.000 C 
ATOM     39  C   UNL     1      10.316  -0.620  22.435  0.00  0.00    +0.006 C 
ENDBRANCH  33  34
BRANCH  33  40
ATOM     40  N   UNL     1       8.276  -2.126  23.682  0.00  0.00    -0.298 N 
ATOM     41  H   UNL     1       8.212  -1.893  22.696  0.00  0.00    +0.150 HD
ATOM     42  C   UNL     1       8.045  -3.453  24.000  0.00  0.00    +0.264 C 
ATOM     43  O   UNL     1       8.348  -3.957  25.071  0.00  0.00    -0.268 OA
BRANCH  42  44
ATOM     44  C   UNL     1       7.314  -4.294  22.968  0.00  0.00    +0.143 A 
ATOM     45  C   UNL     1       6.475  -3.652  22.079  0.00  0.00    +0.143 A 
ATOM     46  N   UNL     1       5.876  -4.296  21.044  0.00  0.00    -0.259 NA
ATOM     47  C   UNL     1       6.151  -5.616  20.954  0.00  0.00    +0.130 A 
ATOM     48  C   UNL     1       6.978  -6.260  21.862  0.00  0.00    +0.131 A 
ATOM     49  N   UNL     1       7.589  -5.624  22.900  0.00  0.00    -0.247 NA
ENDBRANCH  42  44
ENDBRANCH  33  40
ENDBRANCH  31  33
ENDBRANCH  28  29
BRANCH  28  50
ATOM     50  C   UNL     1       4.687  -0.537  27.704  0.00  0.00    -0.011 C 
ATOM     51  C   UNL     1       5.028  -2.036  27.559  0.00  0.00    +0.013 C 
ATOM     52  C   UNL     1       3.255  -0.364  27.124  0.00  0.00    +0.013 C 
ATOM     53  C   UNL     1       4.553  -0.237  29.211  0.00  0.00    +0.013 C 
ENDBRANCH  28  50
ENDBRANCH   3  28
TORSDOF 14
ENDMDL
MODEL 2
REMARK VINA RESULT:      -6.8      2.698      5.926
REMARK  Name = 
REMARK  18 active torsions:
REMARK  status: ('A' for Active; 'I' for Inactive)
REMARK    1  A    between atoms: C_1  and  C_2
REMARK    2  A    between atoms: C_2  and  C_3
REMARK    3  A    between atoms: C_3  and  C_4
REMARK    4  A    between atoms: C_4  and  C_6
REMARK    5  A    between atoms: C_4  and  N_14
REMARK    6  A    between atoms: C_6  and  C_8
REMARK    7  A    between atoms: N_10  and  C_11
REMARK    8  A    between atoms: C_15  and  C_17
REMARK    9  A    between atoms: C_28  and  C_30
REMARK   10  A    between atoms: C_30  and  C_32
REMARK   11  A    between atoms: C_30  and  N_36
REMARK   12  A    between atoms: C_32  and  C_33
REMARK   13  A    between atoms: C_32  and  C_34
REMARK   14  A    between atoms: C_32  and  C_35
REMARK   15  A    between atoms: C_37  and  C_39
REMARK   16  A    between atoms: C_39  and  C_41
REMARK   17  A    between atoms: C_39  and  N_47
REMARK   18  A    between atoms: C_48  and  C_50
REMARK                            x       y       z     vdW  Elec       q    Type
REMARK                         _______ _______ _______ _____ _____    ______ ____
ROOT
ATOM      1  C   UNL     1       6.648   3.731  24.668  0.00  0.00    +0.165 C 
ATOM      2  N   UNL     1       6.456   2.882  23.465  0.00  0.00    -0.288 N 
ATOM      3  C   UNL     1       7.242   1.849  22.941  0.00  0.00    +0.237 C 
ATOM      4  O   UNL     1       7.129   1.515  21.753  0.00  0.00    -0.274 OA
ATOM      5  C   UNL     1       5.552   3.564  22.531  0.00  0.00    +0.112 C 
ATOM      6  C   UNL     1       5.068   4.839  23.215  0.00  0.00    +0.012 C 
ATOM      7  C   UNL     1       5.832   6.128  22.877  0.00  0.00    +0.005 C 
ATOM      8  C   UNL     1       6.136   6.821  24.209  0.00  0.00    +0.001 C 
ATOM      9  C   UNL     1       5.467   5.981  25.286  0.00  0.00    +0.006 C 
ATOM     10  C   UNL     1       5.353   4.590  24.685  0.00  0.00    +0.023 C 
ENDROOT
BRANCH   1  13
ATOM     11  N   UNL     1       5.948   2.087  26.367  0.00  0.00    -0.304 N 
ATOM     12  H   UNL     1       5.782   1.449  25.594  0.00  0.00    +0.149 HD
ATOM     13  C   UNL     1       6.792   3.136  26.079  0.00  0.00    +0.234 C 
ATOM     14  O   UNL     1       7.490   3.679  26.936  0.00  0.00    -0.274 OA
BRANCH  11  15
ATOM     15  C   UNL     1       5.898   1.536  27.722  0.00  0.00    +0.149 C 
BRANCH  15  16
ATOM     16  C   UNL     1       4.457   1.436  28.245  0.00  0.00    +0.237 C 
ATOM     17  O   UNL     1       4.139   1.337  29.430  0.00  0.00    -0.285 OA
BRANCH  16  18
ATOM     18  C   UNL     1       3.335   1.483  27.194  0.00  0.00    +0.282 C 
ATOM     19  N   UNL     1       2.653   2.684  27.195  0.00  0.00    -0.306 N 
ATOM     20  H   UNL     1       2.960   3.365  27.880  0.00  0.00    +0.149 HD
ATOM     21  O   UNL     1       3.111   0.528  26.461  0.00  0.00    -0.267 OA
BRANCH  19  22
ATOM     22  C   UNL     1       1.612   3.022  26.280  0.00  0.00    +0.073 C 
ATOM     23  C   UNL     1       1.917   3.276  24.825  0.00  0.00    +0.024 C 
ATOM     24  C   UNL     1       1.531   4.421  25.718  0.00  0.00    +0.024 C 
ENDBRANCH  19  22
ENDBRANCH  16  18
ENDBRANCH  15  16
BRANCH  15  25
ATOM     25  C   UNL     1       6.622   0.187  27.821  0.00  0.00    +0.030 C 
BRANCH  25  27
ATOM     26  C   UNL     1       8.674  -1.232  26.961  0.00  0.00    +0.004 C 
ATOM     27  C   UNL     1       8.127   0.071  27.526  0.00  0.00    -0.001 C 
ENDBRANCH  25  27
ENDBRANCH  15  25
ENDBRANCH  11  15
ENDBRANCH   1  13
BRANCH   3  28
ATOM     28  C   UNL     1       8.229   1.042  23.838  0.00  0.00    +0.164 C 
BRANCH  28  29
ATOM     29  N   UNL     1       7.967  -0.464  23.625  0.00  0.00    -0.302 N 
ATOM     30  H   UNL     1       8.423  -0.837  22.808  0.00  0.00    +0.150 HD
ATOM     31  C   UNL     1       6.773  -1.093  23.998  0.00  0.00    +0.234 C 
ATOM     32  O   UNL     1       5.950  -0.424  24.646  0.00  0.00    -0.274 OA
BRANCH  31  33
ATOM     33  C   UNL     1       6.526  -2.740  23.772  0.00  0.00    +0.162 C 
BRANCH  33  34
ATOM     34  C   UNL     1       5.529  -3.336  22.677  0.00  0.00    +0.018 C 
ATOM     35  C   UNL     1       4.458  -4.417  23.088  0.00  0.00    +0.006 C 
ATOM     36  C   UNL     1       4.830  -5.911  23.074  0.00  0.00    +0.000 C 
ATOM     37  C   UNL     1       5.952  -6.351  22.143  0.00  0.00    +0.000 C 
ATOM     38  C   UNL     1       6.832  -5.249  21.568  0.00  0.00    +0.000 C 
ATOM     39  C   UNL     1       6.168  -3.888  21.406  0.00  0.00    +0.006 C 
ENDBRANCH  33  34
BRANCH  33  40
ATOM     40  N   UNL     1       6.164  -3.278  25.119  0.00  0.00    -0.298 N 
ATOM     41  H   UNL     1       5.232  -3.119  25.491  0.00  0.00    +0.150 HD
ATOM     42  C   UNL     1       6.903  -4.259  25.756  0.00  0.00    +0.264 C 
ATOM     43  O   UNL     1       7.908  -4.768  25.282  0.00  0.00    -0.268 OA
BRANCH  42  44
ATOM     44  C   UNL     1       6.457  -4.665  27.150  0.00  0.00    +0.143 A 
ATOM     45  C   UNL     1       5.437  -3.948  27.744  0.00  0.00    +0.143 A 
ATOM     46  N   UNL     1       4.885  -4.309  28.931  0.00  0.00    -0.259 NA
ATOM     47  C   UNL     1       5.415  -5.415  29.498  0.00  0.00    +0.130 A 
ATOM     48  C   UNL     1       6.454  -6.119  28.908  0.00  0.00    +0.131 A 
ATOM     49  N   UNL     1       7.012  -5.771  27.714  0.00  0.00    -0.247 NA
ENDBRANCH  42  44
ENDBRANCH  33  40
ENDBRANCH  31  33
ENDBRANCH  28  29
BRANCH  28  50
ATOM     50  C   UNL     1       9.757   1.482  23.608  0.00  0.00    -0.011 C 
ATOM     51  C   UNL     1      10.162   1.086  22.172  0.00  0.00    +0.013 C 
ATOM     52  C   UNL     1      10.779   0.788  24.551  0.00  0.00    +0.013 C 
ATOM     53  C   UNL     1      10.024   2.994  23.763  0.00  0.00    +0.013 C 
ENDBRANCH  28  50
ENDBRANCH   3  28
TORSDOF 14
ENDMDL
MODEL 3
REMARK VINA RESULT:      -6.8      2.581      7.934
REMARK  Name = 
REMARK  18 active torsions:
REMARK  status: ('A' for Active; 'I' for Inactive)
REMARK    1  A    between atoms: C_1  and  C_2
REMARK    2  A    between atoms: C_2  and  C_3
REMARK    3  A    between atoms: C_3  and  C_4
REMARK    4  A    between atoms: C_4  and  C_6
REMARK    5  A    between atoms: C_4  and  N_14
REMARK    6  A    between atoms: C_6  and  C_8
REMARK    7  A    between atoms: N_10  and  C_11
REMARK    8  A    between atoms: C_15  and  C_17
REMARK    9  A    between atoms: C_28  and  C_30
REMARK   10  A    between atoms: C_30  and  C_32
REMARK   11  A    between atoms: C_30  and  N_36
REMARK   12  A    between atoms: C_32  and  C_33
REMARK   13  A    between atoms: C_32  and  C_34
REMARK   14  A    between atoms: C_32  and  C_35
REMARK   15  A    between atoms: C_37  and  C_39
REMARK   16  A    between atoms: C_39  and  C_41
REMARK   17  A    between atoms: C_39  and  N_47
REMARK   18  A    between atoms: C_48  and  C_50
REMARK                            x       y       z     vdW  Elec       q    Type
REMARK                         _______ _______ _______ _____ _____    ______ ____
ROOT
ATOM      1  C   UNL     1       6.593  -1.525  26.902  0.00  0.00    +0.165 C 
ATOM      2  N   UNL     1       5.454  -0.584  26.765  0.00  0.00    -0.288 N 
ATOM      3  C   UNL     1       5.297   0.734  27.214  0.00  0.00    +0.237 C 
ATOM      4  O   UNL     1       4.167   1.224  27.339  0.00  0.00    -0.274 OA
ATOM      5  C   UNL     1       4.224  -1.344  26.510  0.00  0.00    +0.112 C 
ATOM      6  C   UNL     1       4.619  -2.812  26.370  0.00  0.00    +0.012 C 
ATOM      7  C   UNL     1       4.484  -3.679  27.631  0.00  0.00    +0.005 C 
ATOM      8  C   UNL     1       5.792  -4.463  27.768  0.00  0.00    +0.001 C 
ATOM      9  C   UNL     1       6.625  -4.116  26.543  0.00  0.00    +0.006 C 
ATOM     10  C   UNL     1       6.110  -2.759  26.090  0.00  0.00    +0.023 C 
ENDROOT
BRANCH   1  13
ATOM     11  N   UNL     1       8.132  -1.143  25.014  0.00  0.00    -0.304 N 
ATOM     12  H   UNL     1       7.335  -0.745  24.524  0.00  0.00    +0.149 HD
ATOM     13  C   UNL     1       8.002  -1.191  26.383  0.00  0.00    +0.234 C 
ATOM     14  O   UNL     1       8.970  -1.143  27.142  0.00  0.00    -0.274 OA
BRANCH  11  15
ATOM     15  C   UNL     1       9.453  -0.973  24.406  0.00  0.00    +0.149 C 
BRANCH  15  16
ATOM     16  C   UNL     1       9.643  -1.887  23.186  0.00  0.00    +0.237 C 
ATOM     17  O   UNL     1      10.729  -2.226  22.718  0.00  0.00    -0.285 OA
BRANCH  16  18
ATOM     18  C   UNL     1       8.365  -2.426  22.521  0.00  0.00    +0.282 C 
ATOM     19  N   UNL     1       8.166  -3.772  22.758  0.00  0.00    -0.306 N 
ATOM     20  H   UNL     1       8.877  -4.231  23.317  0.00  0.00    +0.149 HD
ATOM     21  O   UNL     1       7.637  -1.696  21.860  0.00  0.00    -0.267 OA
BRANCH  19  22
ATOM     22  C   UNL     1       7.029  -4.510  22.316  0.00  0.00    +0.073 C 
ATOM     23  C   UNL     1       6.475  -5.642  23.145  0.00  0.00    +0.024 C 
ATOM     24  C   UNL     1       7.192  -5.941  21.860  0.00  0.00    +0.024 C 
ENDBRANCH  19  22
ENDBRANCH  16  18
ENDBRANCH  15  16
BRANCH  15  25
ATOM     25  C   UNL     1       9.740   0.493  24.056  0.00  0.00    +0.030 C 
BRANCH  25  27
ATOM     26  C   UNL     1       8.802   1.619  21.861  0.00  0.00    +0.004 C 
ATOM     27  C   UNL     1       9.945   0.935  22.598  0.00  0.00    -0.001 C 
ENDBRANCH  25  27
ENDBRANCH  15  25
ENDBRANCH  11  15
ENDBRANCH   1  13
BRANCH   3  28
ATOM     28  C   UNL     1       6.528   1.645  27.506  0.00  0.00    +0.164 C 
BRANCH  28  29
ATOM     29  N   UNL     1       6.439   2.893  26.602  0.00  0.00    -0.302 N 
ATOM     30  H   UNL     1       5.837   3.612  26.972  0.00  0.00    +0.150 HD
ATOM     31  C   UNL     1       6.535   2.836  25.207  0.00  0.00    +0.234 C 
ATOM     32  O   UNL     1       6.836   1.744  24.697  0.00  0.00    -0.274 OA
BRANCH  31  33
ATOM     33  C   UNL     1       6.455   4.217  24.251  0.00  0.00    +0.162 C 
BRANCH  33  34
ATOM     34  C   UNL     1       5.532   4.336  22.955  0.00  0.00    +0.018 C 
ATOM     35  C   UNL     1       4.762   5.678  22.652  0.00  0.00    +0.006 C 
ATOM     36  C   UNL     1       3.366   5.915  23.256  0.00  0.00    +0.000 C 
ATOM     37  C   UNL     1       2.533   4.692  23.612  0.00  0.00    +0.000 C 
ATOM     38  C   UNL     1       3.267   3.358  23.664  0.00  0.00    +0.000 C 
ATOM     39  C   UNL     1       4.488   3.239  22.763  0.00  0.00    +0.006 C 
ENDBRANCH  33  34
BRANCH  33  40
ATOM     40  N   UNL     1       7.870   4.530  23.884  0.00  0.00    -0.298 N 
ATOM     41  H   UNL     1       8.130   4.611  22.905  0.00  0.00    +0.150 HD
ATOM     42  C   UNL     1       8.783   5.041  24.789  0.00  0.00    +0.264 C 
ATOM     43  O   UNL     1       8.519   5.279  25.959  0.00  0.00    -0.268 OA
BRANCH  42  44
ATOM     44  C   UNL     1      10.204   5.251  24.296  0.00  0.00    +0.143 A 
ATOM     45  C   UNL     1      10.903   6.345  24.765  0.00  0.00    +0.143 A 
ATOM     46  N   UNL     1      12.216   6.550  24.482  0.00  0.00    -0.259 NA
ATOM     47  C   UNL     1      12.786   5.611  23.695  0.00  0.00    +0.130 A 
ATOM     48  C   UNL     1      12.074   4.525  23.209  0.00  0.00    +0.131 A 
ATOM     49  N   UNL     1      10.759   4.305  23.491  0.00  0.00    -0.247 NA
ENDBRANCH  42  44
ENDBRANCH  33  40
ENDBRANCH  31  33
ENDBRANCH  28  29
BRANCH  28  50
ATOM     50  C   UNL     1       6.682   1.975  29.070  0.00  0.00    -0.011 C 
ATOM     51  C   UNL     1       6.814   3.505  29.229  0.00  0.00    +0.013 C 
ATOM     52  C   UNL     1       7.944   1.362  29.740  0.00  0.00    +0.013 C 
ATOM     53  C   UNL     1       5.496   1.520  29.947  0.00  0.00    +0.013 C 
ENDBRANCH  28  50
ENDBRANCH   3  28
TORSDOF 14
ENDMDL
MODEL 4
REMARK VINA RESULT:      -6.8      2.917      6.411
REMARK  Name = 
REMARK  18 active torsions:
REMARK  status: ('A' for Active; 'I' for Inactive)
REMARK    1  A    between atoms: C_1  and  C_2
REMARK    2  A    between atoms: C_2  and  C_3
REMARK    3  A    between atoms: C_3  and  C_4
REMARK    4  A    between atoms: C_4  and  C_6
REMARK    5  A    between atoms: C_4  and  N_14
REMARK    6  A    between atoms: C_6  and  C_8
REMARK    7  A    between atoms: N_10  and  C_11
REMARK    8  A    between atoms: C_15  and  C_17
REMARK    9  A    between atoms: C_28  and  C_30
REMARK   10  A    between atoms: C_30  and  C_32
REMARK   11  A    between atoms: C_30  and  N_36
REMARK   12  A    between atoms: C_32  and  C_33
REMARK   13  A    between atoms: C_32  and  C_34
REMARK   14  A    between atoms: C_32  and  C_35
REMARK   15  A    between atoms: C_37  and  C_39
REMARK   16  A    between atoms: C_39  and  C_41
REMARK   17  A    between atoms: C_39  and  N_47
REMARK   18  A    between atoms: C_48  and  C_50
REMARK                            x       y       z     vdW  Elec       q    Type
REMARK                         _______ _______ _______ _____ _____    ______ ____
ROOT
ATOM      1  C   UNL     1       7.498   3.955  24.344  0.00  0.00    +0.165 C 
ATOM      2  N   UNL     1       7.206   3.122  23.151  0.00  0.00    -0.288 N 
ATOM      3  C   UNL     1       7.709   1.874  22.762  0.00  0.00    +0.237 C 
ATOM      4  O   UNL     1       7.643   1.512  21.579  0.00  0.00    -0.274 OA
ATOM      5  C   UNL     1       6.658   3.973  22.088  0.00  0.00    +0.112 C 
ATOM      6  C   UNL     1       6.493   5.375  22.668  0.00  0.00    +0.012 C 
ATOM      7  C   UNL     1       7.636   6.365  22.398  0.00  0.00    +0.005 C 
ATOM      8  C   UNL     1       7.973   7.026  23.737  0.00  0.00    +0.001 C 
ATOM      9  C   UNL     1       6.965   6.485  24.742  0.00  0.00    +0.006 C 
ATOM     10  C   UNL     1       6.519   5.150  24.170  0.00  0.00    +0.023 C 
ENDROOT
BRANCH   1  13
ATOM     11  N   UNL     1       6.226   2.587  25.954  0.00  0.00    -0.304 N 
ATOM     12  H   UNL     1       6.061   1.944  25.185  0.00  0.00    +0.149 HD
ATOM     13  C   UNL     1       7.295   3.436  25.778  0.00  0.00    +0.234 C 
ATOM     14  O   UNL     1       7.943   3.890  26.722  0.00  0.00    -0.274 OA
BRANCH  11  15
ATOM     15  C   UNL     1       5.853   2.145  27.299  0.00  0.00    +0.149 C 
BRANCH  15  16
ATOM     16  C   UNL     1       4.393   1.672  27.361  0.00  0.00    +0.237 C 
ATOM     17  O   UNL     1       3.465   2.304  27.865  0.00  0.00    -0.285 OA
BRANCH  16  18
ATOM     18  C   UNL     1       4.080   0.309  26.722  0.00  0.00    +0.282 C 
ATOM     19  N   UNL     1       3.226  -0.458  27.491  0.00  0.00    -0.306 N 
ATOM     20  H   UNL     1       2.928  -0.043  28.366  0.00  0.00    +0.149 HD
ATOM     21  O   UNL     1       4.566  -0.015  25.645  0.00  0.00    -0.267 OA
BRANCH  19  22
ATOM     22  C   UNL     1       2.721  -1.735  27.106  0.00  0.00    +0.073 C 
ATOM     23  C   UNL     1       1.236  -1.968  26.974  0.00  0.00    +0.024 C 
ATOM     24  C   UNL     1       1.991  -2.589  28.115  0.00  0.00    +0.024 C 
ENDBRANCH  19  22
ENDBRANCH  16  18
ENDBRANCH  15  16
BRANCH  15  25
ATOM     25  C   UNL     1       6.810   1.072  27.836  0.00  0.00    +0.030 C 
BRANCH  25  27
ATOM     26  C   UNL     1       7.200   2.458  30.048  0.00  0.00    +0.004 C 
ATOM     27  C   UNL     1       7.548   1.263  29.170  0.00  0.00    -0.001 C 
ENDBRANCH  25  27
ENDBRANCH  15  25
ENDBRANCH  11  15
ENDBRANCH   1  13
BRANCH   3  28
ATOM     28  C   UNL     1       8.305   0.877  23.801  0.00  0.00    +0.164 C 
BRANCH  28  29
ATOM     29  N   UNL     1       7.695  -0.518  23.549  0.00  0.00    -0.302 N 
ATOM     30  H   UNL     1       7.075  -0.545  22.755  0.00  0.00    +0.150 HD
ATOM     31  C   UNL     1       7.410  -1.425  24.575  0.00  0.00    +0.234 C 
ATOM     32  O   UNL     1       7.792  -1.134  25.721  0.00  0.00    -0.274 OA
BRANCH  31  33
ATOM     33  C   UNL     1       6.765  -2.947  24.266  0.00  0.00    +0.162 C 
BRANCH  33  34
ATOM     34  C   UNL     1       5.613  -3.210  23.194  0.00  0.00    +0.018 C 
ATOM     35  C   UNL     1       4.514  -4.307  23.466  0.00  0.00    +0.006 C 
ATOM     36  C   UNL     1       4.769  -5.768  23.052  0.00  0.00    +0.000 C 
ATOM     37  C   UNL     1       5.746  -6.019  21.911  0.00  0.00    +0.000 C 
ATOM     38  C   UNL     1       6.639  -4.852  21.509  0.00  0.00    +0.000 C 
ATOM     39  C   UNL     1       6.066  -3.464  21.759  0.00  0.00    +0.006 C 
ENDBRANCH  33  34
BRANCH  33  40
ATOM     40  N   UNL     1       6.335  -3.476  25.597  0.00  0.00    -0.298 N 
ATOM     41  H   UNL     1       5.453  -3.173  25.999  0.00  0.00    +0.150 HD
ATOM     42  C   UNL     1       6.899  -4.602  26.171  0.00  0.00    +0.264 C 
ATOM     43  O   UNL     1       7.789  -5.257  25.650  0.00  0.00    -0.268 OA
BRANCH  42  44
ATOM     44  C   UNL     1       6.411  -4.989  27.556  0.00  0.00    +0.143 A 
ATOM     45  C   UNL     1       5.336  -4.303  28.085  0.00  0.00    +0.143 A 
ATOM     46  N   UNL     1       4.750  -4.656  29.259  0.00  0.00    -0.259 NA
ATOM     47  C   UNL     1       5.303  -5.721  29.879  0.00  0.00    +0.130 A 
ATOM     48  C   UNL     1       6.396  -6.394  29.354  0.00  0.00    +0.131 A 
ATOM     49  N   UNL     1       6.989  -6.054  28.175  0.00  0.00    -0.247 NA
ENDBRANCH  42  44
ENDBRANCH  33  40
ENDBRANCH  31  33
ENDBRANCH  28  29
BRANCH  28  50
ATOM     50  C   UNL     1       9.911   0.900  23.814  0.00  0.00    -0.011 C 
ATOM     51  C   UNL     1      10.416  -0.115  22.767  0.00  0.00    +0.013 C 
ATOM     52  C   UNL     1      10.553   0.480  25.166  0.00  0.00    +0.013 C 
ATOM     53  C   UNL     1      10.541   2.267  23.474  0.00  0.00    +0.013 C 
ENDBRANCH  28  50
ENDBRANCH   3  28
TORSDOF 14
ENDMDL
MODEL 5
REMARK VINA RESULT:      -6.6      2.190      5.624
REMARK  Name = 
REMARK  18 active torsions:
REMARK  status: ('A' for Active; 'I' for Inactive)
REMARK    1  A    between atoms: C_1  and  C_2
REMARK    2  A    between atoms: C_2  and  C_3
REMARK    3  A    between atoms: C_3  and  C_4
REMARK    4  A    between atoms: C_4  and  C_6
REMARK    5  A    between atoms: C_4  and  N_14
REMARK    6  A    between atoms: C_6  and  C_8
REMARK    7  A    between atoms: N_10  and  C_11
REMARK    8  A    between atoms: C_15  and  C_17
REMARK    9  A    between atoms: C_28  and  C_30
REMARK   10  A    between atoms: C_30  and  C_32
REMARK   11  A    between atoms: C_30  and  N_36
REMARK   12  A    between atoms: C_32  and  C_33
REMARK   13  A    between atoms: C_32  and  C_34
REMARK   14  A    between atoms: C_32  and  C_35
REMARK   15  A    between atoms: C_37  and  C_39
REMARK   16  A    between atoms: C_39  and  C_41
REMARK   17  A    between atoms: C_39  and  N_47
REMARK   18  A    between atoms: C_48  and  C_50
REMARK                            x       y       z     vdW  Elec       q    Type
REMARK                         _______ _______ _______ _____ _____    ______ ____
ROOT
ATOM      1  C   UNL     1       3.305   3.298  25.219  0.00  0.00    +0.165 C 
ATOM      2  N   UNL     1       4.044   2.887  23.999  0.00  0.00    -0.288 N 
ATOM      3  C   UNL     1       5.413   2.688  23.784  0.00  0.00    +0.237 C 
ATOM      4  O   UNL     1       5.878   2.715  22.636  0.00  0.00    -0.274 OA
ATOM      5  C   UNL     1       3.224   3.176  22.816  0.00  0.00    +0.112 C 
ATOM      6  C   UNL     1       1.874   3.685  23.312  0.00  0.00    +0.012 C 
ATOM      7  C   UNL     1       1.701   5.210  23.378  0.00  0.00    +0.005 C 
ATOM      8  C   UNL     1       1.104   5.526  24.753  0.00  0.00    +0.001 C 
ATOM      9  C   UNL     1       0.852   4.184  25.424  0.00  0.00    +0.006 C 
ATOM     10  C   UNL     1       1.823   3.223  24.758  0.00  0.00    +0.023 C 
ENDROOT
BRANCH   1  13
ATOM     11  N   UNL     1       3.686   1.170  26.405  0.00  0.00    -0.304 N 
ATOM     12  H   UNL     1       4.356   0.952  25.673  0.00  0.00    +0.149 HD
ATOM     13  C   UNL     1       3.388   2.508  26.536  0.00  0.00    +0.234 C 
ATOM     14  O   UNL     1       3.041   3.007  27.607  0.00  0.00    -0.274 OA
BRANCH  11  15
ATOM     15  C   UNL     1       3.652   0.291  27.575  0.00  0.00    +0.149 C 
BRANCH  15  16
ATOM     16  C   UNL     1       3.327  -1.160  27.192  0.00  0.00    +0.237 C 
ATOM     17  O   UNL     1       2.300  -1.761  27.505  0.00  0.00    -0.285 OA
BRANCH  16  18
ATOM     18  C   UNL     1       4.369  -1.898  26.334  0.00  0.00    +0.282 C 
ATOM     19  N   UNL     1       4.758  -3.103  26.887  0.00  0.00    -0.306 N 
ATOM     20  H   UNL     1       4.328  -3.340  27.774  0.00  0.00    +0.149 HD
ATOM     21  O   UNL     1       4.779  -1.423  25.283  0.00  0.00    -0.267 OA
BRANCH  19  22
ATOM     22  C   UNL     1       5.659  -4.020  26.270  0.00  0.00    +0.073 C 
ATOM     23  C   UNL     1       5.781  -5.437  26.773  0.00  0.00    +0.024 C 
ATOM     24  C   UNL     1       6.900  -4.464  27.008  0.00  0.00    +0.024 C 
ENDBRANCH  19  22
ENDBRANCH  16  18
ENDBRANCH  15  16
BRANCH  15  25
ATOM     25  C   UNL     1       4.948   0.376  28.393  0.00  0.00    +0.030 C 
BRANCH  25  27
ATOM     26  C   UNL     1       6.348   1.553  30.295  0.00  0.00    +0.004 C 
ATOM     27  C   UNL     1       4.998   1.142  29.725  0.00  0.00    -0.001 C 
ENDBRANCH  25  27
ENDBRANCH  15  25
ENDBRANCH  11  15
ENDBRANCH   1  13
BRANCH   3  28
ATOM     28  C   UNL     1       6.383   2.362  24.960  0.00  0.00    +0.164 C 
BRANCH  28  29
ATOM     29  N   UNL     1       7.407   1.313  24.475  0.00  0.00    -0.302 N 
ATOM     30  H   UNL     1       7.348   1.125  23.486  0.00  0.00    +0.150 HD
ATOM     31  C   UNL     1       7.850   0.252  25.272  0.00  0.00    +0.234 C 
ATOM     32  O   UNL     1       7.496   0.242  26.463  0.00  0.00    -0.274 OA
BRANCH  31  33
ATOM     33  C   UNL     1       8.983  -0.862  24.722  0.00  0.00    +0.162 C 
BRANCH  33  34
ATOM     34  C   UNL     1      10.328  -0.448  23.969  0.00  0.00    +0.018 C 
ATOM     35  C   UNL     1      11.013   0.937  24.277  0.00  0.00    +0.006 C 
ATOM     36  C   UNL     1      10.587   2.195  23.498  0.00  0.00    +0.000 C 
ATOM     37  C   UNL     1       9.992   1.998  22.110  0.00  0.00    +0.000 C 
ATOM     38  C   UNL     1       9.553   0.584  21.751  0.00  0.00    +0.000 C 
ATOM     39  C   UNL     1      10.309  -0.540  22.446  0.00  0.00    +0.006 C 
ENDBRANCH  33  34
BRANCH  33  40
ATOM     40  N   UNL     1       8.216  -1.827  23.875  0.00  0.00    -0.298 N 
ATOM     41  H   UNL     1       7.666  -1.483  23.094  0.00  0.00    +0.150 HD
ATOM     42  C   UNL     1       8.464  -3.188  23.881  0.00  0.00    +0.264 C 
ATOM     43  O   UNL     1       9.321  -3.719  24.571  0.00  0.00    -0.268 OA
BRANCH  42  44
ATOM     44  C   UNL     1       7.564  -4.058  23.020  0.00  0.00    +0.143 A 
ATOM     45  C   UNL     1       6.541  -3.448  22.322  0.00  0.00    +0.143 A 
ATOM     46  N   UNL     1       5.764  -4.117  21.431  0.00  0.00    -0.259 NA
ATOM     47  C   UNL     1       6.055  -5.429  21.287  0.00  0.00    +0.130 A 
ATOM     48  C   UNL     1       7.071  -6.041  22.006  0.00  0.00    +0.131 A 
ATOM     49  N   UNL     1       7.861  -5.379  22.897  0.00  0.00    -0.247 NA
ENDBRANCH  42  44
ENDBRANCH  33  40
ENDBRANCH  31  33
ENDBRANCH  28  29
BRANCH  28  50
ATOM     50  C   UNL     1       7.043   3.685  25.588  0.00  0.00    -0.011 C 
ATOM     51  C   UNL     1       6.998   3.562  27.126  0.00  0.00    +0.013 C 
ATOM     52  C   UNL     1       6.301   5.005  25.240  0.00  0.00    +0.013 C 
ATOM     53  C   UNL     1       8.513   3.927  25.186  0.00  0.00    +0.013 C 
ENDBRANCH  28  50
ENDBRANCH   3  28
TORSDOF 14
ENDMDL
MODEL 6
REMARK VINA RESULT:      -6.6      1.736      5.332
REMARK  Name = 
REMARK  18 active torsions:
REMARK  status: ('A' for Active; 'I' for Inactive)
REMARK    1  A    between atoms: C_1  and  C_2
REMARK    2  A    between atoms: C_2  and  C_3
REMARK    3  A    between atoms: C_3  and  C_4
REMARK    4  A    between atoms: C_4  and  C_6
REMARK    5  A    between atoms: C_4  and  N_14
REMARK    6  A    between atoms: C_6  and  C_8
REMARK    7  A    between atoms: N_10  and  C_11
REMARK    8  A    between atoms: C_15  and  C_17
REMARK    9  A    between atoms: C_28  and  C_30
REMARK   10  A    between atoms: C_30  and  C_32
REMARK   11  A    between atoms: C_30  and  N_36
REMARK   12  A    between atoms: C_32  and  C_33
REMARK   13  A    between atoms: C_32  and  C_34
REMARK   14  A    between atoms: C_32  and  C_35
REMARK   15  A    between atoms: C_37  and  C_39
REMARK   16  A    between atoms: C_39  and  C_41
REMARK   17  A    between atoms: C_39  and  N_47
REMARK   18  A    between atoms: C_48  and  C_50
REMARK                            x       y       z     vdW  Elec       q    Type
REMARK                         _______ _______ _______ _____ _____    ______ ____
ROOT
ATOM      1  C   UNL     1       3.445   3.540  24.336  0.00  0.00    +0.165 C 
ATOM      2  N   UNL     1       4.499   3.245  23.334  0.00  0.00    -0.288 N 
ATOM      3  C   UNL     1       5.895   3.271  23.442  0.00  0.00    +0.237 C 
ATOM      4  O   UNL     1       6.602   3.364  22.429  0.00  0.00    -0.274 OA
ATOM      5  C   UNL     1       3.939   3.387  21.985  0.00  0.00    +0.112 C 
ATOM      6  C   UNL     1       2.448   3.672  22.139  0.00  0.00    +0.012 C 
ATOM      7  C   UNL     1       2.027   5.149  22.096  0.00  0.00    +0.005 C 
ATOM      8  C   UNL     1       1.088   5.375  23.284  0.00  0.00    +0.001 C 
ATOM      9  C   UNL     1       0.903   4.015  23.942  0.00  0.00    +0.006 C 
ATOM     10  C   UNL     1       2.139   3.220  23.556  0.00  0.00    +0.023 C 
ENDROOT
BRANCH   1  13
ATOM     11  N   UNL     1       4.092   3.308  26.704  0.00  0.00    -0.304 N 
ATOM     12  H   UNL     1       4.130   4.323  26.729  0.00  0.00    +0.149 HD
ATOM     13  C   UNL     1       3.346   2.784  25.672  0.00  0.00    +0.234 C 
ATOM     14  O   UNL     1       2.776   1.696  25.753  0.00  0.00    -0.274 OA
BRANCH  11  15
ATOM     15  C   UNL     1       4.186   2.594  27.978  0.00  0.00    +0.149 C 
BRANCH  15  16
ATOM     16  C   UNL     1       5.230   1.469  27.928  0.00  0.00    +0.237 C 
ATOM     17  O   UNL     1       6.444   1.635  27.815  0.00  0.00    -0.285 OA
BRANCH  16  18
ATOM     18  C   UNL     1       4.701   0.030  28.048  0.00  0.00    +0.282 C 
ATOM     19  N   UNL     1       4.613  -0.610  26.826  0.00  0.00    -0.306 N 
ATOM     20  H   UNL     1       4.889  -0.061  26.020  0.00  0.00    +0.149 HD
ATOM     21  O   UNL     1       4.402  -0.449  29.134  0.00  0.00    -0.267 OA
BRANCH  19  22
ATOM     22  C   UNL     1       4.218  -1.969  26.655  0.00  0.00    +0.073 C 
ATOM     23  C   UNL     1       5.250  -3.059  26.508  0.00  0.00    +0.024 C 
ATOM     24  C   UNL     1       4.425  -2.649  25.322  0.00  0.00    +0.024 C 
ENDBRANCH  19  22
ENDBRANCH  16  18
ENDBRANCH  15  16
BRANCH  15  25
ATOM     25  C   UNL     1       4.449   3.548  29.152  0.00  0.00    +0.030 C 
BRANCH  25  27
ATOM     26  C   UNL     1       4.635   6.147  28.733  0.00  0.00    +0.004 C 
ATOM     27  C   UNL     1       3.816   4.949  29.193  0.00  0.00    -0.001 C 
ENDBRANCH  25  27
ENDBRANCH  15  25
ENDBRANCH  11  15
ENDBRANCH   1  13
BRANCH   3  28
ATOM     28  C   UNL     1       6.607   3.116  24.820  0.00  0.00    +0.164 C 
BRANCH  28  29
ATOM     29  N   UNL     1       7.649   1.982  24.710  0.00  0.00    -0.302 N 
ATOM     30  H   UNL     1       8.507   2.270  24.266  0.00  0.00    +0.150 HD
ATOM     31  C   UNL     1       7.300   0.637  24.549  0.00  0.00    +0.234 C 
ATOM     32  O   UNL     1       6.096   0.342  24.631  0.00  0.00    -0.274 OA
BRANCH  31  33
ATOM     33  C   UNL     1       8.458  -0.578  24.453  0.00  0.00    +0.162 C 
BRANCH  33  34
ATOM     34  C   UNL     1       9.955  -0.328  23.959  0.00  0.00    +0.018 C 
ATOM     35  C   UNL     1      10.753   0.935  24.461  0.00  0.00    +0.006 C 
ATOM     36  C   UNL     1      10.636   2.269  23.701  0.00  0.00    +0.000 C 
ATOM     37  C   UNL     1      10.267   2.211  22.225  0.00  0.00    +0.000 C 
ATOM     38  C   UNL     1       9.715   0.888  21.711  0.00  0.00    +0.000 C 
ATOM     39  C   UNL     1      10.186  -0.357  22.450  0.00  0.00    +0.006 C 
ENDBRANCH  33  34
BRANCH  33  40
ATOM     40  N   UNL     1       7.836  -1.658  23.627  0.00  0.00    -0.298 N 
ATOM     41  H   UNL     1       7.484  -1.443  22.699  0.00  0.00    +0.150 HD
ATOM     42  C   UNL     1       8.003  -3.003  23.907  0.00  0.00    +0.264 C 
ATOM     43  O   UNL     1       8.664  -3.426  24.844  0.00  0.00    -0.268 OA
BRANCH  42  44
ATOM     44  C   UNL     1       7.260  -3.990  23.023  0.00  0.00    +0.143 A 
ATOM     45  C   UNL     1       6.311  -3.497  22.149  0.00  0.00    +0.143 A 
ATOM     46  N   UNL     1       5.685  -4.281  21.232  0.00  0.00    -0.259 NA
ATOM     47  C   UNL     1       6.047  -5.582  21.247  0.00  0.00    +0.130 A 
ATOM     48  C   UNL     1       6.985  -6.076  22.141  0.00  0.00    +0.131 A 
ATOM     49  N   UNL     1       7.625  -5.300  23.060  0.00  0.00    -0.247 NA
ENDBRANCH  42  44
ENDBRANCH  33  40
ENDBRANCH  31  33
ENDBRANCH  28  29
BRANCH  28  50
ATOM     50  C   UNL     1       7.205   4.509  25.354  0.00  0.00    -0.011 C 
ATOM     51  C   UNL     1       8.594   4.714  24.714  0.00  0.00    +0.013 C 
ATOM     52  C   UNL     1       7.427   4.570  26.892  0.00  0.00    +0.013 C 
ATOM     53  C   UNL     1       6.352   5.750  25.018  0.00  0.00    +0.013 C 
ENDBRANCH  28  50
ENDBRANCH   3  28
TORSDOF 14
ENDMDL
MODEL 7
REMARK VINA RESULT:      -6.3      2.809      8.259
REMARK  Name = 
REMARK  18 active torsions:
REMARK  status: ('A' for Active; 'I' for Inactive)
REMARK    1  A    between atoms: C_1  and  C_2
REMARK    2  A    between atoms: C_2  and  C_3
REMARK    3  A    between atoms: C_3  and  C_4
REMARK    4  A    between atoms: C_4  and  C_6
REMARK    5  A    between atoms: C_4  and  N_14
REMARK    6  A    between atoms: C_6  and  C_8
REMARK    7  A    between atoms: N_10  and  C_11
REMARK    8  A    between atoms: C_15  and  C_17
REMARK    9  A    between atoms: C_28  and  C_30
REMARK   10  A    between atoms: C_30  and  C_32
REMARK   11  A    between atoms: C_30  and  N_36
REMARK   12  A    between atoms: C_32  and  C_33
REMARK   13  A    between atoms: C_32  and  C_34
REMARK   14  A    between atoms: C_32  and  C_35
REMARK   15  A    between atoms: C_37  and  C_39
REMARK   16  A    between atoms: C_39  and  C_41
REMARK   17  A    between atoms: C_39  and  N_47
REMARK   18  A    between atoms: C_48  and  C_50
REMARK                            x       y       z     vdW  Elec       q    Type
REMARK                         _______ _______ _______ _____ _____    ______ ____
ROOT
ATOM      1  C   UNL     1       4.205  -4.579  26.175  0.00  0.00    +0.165 C 
ATOM      2  N   UNL     1       3.261  -3.512  25.759  0.00  0.00    -0.288 N 
ATOM      3  C   UNL     1       2.789  -2.389  26.450  0.00  0.00    +0.237 C 
ATOM      4  O   UNL     1       1.742  -1.829  26.096  0.00  0.00    -0.274 OA
ATOM      5  C   UNL     1       2.431  -4.003  24.652  0.00  0.00    +0.112 C 
ATOM      6  C   UNL     1       2.944  -5.392  24.281  0.00  0.00    +0.012 C 
ATOM      7  C   UNL     1       2.204  -6.584  24.910  0.00  0.00    +0.005 C 
ATOM      8  C   UNL     1       3.277  -7.523  25.467  0.00  0.00    +0.001 C 
ATOM      9  C   UNL     1       4.617  -6.917  25.075  0.00  0.00    +0.006 C 
ATOM     10  C   UNL     1       4.337  -5.436  24.884  0.00  0.00    +0.023 C 
ENDROOT
BRANCH   1  13
ATOM     11  N   UNL     1       6.500  -3.845  25.654  0.00  0.00    -0.304 N 
ATOM     12  H   UNL     1       6.082  -3.234  24.959  0.00  0.00    +0.149 HD
ATOM     13  C   UNL     1       5.639  -4.274  26.639  0.00  0.00    +0.234 C 
ATOM     14  O   UNL     1       6.021  -4.561  27.774  0.00  0.00    -0.274 OA
BRANCH  11  15
ATOM     15  C   UNL     1       7.921  -3.660  25.951  0.00  0.00    +0.149 C 
BRANCH  15  16
ATOM     16  C   UNL     1       8.813  -4.120  24.788  0.00  0.00    +0.237 C 
ATOM     17  O   UNL     1       9.976  -4.507  24.898  0.00  0.00    -0.285 OA
BRANCH  16  18
ATOM     18  C   UNL     1       8.181  -4.107  23.386  0.00  0.00    +0.282 C 
ATOM     19  N   UNL     1       7.851  -5.372  22.937  0.00  0.00    -0.306 N 
ATOM     20  H   UNL     1       8.073  -6.134  23.566  0.00  0.00    +0.149 HD
ATOM     21  O   UNL     1       8.013  -3.060  22.774  0.00  0.00    -0.267 OA
BRANCH  19  22
ATOM     22  C   UNL     1       7.193  -5.643  21.701  0.00  0.00    +0.073 C 
ATOM     23  C   UNL     1       5.911  -4.934  21.339  0.00  0.00    +0.024 C 
ATOM     24  C   UNL     1       5.881  -6.392  21.698  0.00  0.00    +0.024 C 
ENDBRANCH  19  22
ENDBRANCH  16  18
ENDBRANCH  15  16
BRANCH  15  25
ATOM     25  C   UNL     1       8.239  -2.215  26.360  0.00  0.00    +0.030 C 
BRANCH  25  27
ATOM     26  C   UNL     1       9.894  -0.727  24.943  0.00  0.00    +0.004 C 
ATOM     27  C   UNL     1       8.469  -1.123  25.303  0.00  0.00    -0.001 C 
ENDBRANCH  25  27
ENDBRANCH  15  25
ENDBRANCH  11  15
ENDBRANCH   1  13
BRANCH   3  28
ATOM     28  C   UNL     1       3.588  -1.767  27.634  0.00  0.00    +0.164 C 
BRANCH  28  29
ATOM     29  N   UNL     1       3.882  -0.288  27.306  0.00  0.00    -0.302 N 
ATOM     30  H   UNL     1       3.145   0.338  27.592  0.00  0.00    +0.150 HD
ATOM     31  C   UNL     1       4.626   0.115  26.191  0.00  0.00    +0.234 C 
ATOM     32  O   UNL     1       5.179  -0.772  25.519  0.00  0.00    -0.274 OA
BRANCH  31  33
ATOM     33  C   UNL     1       4.946   1.734  25.872  0.00  0.00    +0.162 C 
BRANCH  33  34
ATOM     34  C   UNL     1       3.817   2.791  25.477  0.00  0.00    +0.018 C 
ATOM     35  C   UNL     1       3.751   3.369  24.012  0.00  0.00    +0.006 C 
ATOM     36  C   UNL     1       4.574   4.615  23.641  0.00  0.00    +0.000 C 
ATOM     37  C   UNL     1       4.941   5.579  24.761  0.00  0.00    +0.000 C 
ATOM     38  C   UNL     1       4.765   5.068  26.185  0.00  0.00    +0.000 C 
ATOM     39  C   UNL     1       3.685   4.013  26.381  0.00  0.00    +0.006 C 
ENDBRANCH  33  34
BRANCH  33  40
ATOM     40  N   UNL     1       6.012   1.731  24.823  0.00  0.00    -0.298 N 
ATOM     41  H   UNL     1       5.782   1.458  23.872  0.00  0.00    +0.150 HD
ATOM     42  C   UNL     1       7.219   2.389  24.982  0.00  0.00    +0.264 C 
ATOM     43  O   UNL     1       7.520   3.023  25.983  0.00  0.00    -0.268 OA
BRANCH  42  44
ATOM     44  C   UNL     1       8.236   2.248  23.863  0.00  0.00    +0.143 A 
ATOM     45  C   UNL     1       9.493   2.787  24.052  0.00  0.00    +0.143 A 
ATOM     46  N   UNL     1      10.507   2.605  23.167  0.00  0.00    -0.259 NA
ATOM     47  C   UNL     1      10.193   1.868  22.078  0.00  0.00    +0.130 A 
ATOM     48  C   UNL     1       8.923   1.346  21.883  0.00  0.00    +0.131 A 
ATOM     49  N   UNL     1       7.900   1.516  22.767  0.00  0.00    -0.247 NA
ENDBRANCH  42  44
ENDBRANCH  33  40
ENDBRANCH  31  33
ENDBRANCH  28  29
BRANCH  28  50
ATOM     50  C   UNL     1       2.857  -1.995  29.047  0.00  0.00    -0.011 C 
ATOM     51  C   UNL     1       1.920  -0.796  29.303  0.00  0.00    +0.013 C 
ATOM     52  C   UNL     1       3.817  -2.061  30.268  0.00  0.00    +0.013 C 
ATOM     53  C   UNL     1       2.002  -3.277  29.132  0.00  0.00    +0.013 C 
ENDBRANCH  28  50
ENDBRANCH   3  28
TORSDOF 14
ENDMDL
MODEL 8
REMARK VINA RESULT:      -6.2      1.731      3.424
REMARK  Name = 
REMARK  18 active torsions:
REMARK  status: ('A' for Active; 'I' for Inactive)
REMARK    1  A    between atoms: C_1  and  C_2
REMARK    2  A    between atoms: C_2  and  C_3
REMARK    3  A    between atoms: C_3  and  C_4
REMARK    4  A    between atoms: C_4  and  C_6
REMARK    5  A    between atoms: C_4  and  N_14
REMARK    6  A    between atoms: C_6  and  C_8
REMARK    7  A    between atoms: N_10  and  C_11
REMARK    8  A    between atoms: C_15  and  C_17
REMARK    9  A    between atoms: C_28  and  C_30
REMARK   10  A    between atoms: C_30  and  C_32
REMARK   11  A    between atoms: C_30  and  N_36
REMARK   12  A    between atoms: C_32  and  C_33
REMARK   13  A    between atoms: C_32  and  C_34
REMARK   14  A    between atoms: C_32  and  C_35
REMARK   15  A    between atoms: C_37  and  C_39
REMARK   16  A    between atoms: C_39  and  C_41
REMARK   17  A    between atoms: C_39  and  N_47
REMARK   18  A    between atoms: C_48  and  C_50
REMARK                            x       y       z     vdW  Elec       q    Type
REMARK                         _______ _______ _______ _____ _____    ______ ____
ROOT
ATOM      1  C   UNL     1       6.064   4.266  26.841  0.00  0.00    +0.165 C 
ATOM      2  N   UNL     1       6.695   3.335  27.809  0.00  0.00    -0.288 N 
ATOM      3  C   UNL     1       6.560   1.950  27.966  0.00  0.00    +0.237 C 
ATOM      4  O   UNL     1       6.860   1.408  29.038  0.00  0.00    -0.274 OA
ATOM      5  C   UNL     1       7.151   4.091  28.982  0.00  0.00    +0.112 C 
ATOM      6  C   UNL     1       6.899   5.569  28.697  0.00  0.00    +0.012 C 
ATOM      7  C   UNL     1       5.594   6.159  29.253  0.00  0.00    +0.005 C 
ATOM      8  C   UNL     1       4.943   6.942  28.109  0.00  0.00    +0.001 C 
ATOM      9  C   UNL     1       5.916   6.876  26.942  0.00  0.00    +0.006 C 
ATOM     10  C   UNL     1       6.739   5.622  27.187  0.00  0.00    +0.023 C 
ENDROOT
BRANCH   1  13
ATOM     11  N   UNL     1       5.238   4.713  24.562  0.00  0.00    -0.304 N 
ATOM     12  H   UNL     1       4.938   5.618  24.913  0.00  0.00    +0.149 HD
ATOM     13  C   UNL     1       6.203   4.090  25.320  0.00  0.00    +0.234 C 
ATOM     14  O   UNL     1       7.020   3.305  24.837  0.00  0.00    -0.274 OA
BRANCH  11  15
ATOM     15  C   UNL     1       5.188   4.499  23.114  0.00  0.00    +0.149 C 
BRANCH  15  16
ATOM     16  C   UNL     1       6.588   4.521  22.485  0.00  0.00    +0.237 C 
ATOM     17  O   UNL     1       7.046   3.649  21.747  0.00  0.00    -0.285 OA
BRANCH  16  18
ATOM     18  C   UNL     1       7.467   5.744  22.797  0.00  0.00    +0.282 C 
ATOM     19  N   UNL     1       8.731   5.396  23.232  0.00  0.00    -0.306 N 
ATOM     20  H   UNL     1       8.915   4.402  23.302  0.00  0.00    +0.149 HD
ATOM     21  O   UNL     1       7.041   6.884  22.660  0.00  0.00    -0.267 OA
BRANCH  19  22
ATOM     22  C   UNL     1       9.768   6.329  23.526  0.00  0.00    +0.073 C 
ATOM     23  C   UNL     1      11.181   5.861  23.768  0.00  0.00    +0.024 C 
ATOM     24  C   UNL     1      10.362   6.380  24.914  0.00  0.00    +0.024 C 
ENDBRANCH  19  22
ENDBRANCH  16  18
ENDBRANCH  15  16
BRANCH  15  25
ATOM     25  C   UNL     1       4.432   3.214  22.751  0.00  0.00    +0.030 C 
BRANCH  25  27
ATOM     26  C   UNL     1       1.906   3.489  23.463  0.00  0.00    +0.004 C 
ATOM     27  C   UNL     1       2.942   3.249  22.374  0.00  0.00    -0.001 C 
ENDBRANCH  25  27
ENDBRANCH  15  25
ENDBRANCH  11  15
ENDBRANCH   1  13
BRANCH   3  28
ATOM     28  C   UNL     1       6.097   1.039  26.789  0.00  0.00    +0.164 C 
BRANCH  28  29
ATOM     29  N   UNL     1       7.276   0.134  26.375  0.00  0.00    -0.302 N 
ATOM     30  H   UNL     1       8.036   0.140  27.038  0.00  0.00    +0.150 HD
ATOM     31  C   UNL     1       7.632  -0.097  25.042  0.00  0.00    +0.234 C 
ATOM     32  O   UNL     1       6.876   0.347  24.161  0.00  0.00    -0.274 OA
BRANCH  31  33
ATOM     33  C   UNL     1       8.910  -1.106  24.623  0.00  0.00    +0.162 C 
BRANCH  33  34
ATOM     34  C   UNL     1      10.296  -0.572  24.040  0.00  0.00    +0.018 C 
ATOM     35  C   UNL     1      10.866   0.822  24.507  0.00  0.00    +0.006 C 
ATOM     36  C   UNL     1      10.447   2.108  23.773  0.00  0.00    +0.000 C 
ATOM     37  C   UNL     1      10.003   1.980  22.322  0.00  0.00    +0.000 C 
ATOM     38  C   UNL     1       9.685   0.576  21.827  0.00  0.00    +0.000 C 
ATOM     39  C   UNL     1      10.432  -0.555  22.520  0.00  0.00    +0.006 C 
ENDBRANCH  33  34
BRANCH  33  40
ATOM     40  N   UNL     1       8.331  -2.114  23.682  0.00  0.00    -0.298 N 
ATOM     41  H   UNL     1       8.585  -2.090  22.699  0.00  0.00    +0.150 HD
ATOM     42  C   UNL     1       7.728  -3.281  24.116  0.00  0.00    +0.264 C 
ATOM     43  O   UNL     1       7.613  -3.590  25.293  0.00  0.00    -0.268 OA
BRANCH  42  44
ATOM     44  C   UNL     1       7.124  -4.184  23.053  0.00  0.00    +0.143 A 
ATOM     45  C   UNL     1       6.259  -3.622  22.134  0.00  0.00    +0.143 A 
ATOM     46  N   UNL     1       5.768  -4.316  21.075  0.00  0.00    -0.259 NA
ATOM     47  C   UNL     1       6.176  -5.601  20.991  0.00  0.00    +0.130 A 
ATOM     48  C   UNL     1       7.027  -6.166  21.929  0.00  0.00    +0.131 A 
ATOM     49  N   UNL     1       7.533  -5.480  22.991  0.00  0.00    -0.247 NA
ENDBRANCH  42  44
ENDBRANCH  33  40
ENDBRANCH  31  33
ENDBRANCH  28  29
BRANCH  28  50
ATOM     50  C   UNL     1       4.745   0.243  27.133  0.00  0.00    -0.011 C 
ATOM     51  C   UNL     1       3.547   1.154  26.790  0.00  0.00    +0.013 C 
ATOM     52  C   UNL     1       4.581  -0.137  28.632  0.00  0.00    +0.013 C 
ATOM     53  C   UNL     1       4.558  -1.078  26.358  0.00  0.00    +0.013 C 
ENDBRANCH  28  50
ENDBRANCH   3  28
TORSDOF 14
ENDMDL
MODEL 9
REMARK VINA RESULT:      -6.1      2.579      6.657
REMARK  Name = 
REMARK  18 active torsions:
REMARK  status: ('A' for Active; 'I' for Inactive)
REMARK    1  A    between atoms: C_1  and  C_2
REMARK    2  A    between atoms: C_2  and  C_3
REMARK    3  A    between atoms: C_3  and  C_4
REMARK    4  A    between atoms: C_4  and  C_6
REMARK    5  A    between atoms: C_4  and  N_14
REMARK    6  A    between atoms: C_6  and  C_8
REMARK    7  A    between atoms: N_10  and  C_11
REMARK    8  A    between atoms: C_15  and  C_17
REMARK    9  A    between atoms: C_28  and  C_30
REMARK   10  A    between atoms: C_30  and  C_32
REMARK   11  A    between atoms: C_30  and  N_36
REMARK   12  A    between atoms: C_32  and  C_33
REMARK   13  A    between atoms: C_32  and  C_34
REMARK   14  A    between atoms: C_32  and  C_35
REMARK   15  A    between atoms: C_37  and  C_39
REMARK   16  A    between atoms: C_39  and  C_41
REMARK   17  A    between atoms: C_39  and  N_47
REMARK   18  A    between atoms: C_48  and  C_50
REMARK                            x       y       z     vdW  Elec       q    Type
REMARK                         _______ _______ _______ _____ _____    ______ ____
ROOT
ATOM      1  C   UNL     1       8.016   4.069  24.221  0.00  0.00    +0.165 C 
ATOM      2  N   UNL     1       7.134   4.778  25.181  0.00  0.00    -0.288 N 
ATOM      3  C   UNL     1       5.737   4.822  25.278  0.00  0.00    +0.237 C 
ATOM      4  O   UNL     1       5.180   5.743  25.890  0.00  0.00    -0.274 OA
ATOM      5  C   UNL     1       7.873   5.891  25.788  0.00  0.00    +0.112 C 
ATOM      6  C   UNL     1       9.309   5.816  25.276  0.00  0.00    +0.012 C 
ATOM      7  C   UNL     1       9.650   6.701  24.067  0.00  0.00    +0.005 C 
ATOM      8  C   UNL     1      10.395   5.811  23.067  0.00  0.00    +0.001 C 
ATOM      9  C   UNL     1      10.558   4.458  23.744  0.00  0.00    +0.006 C 
ATOM     10  C   UNL     1       9.436   4.392  24.766  0.00  0.00    +0.023 C 
ENDROOT
BRANCH   1  13
ATOM     11  N   UNL     1       8.448   1.798  25.078  0.00  0.00    -0.304 N 
ATOM     12  H   UNL     1       8.237   2.171  25.999  0.00  0.00    +0.149 HD
ATOM     13  C   UNL     1       7.963   2.544  24.028  0.00  0.00    +0.234 C 
ATOM     14  O   UNL     1       7.669   2.045  22.941  0.00  0.00    -0.274 OA
BRANCH  11  15
ATOM     15  C   UNL     1       8.579   0.346  24.950  0.00  0.00    +0.149 C 
BRANCH  15  16
ATOM     16  C   UNL     1       9.776  -0.045  24.071  0.00  0.00    +0.237 C 
ATOM     17  O   UNL     1      10.874   0.509  24.084  0.00  0.00    -0.285 OA
BRANCH  16  18
ATOM     18  C   UNL     1       9.575  -1.237  23.120  0.00  0.00    +0.282 C 
ATOM     19  N   UNL     1       8.254  -1.635  23.034  0.00  0.00    -0.306 N 
ATOM     20  H   UNL     1       7.599  -1.113  23.604  0.00  0.00    +0.149 HD
ATOM     21  O   UNL     1      10.519  -1.744  22.528  0.00  0.00    -0.267 OA
BRANCH  19  22
ATOM     22  C   UNL     1       7.778  -2.669  22.176  0.00  0.00    +0.073 C 
ATOM     23  C   UNL     1       6.336  -3.110  22.226  0.00  0.00    +0.024 C 
ATOM     24  C   UNL     1       7.412  -4.016  22.754  0.00  0.00    +0.024 C 
ENDBRANCH  19  22
ENDBRANCH  16  18
ENDBRANCH  15  16
BRANCH  15  25
ATOM     25  C   UNL     1       8.639  -0.348  26.317  0.00  0.00    +0.030 C 
BRANCH  25  27
ATOM     26  C   UNL     1       8.481  -2.982  26.279  0.00  0.00    +0.004 C 
ATOM     27  C   UNL     1       7.844  -1.635  26.590  0.00  0.00    -0.001 C 
ENDBRANCH  25  27
ENDBRANCH  15  25
ENDBRANCH  11  15
ENDBRANCH   1  13
BRANCH   3  28
ATOM     28  C   UNL     1       4.844   3.691  24.685  0.00  0.00    +0.164 C 
BRANCH  28  29
ATOM     29  N   UNL     1       4.352   2.796  25.842  0.00  0.00    -0.302 N 
ATOM     30  H   UNL     1       4.297   3.279  26.725  0.00  0.00    +0.150 HD
ATOM     31  C   UNL     1       4.617   1.424  25.914  0.00  0.00    +0.234 C 
ATOM     32  O   UNL     1       5.160   0.892  24.931  0.00  0.00    -0.274 OA
BRANCH  31  33
ATOM     33  C   UNL     1       4.049   0.471  27.178  0.00  0.00    +0.162 C 
BRANCH  33  34
ATOM     34  C   UNL     1       4.427   0.726  28.707  0.00  0.00    +0.018 C 
ATOM     35  C   UNL     1       3.865   1.991  29.461  0.00  0.00    +0.006 C 
ATOM     36  C   UNL     1       4.632   3.325  29.399  0.00  0.00    +0.000 C 
ATOM     37  C   UNL     1       6.132   3.266  29.146  0.00  0.00    +0.000 C 
ATOM     38  C   UNL     1       6.686   1.941  28.638  0.00  0.00    +0.000 C 
ATOM     39  C   UNL     1       5.913   0.697  29.054  0.00  0.00    +0.006 C 
ENDBRANCH  33  34
BRANCH  33  40
ATOM     40  N   UNL     1       4.399  -0.934  26.807  0.00  0.00    -0.298 N 
ATOM     41  H   UNL     1       5.323  -1.297  27.023  0.00  0.00    +0.150 HD
ATOM     42  C   UNL     1       3.444  -1.882  26.485  0.00  0.00    +0.264 C 
ATOM     43  O   UNL     1       2.242  -1.659  26.473  0.00  0.00    -0.268 OA
BRANCH  42  44
ATOM     44  C   UNL     1       3.945  -3.253  26.064  0.00  0.00    +0.143 A 
ATOM     45  C   UNL     1       3.456  -3.794  24.891  0.00  0.00    +0.143 A 
ATOM     46  N   UNL     1       3.933  -4.953  24.367  0.00  0.00    -0.259 NA
ATOM     47  C   UNL     1       4.913  -5.547  25.084  0.00  0.00    +0.130 A 
ATOM     48  C   UNL     1       5.385  -5.010  26.272  0.00  0.00    +0.131 A 
ATOM     49  N   UNL     1       4.920  -3.845  26.804  0.00  0.00    -0.247 NA
ENDBRANCH  42  44
ENDBRANCH  33  40
ENDBRANCH  31  33
ENDBRANCH  28  29
BRANCH  28  50
ATOM     50  C   UNL     1       3.669   4.269  23.755  0.00  0.00    -0.011 C 
ATOM     51  C   UNL     1       3.292   3.185  22.724  0.00  0.00    +0.013 C 
ATOM     52  C   UNL     1       4.056   5.530  22.932  0.00  0.00    +0.013 C 
ATOM     53  C   UNL     1       2.380   4.658  24.510  0.00  0.00    +0.013 C 
ENDBRANCH  28  50
ENDBRANCH   3  28
TORSDOF 14
ENDMDL
