MODEL 1
REMARK VINA RESULT:      -5.7      0.000      0.000
REMARK  Name = 
REMARK  6 active torsions:
REMARK  status: ('A' for Active; 'I' for Inactive)
REMARK    1  A    between atoms: C_3  and  C_19
REMARK    2  A    between atoms: N_5  and  C1*_6
REMARK    3  A    between atoms: C2*_8  and  O2*_18
REMARK    4  A    between atoms: C3*_10  and  O3*_17
REMARK    5  A    between atoms: C4*_12  and  C5*_15
REMARK    6  A    between atoms: C5*_15  and  O5*_16
REMARK                            x       y       z     vdW  Elec       q    Type
REMARK                         _______ _______ _______ _____ _____    ______ ____
ROOT
ATOM      1  C1* UNL     1       9.664  -0.163  24.979  0.00  0.00    +0.270 C 
ATOM      2  O4* UNL     1      10.391  -0.204  23.734  0.00  0.00    -0.344 OA
ATOM      3  C4* UNL     1       9.634   0.519  22.743  0.00  0.00    +0.177 C 
ATOM      4  C3* UNL     1       8.243   0.794  23.324  0.00  0.00    +0.178 C 
ATOM      5  C2* UNL     1       8.507   0.829  24.819  0.00  0.00    +0.196 C 
ENDROOT
BRANCH   1   7
ATOM      6  C   UNL     1       8.419  -1.901  26.343  0.00  0.00    +0.223 A 
ATOM      7  N   UNL     1       9.224  -1.511  25.320  0.00  0.00    -0.220 N 
ATOM      8  N   UNL     1       9.563  -2.557  24.540  0.00  0.00    -0.142 NA
ATOM      9  C   UNL     1       8.943  -3.580  25.159  0.00  0.00    +0.236 A 
ATOM     10  N   UNL     1       8.229  -3.197  26.287  0.00  0.00    -0.211 NA
BRANCH   9  11
ATOM     11  C   UNL     1       9.001  -4.984  24.713  0.00  0.00    +0.281 C 
ATOM     12  N   UNL     1       9.787  -5.784  25.504  0.00  0.00    -0.323 N 
ATOM     13  H   UNL     1       9.894  -6.759  25.269  0.00  0.00    +0.145 HD
ATOM     14  H   UNL     1      10.267  -5.383  26.301  0.00  0.00    +0.145 HD
ATOM     15  O   UNL     1       8.425  -5.443  23.730  0.00  0.00    -0.267 OA
ENDBRANCH   9  11
ENDBRANCH   1   7
BRANCH   4  16
ATOM     16  O3* UNL     1       7.324  -0.254  23.009  0.00  0.00    -0.386 OA
ATOM     17  H3* UNL     1       6.558  -0.160  23.608  0.00  0.00    +0.210 HD
ENDBRANCH   4  16
BRANCH   5  18
ATOM     18  O2* UNL     1       8.902   2.159  25.188  0.00  0.00    -0.385 OA
ATOM     19  H2* UNL     1       8.326   2.440  25.923  0.00  0.00    +0.210 HD
ENDBRANCH   5  18
BRANCH   3  20
ATOM     20  C5* UNL     1       9.634  -0.273  21.436  0.00  0.00    +0.190 C 
BRANCH  20  21
ATOM     21  O5* UNL     1       9.866  -1.656  21.661  0.00  0.00    -0.392 OA
ATOM     22  H5* UNL     1      10.788  -1.730  21.972  0.00  0.00    +0.210 HD
ENDBRANCH  20  21
ENDBRANCH   3  20
TORSDOF 6
ENDMDL
MODEL 2
REMARK VINA RESULT:      -5.6      2.332      2.507
REMARK  Name = 
REMARK  6 active torsions:
REMARK  status: ('A' for Active; 'I' for Inactive)
REMARK    1  A    between atoms: C_3  and  C_19
REMARK    2  A    between atoms: N_5  and  C1*_6
REMARK    3  A    between atoms: C2*_8  and  O2*_18
REMARK    4  A    between atoms: C3*_10  and  O3*_17
REMARK    5  A    between atoms: C4*_12  and  C5*_15
REMARK    6  A    between atoms: C5*_15  and  O5*_16
REMARK                            x       y       z     vdW  Elec       q    Type
REMARK                         _______ _______ _______ _____ _____    ______ ____
ROOT
ATOM      1  C1* UNL     1       9.718  -1.775  24.369  0.00  0.00    +0.270 C 
ATOM      2  O4* UNL     1      10.359  -1.189  23.217  0.00  0.00    -0.344 OA
ATOM      3  C4* UNL     1       9.832   0.139  23.032  0.00  0.00    +0.177 C 
ATOM      4  C3* UNL     1       8.610   0.291  23.945  0.00  0.00    +0.178 C 
ATOM      5  C2* UNL     1       8.917  -0.675  25.075  0.00  0.00    +0.196 C 
ENDROOT
BRANCH   1   7
ATOM      6  C   UNL     1       8.687  -4.084  24.570  0.00  0.00    +0.223 A 
ATOM      7  N   UNL     1       8.895  -2.899  23.937  0.00  0.00    -0.220 N 
ATOM      8  N   UNL     1       8.165  -2.815  22.807  0.00  0.00    -0.142 NA
ATOM      9  C   UNL     1       7.538  -4.008  22.790  0.00  0.00    +0.236 A 
ATOM     10  N   UNL     1       7.851  -4.816  23.874  0.00  0.00    -0.211 NA
BRANCH   9  11
ATOM     11  C   UNL     1       6.607  -4.446  21.734  0.00  0.00    +0.281 C 
ATOM     12  N   UNL     1       6.824  -5.731  21.305  0.00  0.00    -0.323 N 
ATOM     13  H   UNL     1       6.241  -6.114  20.577  0.00  0.00    +0.145 HD
ATOM     14  H   UNL     1       7.578  -6.274  21.708  0.00  0.00    +0.145 HD
ATOM     15  O   UNL     1       5.711  -3.762  21.246  0.00  0.00    -0.267 OA
ENDBRANCH   9  11
ENDBRANCH   1   7
BRANCH   4  16
ATOM     16  O3* UNL     1       7.405  -0.092  23.280  0.00  0.00    -0.386 OA
ATOM     17  H3* UNL     1       6.662   0.120  23.878  0.00  0.00    +0.210 HD
ENDBRANCH   4  16
BRANCH   5  18
ATOM     18  O2* UNL     1       9.712   0.002  26.060  0.00  0.00    -0.385 OA
ATOM     19  H2* UNL     1      10.549   0.259  25.632  0.00  0.00    +0.210 HD
ENDBRANCH   5  18
BRANCH   3  20
ATOM     20  C5* UNL     1       9.549   0.363  21.547  0.00  0.00    +0.190 C 
BRANCH  20  21
ATOM     21  O5* UNL     1       9.348  -0.864  20.860  0.00  0.00    -0.392 OA
ATOM     22  H5* UNL     1       8.431  -1.135  21.053  0.00  0.00    +0.210 HD
ENDBRANCH  20  21
ENDBRANCH   3  20
TORSDOF 6
ENDMDL
MODEL 3
REMARK VINA RESULT:      -5.5      3.397      4.950
REMARK  Name = 
REMARK  6 active torsions:
REMARK  status: ('A' for Active; 'I' for Inactive)
REMARK    1  A    between atoms: C_3  and  C_19
REMARK    2  A    between atoms: N_5  and  C1*_6
REMARK    3  A    between atoms: C2*_8  and  O2*_18
REMARK    4  A    between atoms: C3*_10  and  O3*_17
REMARK    5  A    between atoms: C4*_12  and  C5*_15
REMARK    6  A    between atoms: C5*_15  and  O5*_16
REMARK                            x       y       z     vdW  Elec       q    Type
REMARK                         _______ _______ _______ _____ _____    ______ ____
ROOT
ATOM      1  C1* UNL     1       8.279  -4.582  24.208  0.00  0.00    +0.270 C 
ATOM      2  O4* UNL     1       8.021  -5.501  23.126  0.00  0.00    -0.344 OA
ATOM      3  C4* UNL     1       7.155  -4.850  22.176  0.00  0.00    +0.177 C 
ATOM      4  C3* UNL     1       6.628  -3.565  22.823  0.00  0.00    +0.178 C 
ATOM      5  C2* UNL     1       7.733  -3.209  23.802  0.00  0.00    +0.196 C 
ENDROOT
BRANCH   1   7
ATOM      6  C   UNL     1       8.175  -5.073  26.694  0.00  0.00    +0.223 A 
ATOM      7  N   UNL     1       7.676  -5.102  25.430  0.00  0.00    -0.220 N 
ATOM      8  N   UNL     1       6.442  -5.645  25.405  0.00  0.00    -0.142 NA
ATOM      9  C   UNL     1       6.246  -5.954  26.702  0.00  0.00    +0.236 A 
ATOM     10  N   UNL     1       7.312  -5.612  27.522  0.00  0.00    -0.211 NA
BRANCH   9  11
ATOM     11  C   UNL     1       5.031  -6.598  27.231  0.00  0.00    +0.281 C 
ATOM     12  N   UNL     1       5.264  -7.423  28.303  0.00  0.00    -0.323 N 
ATOM     13  H   UNL     1       4.492  -7.915  28.725  0.00  0.00    +0.145 HD
ATOM     14  H   UNL     1       6.210  -7.545  28.644  0.00  0.00    +0.145 HD
ATOM     15  O   UNL     1       3.896  -6.451  26.787  0.00  0.00    -0.267 OA
ENDBRANCH   9  11
ENDBRANCH   1   7
BRANCH   4  16
ATOM     16  O3* UNL     1       5.403  -3.791  23.522  0.00  0.00    -0.386 OA
ATOM     17  H3* UNL     1       5.019  -2.917  23.727  0.00  0.00    +0.210 HD
ENDBRANCH   4  16
BRANCH   5  18
ATOM     18  O2* UNL     1       8.726  -2.432  23.117  0.00  0.00    -0.385 OA
ATOM     19  H2* UNL     1       8.324  -2.109  22.289  0.00  0.00    +0.210 HD
ENDBRANCH   5  18
BRANCH   3  20
ATOM     20  C5* UNL     1       6.070  -5.831  21.732  0.00  0.00    +0.190 C 
BRANCH  20  21
ATOM     21  O5* UNL     1       5.585  -6.603  22.821  0.00  0.00    -0.392 OA
ATOM     22  H5* UNL     1       4.716  -6.948  22.543  0.00  0.00    +0.210 HD
ENDBRANCH  20  21
ENDBRANCH   3  20
TORSDOF 6
ENDMDL
MODEL 4
REMARK VINA RESULT:      -5.5      2.011      4.973
REMARK  Name = 
REMARK  6 active torsions:
REMARK  status: ('A' for Active; 'I' for Inactive)
REMARK    1  A    between atoms: C_3  and  C_19
REMARK    2  A    between atoms: N_5  and  C1*_6
REMARK    3  A    between atoms: C2*_8  and  O2*_18
REMARK    4  A    between atoms: C3*_10  and  O3*_17
REMARK    5  A    between atoms: C4*_12  and  C5*_15
REMARK    6  A    between atoms: C5*_15  and  O5*_16
REMARK                            x       y       z     vdW  Elec       q    Type
REMARK                         _______ _______ _______ _____ _____    ______ ____
ROOT
ATOM      1  C1* UNL     1       7.630  -3.574  26.205  0.00  0.00    +0.270 C 
ATOM      2  O4* UNL     1       6.849  -3.963  25.055  0.00  0.00    -0.344 OA
ATOM      3  C4* UNL     1       7.390  -5.194  24.536  0.00  0.00    +0.177 C 
ATOM      4  C3* UNL     1       8.736  -5.444  25.226  0.00  0.00    +0.178 C 
ATOM      5  C2* UNL     1       8.562  -4.737  26.559  0.00  0.00    +0.196 C 
ENDROOT
BRANCH   1   7
ATOM      6  C   UNL     1       8.622  -1.300  26.734  0.00  0.00    +0.223 A 
ATOM      7  N   UNL     1       8.342  -2.338  25.902  0.00  0.00    -0.220 N 
ATOM      8  N   UNL     1       8.876  -2.140  24.679  0.00  0.00    -0.142 NA
ATOM      9  C   UNL     1       9.462  -0.935  24.822  0.00  0.00    +0.236 A 
ATOM     10  N   UNL     1       9.313  -0.391  26.090  0.00  0.00    -0.211 NA
BRANCH   9  11
ATOM     11  C   UNL     1      10.193  -0.232  23.753  0.00  0.00    +0.281 C 
ATOM     12  N   UNL     1      10.907   0.855  24.194  0.00  0.00    -0.323 N 
ATOM     13  H   UNL     1      11.431   1.404  23.530  0.00  0.00    +0.145 HD
ATOM     14  H   UNL     1      10.882   1.105  25.175  0.00  0.00    +0.145 HD
ATOM     15  O   UNL     1      10.191  -0.543  22.565  0.00  0.00    -0.267 OA
ENDBRANCH   9  11
ENDBRANCH   1   7
BRANCH   4  16
ATOM     16  O3* UNL     1       9.818  -4.862  24.496  0.00  0.00    -0.386 OA
ATOM     17  H3* UNL     1      10.617  -5.390  24.689  0.00  0.00    +0.210 HD
ENDBRANCH   4  16
BRANCH   5  18
ATOM     18  O2* UNL     1       7.943  -5.642  27.485  0.00  0.00    -0.385 OA
ATOM     19  H2* UNL     1       8.549  -5.745  28.242  0.00  0.00    +0.210 HD
ENDBRANCH   5  18
BRANCH   3  20
ATOM     20  C5* UNL     1       7.462  -5.106  23.012  0.00  0.00    +0.190 C 
BRANCH  20  21
ATOM     21  O5* UNL     1       7.774  -3.790  22.577  0.00  0.00    -0.392 OA
ATOM     22  H5* UNL     1       8.682  -3.611  22.883  0.00  0.00    +0.210 HD
ENDBRANCH  20  21
ENDBRANCH   3  20
TORSDOF 6
ENDMDL
MODEL 5
REMARK VINA RESULT:      -5.5      1.416      1.740
REMARK  Name = 
REMARK  6 active torsions:
REMARK  status: ('A' for Active; 'I' for Inactive)
REMARK    1  A    between atoms: C_3  and  C_19
REMARK    2  A    between atoms: N_5  and  C1*_6
REMARK    3  A    between atoms: C2*_8  and  O2*_18
REMARK    4  A    between atoms: C3*_10  and  O3*_17
REMARK    5  A    between atoms: C4*_12  and  C5*_15
REMARK    6  A    between atoms: C5*_15  and  O5*_16
REMARK                            x       y       z     vdW  Elec       q    Type
REMARK                         _______ _______ _______ _____ _____    ______ ____
ROOT
ATOM      1  C1* UNL     1       9.431  -0.114  25.329  0.00  0.00    +0.270 C 
ATOM      2  O4* UNL     1      10.329   0.601  24.455  0.00  0.00    -0.344 OA
ATOM      3  C4* UNL     1       9.556   1.535  23.676  0.00  0.00    +0.177 C 
ATOM      4  C3* UNL     1       8.074   1.199  23.877  0.00  0.00    +0.178 C 
ATOM      5  C2* UNL     1       8.060   0.566  25.257  0.00  0.00    +0.196 C 
ENDROOT
BRANCH   1   7
ATOM      6  C   UNL     1       9.942  -2.097  23.831  0.00  0.00    +0.223 A 
ATOM      7  N   UNL     1       9.399  -1.518  24.935  0.00  0.00    -0.220 N 
ATOM      8  N   UNL     1       8.829  -2.439  25.738  0.00  0.00    -0.142 NA
ATOM      9  C   UNL     1       9.041  -3.579  25.051  0.00  0.00    +0.236 A 
ATOM     10  N   UNL     1       9.727  -3.390  23.859  0.00  0.00    -0.211 NA
BRANCH   9  11
ATOM     11  C   UNL     1       8.595  -4.913  25.491  0.00  0.00    +0.281 C 
ATOM     12  N   UNL     1       9.608  -5.834  25.576  0.00  0.00    -0.323 N 
ATOM     13  H   UNL     1       9.394  -6.779  25.860  0.00  0.00    +0.145 HD
ATOM     14  H   UNL     1      10.553  -5.563  25.334  0.00  0.00    +0.145 HD
ATOM     15  O   UNL     1       7.437  -5.224  25.760  0.00  0.00    -0.267 OA
ENDBRANCH   9  11
ENDBRANCH   1   7
BRANCH   4  16
ATOM     16  O3* UNL     1       7.608   0.266  22.900  0.00  0.00    -0.386 OA
ATOM     17  H3* UNL     1       6.866   0.687  22.425  0.00  0.00    +0.210 HD
ENDBRANCH   4  16
BRANCH   5  18
ATOM     18  O2* UNL     1       7.937   1.603  26.241  0.00  0.00    -0.385 OA
ATOM     19  H2* UNL     1       8.592   1.421  26.940  0.00  0.00    +0.210 HD
ENDBRANCH   5  18
BRANCH   3  20
ATOM     20  C5* UNL     1      10.029   1.489  22.224  0.00  0.00    +0.190 C 
BRANCH  20  21
ATOM     21  O5* UNL     1       9.173   2.234  21.370  0.00  0.00    -0.392 OA
ATOM     22  H5* UNL     1       9.651   3.057  21.157  0.00  0.00    +0.210 HD
ENDBRANCH  20  21
ENDBRANCH   3  20
TORSDOF 6
ENDMDL
MODEL 6
REMARK VINA RESULT:      -5.4      1.948      3.155
REMARK  Name = 
REMARK  6 active torsions:
REMARK  status: ('A' for Active; 'I' for Inactive)
REMARK    1  A    between atoms: C_3  and  C_19
REMARK    2  A    between atoms: N_5  and  C1*_6
REMARK    3  A    between atoms: C2*_8  and  O2*_18
REMARK    4  A    between atoms: C3*_10  and  O3*_17
REMARK    5  A    between atoms: C4*_12  and  C5*_15
REMARK    6  A    between atoms: C5*_15  and  O5*_16
REMARK                            x       y       z     vdW  Elec       q    Type
REMARK                         _______ _______ _______ _____ _____    ______ ____
ROOT
ATOM      1  C1* UNL     1       8.765   0.245  22.632  0.00  0.00    +0.270 C 
ATOM      2  O4* UNL     1       7.751   0.876  23.441  0.00  0.00    -0.344 OA
ATOM      3  C4* UNL     1       8.322   2.052  24.047  0.00  0.00    +0.177 C 
ATOM      4  C3* UNL     1       9.839   2.006  23.825  0.00  0.00    +0.178 C 
ATOM      5  C2* UNL     1       9.962   1.197  22.546  0.00  0.00    +0.196 C 
ENDROOT
BRANCH   1   7
ATOM      6  C   UNL     1      10.178  -1.837  22.954  0.00  0.00    +0.223 A 
ATOM      7  N   UNL     1       9.101  -1.050  23.212  0.00  0.00    -0.220 N 
ATOM      8  N   UNL     1       8.329  -1.584  24.181  0.00  0.00    -0.142 NA
ATOM      9  C   UNL     1       8.985  -2.726  24.464  0.00  0.00    +0.236 A 
ATOM     10  N   UNL     1      10.137  -2.907  23.710  0.00  0.00    -0.211 NA
BRANCH   9  11
ATOM     11  C   UNL     1       8.548  -3.713  25.468  0.00  0.00    +0.281 C 
ATOM     12  N   UNL     1       8.584  -5.010  25.021  0.00  0.00    -0.323 N 
ATOM     13  H   UNL     1       8.292  -5.753  25.637  0.00  0.00    +0.145 HD
ATOM     14  H   UNL     1       8.882  -5.204  24.072  0.00  0.00    +0.145 HD
ATOM     15  O   UNL     1       8.171  -3.451  26.607  0.00  0.00    -0.267 OA
ENDBRANCH   9  11
ENDBRANCH   1   7
BRANCH   4  16
ATOM     16  O3* UNL     1      10.508   1.339  24.897  0.00  0.00    -0.386 OA
ATOM     17  H3* UNL     1      10.491   0.383  24.701  0.00  0.00    +0.210 HD
ENDBRANCH   4  16
BRANCH   5  18
ATOM     18  O2* UNL     1       9.846   2.085  21.424  0.00  0.00    -0.385 OA
ATOM     19  H2* UNL     1       8.898   2.275  21.299  0.00  0.00    +0.210 HD
ENDBRANCH   5  18
BRANCH   3  20
ATOM     20  C5* UNL     1       7.895   2.118  25.512  0.00  0.00    +0.190 C 
BRANCH  20  21
ATOM     21  O5* UNL     1       8.121   0.886  26.181  0.00  0.00    -0.392 OA
ATOM     22  H5* UNL     1       7.265   0.628  26.571  0.00  0.00    +0.210 HD
ENDBRANCH  20  21
ENDBRANCH   3  20
TORSDOF 6
ENDMDL
MODEL 7
REMARK VINA RESULT:      -5.4      1.693      3.068
REMARK  Name = 
REMARK  6 active torsions:
REMARK  status: ('A' for Active; 'I' for Inactive)
REMARK    1  A    between atoms: C_3  and  C_19
REMARK    2  A    between atoms: N_5  and  C1*_6
REMARK    3  A    between atoms: C2*_8  and  O2*_18
REMARK    4  A    between atoms: C3*_10  and  O3*_17
REMARK    5  A    between atoms: C4*_12  and  C5*_15
REMARK    6  A    between atoms: C5*_15  and  O5*_16
REMARK                            x       y       z     vdW  Elec       q    Type
REMARK                         _______ _______ _______ _____ _____    ______ ____
ROOT
ATOM      1  C1* UNL     1       8.040  -1.781  22.517  0.00  0.00    +0.270 C 
ATOM      2  O4* UNL     1       7.394  -0.554  22.915  0.00  0.00    -0.344 OA
ATOM      3  C4* UNL     1       8.410   0.379  23.331  0.00  0.00    +0.177 C 
ATOM      4  C3* UNL     1       9.731  -0.390  23.457  0.00  0.00    +0.178 C 
ATOM      5  C2* UNL     1       9.550  -1.525  22.465  0.00  0.00    +0.196 C 
ENDROOT
BRANCH   1   7
ATOM      6  C   UNL     1       6.434  -3.357  23.687  0.00  0.00    +0.223 A 
ATOM      7  N   UNL     1       7.667  -2.840  23.448  0.00  0.00    -0.220 N 
ATOM      8  N   UNL     1       8.613  -3.485  24.162  0.00  0.00    -0.142 NA
ATOM      9  C   UNL     1       7.881  -4.386  24.845  0.00  0.00    +0.236 A 
ATOM     10  N   UNL     1       6.522  -4.322  24.570  0.00  0.00    -0.211 NA
BRANCH   9  11
ATOM     11  C   UNL     1       8.437  -5.357  25.805  0.00  0.00    +0.281 C 
ATOM     12  N   UNL     1       9.716  -5.757  25.508  0.00  0.00    -0.323 N 
ATOM     13  H   UNL     1      10.174  -6.429  26.105  0.00  0.00    +0.145 HD
ATOM     14  H   UNL     1      10.177  -5.391  24.684  0.00  0.00    +0.145 HD
ATOM     15  O   UNL     1       7.851  -5.802  26.788  0.00  0.00    -0.267 OA
ENDBRANCH   9  11
ENDBRANCH   1   7
BRANCH   4  16
ATOM     16  O3* UNL     1       9.913  -0.910  24.775  0.00  0.00    -0.386 OA
ATOM     17  H3* UNL     1      10.341  -0.211  25.307  0.00  0.00    +0.210 HD
ENDBRANCH   4  16
BRANCH   5  18
ATOM     18  O2* UNL     1       9.961  -1.075  21.166  0.00  0.00    -0.385 OA
ATOM     19  H2* UNL     1       9.735  -1.777  20.528  0.00  0.00    +0.210 HD
ENDBRANCH   5  18
BRANCH   3  20
ATOM     20  C5* UNL     1       7.955   1.078  24.611  0.00  0.00    +0.190 C 
BRANCH  20  21
ATOM     21  O5* UNL     1       9.019   1.790  25.226  0.00  0.00    -0.392 OA
ATOM     22  H5* UNL     1       9.403   2.358  24.532  0.00  0.00    +0.210 HD
ENDBRANCH  20  21
ENDBRANCH   3  20
TORSDOF 6
ENDMDL
MODEL 8
REMARK VINA RESULT:      -5.3      3.308      4.188
REMARK  Name = 
REMARK  6 active torsions:
REMARK  status: ('A' for Active; 'I' for Inactive)
REMARK    1  A    between atoms: C_3  and  C_19
REMARK    2  A    between atoms: N_5  and  C1*_6
REMARK    3  A    between atoms: C2*_8  and  O2*_18
REMARK    4  A    between atoms: C3*_10  and  O3*_17
REMARK    5  A    between atoms: C4*_12  and  C5*_15
REMARK    6  A    between atoms: C5*_15  and  O5*_16
REMARK                            x       y       z     vdW  Elec       q    Type
REMARK                         _______ _______ _______ _____ _____    ______ ____
ROOT
ATOM      1  C1* UNL     1       7.907  -1.428  22.801  0.00  0.00    +0.270 C 
ATOM      2  O4* UNL     1       7.783  -0.996  24.173  0.00  0.00    -0.344 OA
ATOM      3  C4* UNL     1       9.012  -1.308  24.858  0.00  0.00    +0.177 C 
ATOM      4  C3* UNL     1       9.840  -2.220  23.946  0.00  0.00    +0.178 C 
ATOM      5  C2* UNL     1       9.368  -1.821  22.559  0.00  0.00    +0.196 C 
ENDROOT
BRANCH   1   7
ATOM      6  C   UNL     1       5.655  -2.591  22.897  0.00  0.00    +0.223 A 
ATOM      7  N   UNL     1       6.969  -2.517  22.558  0.00  0.00    -0.220 N 
ATOM      8  N   UNL     1       7.355  -3.606  21.861  0.00  0.00    -0.142 NA
ATOM      9  C   UNL     1       6.220  -4.331  21.824  0.00  0.00    +0.236 A 
ATOM     10  N   UNL     1       5.150  -3.722  22.467  0.00  0.00    -0.211 NA
BRANCH   9  11
ATOM     11  C   UNL     1       6.093  -5.650  21.178  0.00  0.00    +0.281 C 
ATOM     12  N   UNL     1       6.154  -6.703  22.055  0.00  0.00    -0.323 N 
ATOM     13  H   UNL     1       6.086  -7.645  21.702  0.00  0.00    +0.145 HD
ATOM     14  H   UNL     1       6.288  -6.525  23.043  0.00  0.00    +0.145 HD
ATOM     15  O   UNL     1       5.951  -5.842  19.973  0.00  0.00    -0.267 OA
ENDBRANCH   9  11
ENDBRANCH   1   7
BRANCH   4  16
ATOM     16  O3* UNL     1       9.559  -3.600  24.185  0.00  0.00    -0.386 OA
ATOM     17  H3* UNL     1       8.630  -3.661  24.481  0.00  0.00    +0.210 HD
ENDBRANCH   4  16
BRANCH   5  18
ATOM     18  O2* UNL     1      10.145  -0.701  22.110  0.00  0.00    -0.385 OA
ATOM     19  H2* UNL     1       9.801  -0.439  21.236  0.00  0.00    +0.210 HD
ENDBRANCH   5  18
BRANCH   3  20
ATOM     20  C5* UNL     1       8.685  -1.904  26.227  0.00  0.00    +0.190 C 
BRANCH  20  21
ATOM     21  O5* UNL     1       7.594  -2.810  26.158  0.00  0.00    -0.392 OA
ATOM     22  H5* UNL     1       7.984  -3.697  26.052  0.00  0.00    +0.210 HD
ENDBRANCH  20  21
ENDBRANCH   3  20
TORSDOF 6
ENDMDL
MODEL 9
REMARK VINA RESULT:      -5.2      2.679      3.719
REMARK  Name = 
REMARK  6 active torsions:
REMARK  status: ('A' for Active; 'I' for Inactive)
REMARK    1  A    between atoms: C_3  and  C_19
REMARK    2  A    between atoms: N_5  and  C1*_6
REMARK    3  A    between atoms: C2*_8  and  O2*_18
REMARK    4  A    between atoms: C3*_10  and  O3*_17
REMARK    5  A    between atoms: C4*_12  and  C5*_15
REMARK    6  A    between atoms: C5*_15  and  O5*_16
REMARK                            x       y       z     vdW  Elec       q    Type
REMARK                         _______ _______ _______ _____ _____    ______ ____
ROOT
ATOM      1  C1* UNL     1       7.704  -1.897  22.584  0.00  0.00    +0.270 C 
ATOM      2  O4* UNL     1       7.719  -1.039  23.744  0.00  0.00    -0.344 OA
ATOM      3  C4* UNL     1       9.091  -0.763  24.085  0.00  0.00    +0.177 C 
ATOM      4  C3* UNL     1       9.978  -1.709  23.268  0.00  0.00    +0.178 C 
ATOM      5  C2* UNL     1       9.132  -1.976  22.036  0.00  0.00    +0.196 C 
ENDROOT
BRANCH   1   7
ATOM      6  C   UNL     1       6.756  -4.208  22.145  0.00  0.00    +0.223 A 
ATOM      7  N   UNL     1       7.158  -3.196  22.959  0.00  0.00    -0.220 N 
ATOM      8  N   UNL     1       7.059  -3.546  24.258  0.00  0.00    -0.142 NA
ATOM      9  C   UNL     1       6.562  -4.796  24.173  0.00  0.00    +0.236 A 
ATOM     10  N   UNL     1       6.361  -5.227  22.870  0.00  0.00    -0.211 NA
BRANCH   9  11
ATOM     11  C   UNL     1       6.247  -5.647  25.334  0.00  0.00    +0.281 C 
ATOM     12  N   UNL     1       7.220  -5.647  26.302  0.00  0.00    -0.323 N 
ATOM     13  H   UNL     1       7.094  -6.210  27.129  0.00  0.00    +0.145 HD
ATOM     14  H   UNL     1       8.061  -5.100  26.165  0.00  0.00    +0.145 HD
ATOM     15  O   UNL     1       5.227  -6.319  25.468  0.00  0.00    -0.267 OA
ENDBRANCH   9  11
ENDBRANCH   1   7
BRANCH   4  16
ATOM     16  O3* UNL     1      10.230  -2.930  23.967  0.00  0.00    -0.386 OA
ATOM     17  H3* UNL     1      11.013  -2.785  24.533  0.00  0.00    +0.210 HD
ENDBRANCH   4  16
BRANCH   5  18
ATOM     18  O2* UNL     1       9.381  -0.943  21.071  0.00  0.00    -0.385 OA
ATOM     19  H2* UNL     1       8.752  -1.070  20.338  0.00  0.00    +0.210 HD
ENDBRANCH   5  18
BRANCH   3  20
ATOM     20  C5* UNL     1       9.263  -0.877  25.599  0.00  0.00    +0.190 C 
BRANCH  20  21
ATOM     21  O5* UNL     1       8.583  -2.009  26.121  0.00  0.00    -0.392 OA
ATOM     22  H5* UNL     1       9.272  -2.600  26.478  0.00  0.00    +0.210 HD
ENDBRANCH  20  21
ENDBRANCH   3  20
TORSDOF 6
ENDMDL
