MODEL 1
REMARK VINA RESULT:      -6.1      0.000      0.000
REMARK  Name = 
REMARK  12 active torsions:
REMARK  status: ('A' for Active; 'I' for Inactive)
REMARK    1  A    between atoms: C_1  and  C_2
REMARK    2  A    between atoms: C_2  and  C_3
REMARK    3  A    between atoms: C_3  and  C_4
REMARK    4  A    between atoms: C_3  and  C_6
REMARK    5  A    between atoms: C_4  and  C_5
REMARK    6  A    between atoms: C_6  and  C_8
REMARK    7  A    between atoms: C_6  and  N_25
REMARK    8  A    between atoms: C_10  and  N_21
REMARK    9  A    between atoms: C_13  and  C_18
REMARK   10  A    between atoms: C_15  and  O_17
REMARK   11  A    between atoms: C_18  and  O_20
REMARK   12  A    between atoms: C_26  and  C_28
REMARK                            x       y       z     vdW  Elec       q    Type
REMARK                         _______ _______ _______ _____ _____    ______ ____
ROOT
ATOM      1  C   UNL     1       7.962  -2.727  23.085  0.00  0.00    +0.079 C 
ATOM      2  C   UNL     1       6.783  -2.930  22.089  0.00  0.00    +0.137 C 
ATOM      3  C   UNL     1       6.254  -4.352  22.253  0.00  0.00    +0.130 C 
ATOM      4  C   UNL     1       7.266  -5.050  23.133  0.00  0.00    +0.062 C 
ATOM      5  C   UNL     1       7.880  -3.953  24.032  0.00  0.00    +0.196 C 
ENDROOT
BRANCH   5   6
ATOM      6  N   UNL     1       9.155  -4.535  24.416  0.00  0.00    -0.110 NA
ATOM      7  C   UNL     1       9.437  -4.958  25.583  0.00  0.00    +0.377 C 
ATOM      8  N   UNL     1      10.553  -5.702  25.754  0.00  0.00    -0.289 N 
ATOM      9  H   UNL     1      10.530  -6.379  26.501  0.00  0.00    +0.255 HD
ATOM     10  H   UNL     1      10.886  -6.086  24.877  0.00  0.00    +0.255 HD
ATOM     11  N   UNL     1       8.791  -4.798  26.749  0.00  0.00    -0.289 N 
ATOM     12  H   UNL     1       8.651  -5.623  27.312  0.00  0.00    +0.255 HD
ATOM     13  H   UNL     1       7.935  -4.243  26.733  0.00  0.00    +0.255 HD
ENDBRANCH   5   6
BRANCH   2  14
ATOM     14  O   UNL     1       5.654  -2.074  22.300  0.00  0.00    -0.391 OA
ATOM     15  H   UNL     1       5.069  -2.203  21.528  0.00  0.00    +0.210 HD
ENDBRANCH   2  14
BRANCH   3  16
ATOM     16  C   UNL     1       6.060  -5.002  20.907  0.00  0.00    +0.310 C 
ATOM     17  O   UNL     1       6.058  -6.200  20.682  0.00  0.00    -0.251 OA
BRANCH  16  18
ATOM     18  O   UNL     1       5.797  -4.092  19.932  0.00  0.00    -0.480 OA
ATOM     19  H   UNL     1       5.968  -4.424  19.024  0.00  0.00    +0.295 HD
ENDBRANCH  16  18
ENDBRANCH   3  16
BRANCH   1  20
ATOM     20  C   UNL     1       8.011  -1.310  23.760  0.00  0.00    +0.085 C 
BRANCH  20  21
ATOM     21  N   UNL     1       7.980  -0.255  22.725  0.00  0.00    -0.312 N 
ATOM     22  H   UNL     1       8.557  -0.421  21.908  0.00  0.00    +0.149 HD
ATOM     23  C   UNL     1       7.385   0.971  22.870  0.00  0.00    +0.210 C 
ATOM     24  C   UNL     1       7.437   1.842  21.648  0.00  0.00    +0.109 C 
ATOM     25  O   UNL     1       6.803   1.334  23.886  0.00  0.00    -0.276 OA
ENDBRANCH  20  21
BRANCH  20  26
ATOM     26  C   UNL     1       9.296  -1.101  24.672  0.00  0.00    +0.009 C 
BRANCH  26  28
ATOM     27  C   UNL     1       7.747  -0.995  26.764  0.00  0.00    +0.004 C 
ATOM     28  C   UNL     1       8.981  -0.457  26.047  0.00  0.00    +0.002 C 
ENDBRANCH  26  28
BRANCH  26  29
ATOM     29  C   UNL     1      10.442  -0.343  23.939  0.00  0.00    +0.002 C 
ATOM     30  C   UNL     1      10.761   1.022  24.547  0.00  0.00    +0.004 C 
ENDBRANCH  26  29
ENDBRANCH  20  26
ENDBRANCH   1  20
TORSDOF 9
ENDMDL
MODEL 2
REMARK VINA RESULT:      -5.9      2.516      5.581
REMARK  Name = 
REMARK  12 active torsions:
REMARK  status: ('A' for Active; 'I' for Inactive)
REMARK    1  A    between atoms: C_1  and  C_2
REMARK    2  A    between atoms: C_2  and  C_3
REMARK    3  A    between atoms: C_3  and  C_4
REMARK    4  A    between atoms: C_3  and  C_6
REMARK    5  A    between atoms: C_4  and  C_5
REMARK    6  A    between atoms: C_6  and  C_8
REMARK    7  A    between atoms: C_6  and  N_25
REMARK    8  A    between atoms: C_10  and  N_21
REMARK    9  A    between atoms: C_13  and  C_18
REMARK   10  A    between atoms: C_15  and  O_17
REMARK   11  A    between atoms: C_18  and  O_20
REMARK   12  A    between atoms: C_26  and  C_28
REMARK                            x       y       z     vdW  Elec       q    Type
REMARK                         _______ _______ _______ _____ _____    ______ ____
ROOT
ATOM      1  C   UNL     1       7.918  -1.745  23.565  0.00  0.00    +0.079 C 
ATOM      2  C   UNL     1       8.631  -1.178  22.302  0.00  0.00    +0.137 C 
ATOM      3  C   UNL     1       9.392   0.082  22.704  0.00  0.00    +0.130 C 
ATOM      4  C   UNL     1       8.922   0.395  24.106  0.00  0.00    +0.062 C 
ATOM      5  C   UNL     1       8.548  -0.961  24.746  0.00  0.00    +0.196 C 
ENDROOT
BRANCH   5   6
ATOM      6  N   UNL     1       7.628  -0.572  25.801  0.00  0.00    -0.110 NA
ATOM      7  C   UNL     1       7.974  -0.265  26.988  0.00  0.00    +0.377 C 
ATOM      8  N   UNL     1       7.065   0.319  27.800  0.00  0.00    -0.289 N 
ATOM      9  H   UNL     1       7.429   0.942  28.504  0.00  0.00    +0.255 HD
ATOM     10  H   UNL     1       6.293   0.715  27.276  0.00  0.00    +0.255 HD
ATOM     11  N   UNL     1       9.147  -0.420  27.622  0.00  0.00    -0.289 N 
ATOM     12  H   UNL     1       9.502   0.377  28.128  0.00  0.00    +0.255 HD
ATOM     13  H   UNL     1       9.904  -0.860  27.098  0.00  0.00    +0.255 HD
ENDBRANCH   5   6
BRANCH   2  14
ATOM     14  O   UNL     1       9.609  -2.046  21.715  0.00  0.00    -0.391 OA
ATOM     15  H   UNL     1      10.200  -1.470  21.191  0.00  0.00    +0.210 HD
ENDBRANCH   2  14
BRANCH   3  16
ATOM     16  C   UNL     1       9.142   1.189  21.712  0.00  0.00    +0.310 C 
ATOM     17  O   UNL     1       8.092   1.409  21.133  0.00  0.00    -0.251 OA
BRANCH  16  18
ATOM     18  O   UNL     1      10.220   2.005  21.572  0.00  0.00    -0.480 OA
ATOM     19  H   UNL     1      10.099   2.708  20.898  0.00  0.00    +0.295 HD
ENDBRANCH  16  18
ENDBRANCH   3  16
BRANCH   1  20
ATOM     20  C   UNL     1       7.922  -3.312  23.669  0.00  0.00    +0.085 C 
BRANCH  20  21
ATOM     21  N   UNL     1       7.067  -3.892  22.613  0.00  0.00    -0.312 N 
ATOM     22  H   UNL     1       6.244  -3.354  22.364  0.00  0.00    +0.149 HD
ATOM     23  C   UNL     1       7.211  -5.151  22.088  0.00  0.00    +0.210 C 
ATOM     24  C   UNL     1       6.254  -5.480  20.978  0.00  0.00    +0.109 C 
ATOM     25  O   UNL     1       8.076  -5.944  22.440  0.00  0.00    -0.276 OA
ENDBRANCH  20  21
BRANCH  20  26
ATOM     26  C   UNL     1       7.423  -3.840  25.083  0.00  0.00    +0.009 C 
BRANCH  26  28
ATOM     27  C   UNL     1       9.795  -4.894  25.323  0.00  0.00    +0.004 C 
ATOM     28  C   UNL     1       8.311  -4.970  25.669  0.00  0.00    +0.002 C 
ENDBRANCH  26  28
BRANCH  26  29
ATOM     29  C   UNL     1       5.919  -4.242  25.084  0.00  0.00    +0.002 C 
ATOM     30  C   UNL     1       5.673  -5.698  25.474  0.00  0.00    +0.004 C 
ENDBRANCH  26  29
ENDBRANCH  20  26
ENDBRANCH   1  20
TORSDOF 9
ENDMDL
MODEL 3
REMARK VINA RESULT:      -5.8      1.251      2.490
REMARK  Name = 
REMARK  12 active torsions:
REMARK  status: ('A' for Active; 'I' for Inactive)
REMARK    1  A    between atoms: C_1  and  C_2
REMARK    2  A    between atoms: C_2  and  C_3
REMARK    3  A    between atoms: C_3  and  C_4
REMARK    4  A    between atoms: C_3  and  C_6
REMARK    5  A    between atoms: C_4  and  C_5
REMARK    6  A    between atoms: C_6  and  C_8
REMARK    7  A    between atoms: C_6  and  N_25
REMARK    8  A    between atoms: C_10  and  N_21
REMARK    9  A    between atoms: C_13  and  C_18
REMARK   10  A    between atoms: C_15  and  O_17
REMARK   11  A    between atoms: C_18  and  O_20
REMARK   12  A    between atoms: C_26  and  C_28
REMARK                            x       y       z     vdW  Elec       q    Type
REMARK                         _______ _______ _______ _____ _____    ______ ____
ROOT
ATOM      1  C   UNL     1       7.973  -2.730  23.073  0.00  0.00    +0.079 C 
ATOM      2  C   UNL     1       6.773  -3.071  22.141  0.00  0.00    +0.137 C 
ATOM      3  C   UNL     1       6.258  -4.460  22.510  0.00  0.00    +0.130 C 
ATOM      4  C   UNL     1       7.295  -5.027  23.452  0.00  0.00    +0.062 C 
ATOM      5  C   UNL     1       7.922  -3.816  24.179  0.00  0.00    +0.196 C 
ENDROOT
BRANCH   5   6
ATOM      6  N   UNL     1       9.209  -4.336  24.608  0.00  0.00    -0.110 NA
ATOM      7  C   UNL     1       9.412  -4.963  25.697  0.00  0.00    +0.377 C 
ATOM      8  N   UNL     1      10.586  -5.612  25.866  0.00  0.00    -0.289 N 
ATOM      9  H   UNL     1      10.566  -6.427  26.458  0.00  0.00    +0.255 HD
ATOM     10  H   UNL     1      11.058  -5.770  24.983  0.00  0.00    +0.255 HD
ATOM     11  N   UNL     1       8.628  -5.113  26.776  0.00  0.00    -0.289 N 
ATOM     12  H   UNL     1       8.530  -6.047  27.145  0.00  0.00    +0.255 HD
ATOM     13  H   UNL     1       7.716  -4.655  26.755  0.00  0.00    +0.255 HD
ENDBRANCH   5   6
BRANCH   2  14
ATOM     14  O   UNL     1       5.643  -2.198  22.261  0.00  0.00    -0.391 OA
ATOM     15  H   UNL     1       5.838  -1.607  23.015  0.00  0.00    +0.210 HD
ENDBRANCH   2  14
BRANCH   3  16
ATOM     16  C   UNL     1       6.037  -5.287  21.270  0.00  0.00    +0.310 C 
ATOM     17  O   UNL     1       5.920  -4.860  20.134  0.00  0.00    -0.251 OA
BRANCH  16  18
ATOM     18  O   UNL     1       6.060  -6.621  21.533  0.00  0.00    -0.480 OA
ATOM     19  H   UNL     1       6.652  -7.131  20.939  0.00  0.00    +0.295 HD
ENDBRANCH  16  18
ENDBRANCH   3  16
BRANCH   1  20
ATOM     20  C   UNL     1       8.028  -1.234  23.547  0.00  0.00    +0.085 C 
BRANCH  20  21
ATOM     21  N   UNL     1       6.765  -0.871  24.223  0.00  0.00    -0.312 N 
ATOM     22  H   UNL     1       6.014  -0.556  23.619  0.00  0.00    +0.149 HD
ATOM     23  C   UNL     1       6.603  -0.765  25.581  0.00  0.00    +0.210 C 
ATOM     24  C   UNL     1       5.203  -0.443  26.021  0.00  0.00    +0.109 C 
ATOM     25  O   UNL     1       7.497  -0.963  26.394  0.00  0.00    -0.276 OA
ENDBRANCH  20  21
BRANCH  20  26
ATOM     26  C   UNL     1       8.286  -0.215  22.354  0.00  0.00    +0.009 C 
BRANCH  26  28
ATOM     27  C   UNL     1      10.590   0.211  23.494  0.00  0.00    +0.004 C 
ATOM     28  C   UNL     1       9.773   0.200  22.206  0.00  0.00    +0.002 C 
ENDBRANCH  26  28
BRANCH  26  29
ATOM     29  C   UNL     1       7.351   1.030  22.409  0.00  0.00    +0.002 C 
ATOM     30  C   UNL     1       7.953   2.276  21.763  0.00  0.00    +0.004 C 
ENDBRANCH  26  29
ENDBRANCH  20  26
ENDBRANCH   1  20
TORSDOF 9
ENDMDL
MODEL 4
REMARK VINA RESULT:      -5.4      2.596      5.723
REMARK  Name = 
REMARK  12 active torsions:
REMARK  status: ('A' for Active; 'I' for Inactive)
REMARK    1  A    between atoms: C_1  and  C_2
REMARK    2  A    between atoms: C_2  and  C_3
REMARK    3  A    between atoms: C_3  and  C_4
REMARK    4  A    between atoms: C_3  and  C_6
REMARK    5  A    between atoms: C_4  and  C_5
REMARK    6  A    between atoms: C_6  and  C_8
REMARK    7  A    between atoms: C_6  and  N_25
REMARK    8  A    between atoms: C_10  and  N_21
REMARK    9  A    between atoms: C_13  and  C_18
REMARK   10  A    between atoms: C_15  and  O_17
REMARK   11  A    between atoms: C_18  and  O_20
REMARK   12  A    between atoms: C_26  and  C_28
REMARK                            x       y       z     vdW  Elec       q    Type
REMARK                         _______ _______ _______ _____ _____    ______ ____
ROOT
ATOM      1  C   UNL     1       7.413  -1.315  23.788  0.00  0.00    +0.079 C 
ATOM      2  C   UNL     1       8.109  -0.901  22.458  0.00  0.00    +0.137 C 
ATOM      3  C   UNL     1       9.124   0.196  22.768  0.00  0.00    +0.130 C 
ATOM      4  C   UNL     1       8.841   0.602  24.196  0.00  0.00    +0.062 C 
ATOM      5  C   UNL     1       8.276  -0.655  24.896  0.00  0.00    +0.196 C 
ENDROOT
BRANCH   5   6
ATOM      6  N   UNL     1       7.538  -0.092  26.013  0.00  0.00    -0.110 NA
ATOM      7  C   UNL     1       8.006   0.061  27.188  0.00  0.00    +0.377 C 
ATOM      8  N   UNL     1       7.317   0.821  28.069  0.00  0.00    -0.289 N 
ATOM      9  H   UNL     1       7.861   1.296  28.771  0.00  0.00    +0.255 HD
ATOM     10  H   UNL     1       6.650   1.425  27.603  0.00  0.00    +0.255 HD
ATOM     11  N   UNL     1       9.127  -0.418  27.750  0.00  0.00    -0.289 N 
ATOM     12  H   UNL     1       9.699   0.237  28.260  0.00  0.00    +0.255 HD
ATOM     13  H   UNL     1       9.719  -1.013  27.169  0.00  0.00    +0.255 HD
ENDBRANCH   5   6
BRANCH   2  14
ATOM     14  O   UNL     1       8.854  -1.942  21.814  0.00  0.00    -0.391 OA
ATOM     15  H   UNL     1       8.192  -2.573  21.468  0.00  0.00    +0.210 HD
ENDBRANCH   2  14
BRANCH   3  16
ATOM     16  C   UNL     1       9.002   1.323  21.774  0.00  0.00    +0.310 C 
ATOM     17  O   UNL     1       7.972   1.704  21.244  0.00  0.00    -0.251 OA
BRANCH  16  18
ATOM     18  O   UNL     1      10.186   1.958  21.571  0.00  0.00    -0.480 OA
ATOM     19  H   UNL     1      10.091   2.887  21.272  0.00  0.00    +0.295 HD
ENDBRANCH  16  18
ENDBRANCH   3  16
BRANCH   1  20
ATOM     20  C   UNL     1       7.132  -2.853  23.928  0.00  0.00    +0.085 C 
BRANCH  20  21
ATOM     21  N   UNL     1       8.393  -3.577  24.188  0.00  0.00    -0.312 N 
ATOM     22  H   UNL     1       9.077  -3.558  23.439  0.00  0.00    +0.149 HD
ATOM     23  C   UNL     1       8.623  -4.394  25.265  0.00  0.00    +0.210 C 
ATOM     24  C   UNL     1      10.012  -4.964  25.334  0.00  0.00    +0.109 C 
ATOM     25  O   UNL     1       7.799  -4.617  26.143  0.00  0.00    -0.276 OA
ENDBRANCH  20  21
BRANCH  20  26
ATOM     26  C   UNL     1       6.436  -3.476  22.641  0.00  0.00    +0.009 C 
BRANCH  26  28
ATOM     27  C   UNL     1       4.388  -3.621  24.245  0.00  0.00    +0.004 C 
ATOM     28  C   UNL     1       4.915  -3.719  22.817  0.00  0.00    +0.002 C 
ENDBRANCH  26  28
BRANCH  26  29
ATOM     29  C   UNL     1       7.159  -4.753  22.119  0.00  0.00    +0.002 C 
ATOM     30  C   UNL     1       6.278  -5.642  21.245  0.00  0.00    +0.004 C 
ENDBRANCH  26  29
ENDBRANCH  20  26
ENDBRANCH   1  20
TORSDOF 9
ENDMDL
MODEL 5
REMARK VINA RESULT:      -5.3      3.057      5.807
REMARK  Name = 
REMARK  12 active torsions:
REMARK  status: ('A' for Active; 'I' for Inactive)
REMARK    1  A    between atoms: C_1  and  C_2
REMARK    2  A    between atoms: C_2  and  C_3
REMARK    3  A    between atoms: C_3  and  C_4
REMARK    4  A    between atoms: C_3  and  C_6
REMARK    5  A    between atoms: C_4  and  C_5
REMARK    6  A    between atoms: C_6  and  C_8
REMARK    7  A    between atoms: C_6  and  N_25
REMARK    8  A    between atoms: C_10  and  N_21
REMARK    9  A    between atoms: C_13  and  C_18
REMARK   10  A    between atoms: C_15  and  O_17
REMARK   11  A    between atoms: C_18  and  O_20
REMARK   12  A    between atoms: C_26  and  C_28
REMARK                            x       y       z     vdW  Elec       q    Type
REMARK                         _______ _______ _______ _____ _____    ______ ____
ROOT
ATOM      1  C   UNL     1       7.692  -1.749  24.296  0.00  0.00    +0.079 C 
ATOM      2  C   UNL     1       8.830  -1.690  23.235  0.00  0.00    +0.137 C 
ATOM      3  C   UNL     1       9.658  -0.433  23.487  0.00  0.00    +0.130 C 
ATOM      4  C   UNL     1       8.868   0.361  24.502  0.00  0.00    +0.062 C 
ATOM      5  C   UNL     1       8.086  -0.674  25.343  0.00  0.00    +0.196 C 
ENDROOT
BRANCH   5   6
ATOM      6  N   UNL     1       6.988   0.115  25.875  0.00  0.00    -0.110 NA
ATOM      7  C   UNL     1       6.997   0.700  27.006  0.00  0.00    +0.377 C 
ATOM      8  N   UNL     1       6.028   1.603  27.279  0.00  0.00    -0.289 N 
ATOM      9  H   UNL     1       6.276   2.349  27.910  0.00  0.00    +0.255 HD
ATOM     10  H   UNL     1       5.569   1.929  26.436  0.00  0.00    +0.255 HD
ATOM     11  N   UNL     1       7.842   0.584  28.041  0.00  0.00    -0.289 N 
ATOM     12  H   UNL     1       8.184   1.439  28.451  0.00  0.00    +0.255 HD
ATOM     13  H   UNL     1       8.611  -0.081  27.941  0.00  0.00    +0.255 HD
ENDBRANCH   5   6
BRANCH   2  14
ATOM     14  O   UNL     1       9.760  -2.778  23.280  0.00  0.00    -0.391 OA
ATOM     15  H   UNL     1      10.267  -2.734  22.445  0.00  0.00    +0.210 HD
ENDBRANCH   2  14
BRANCH   3  16
ATOM     16  C   UNL     1       9.910   0.301  22.195  0.00  0.00    +0.310 C 
ATOM     17  O   UNL     1      10.235   1.471  22.087  0.00  0.00    -0.251 OA
BRANCH  16  18
ATOM     18  O   UNL     1       9.815  -0.517  21.114  0.00  0.00    -0.480 OA
ATOM     19  H   UNL     1      10.660  -0.631  20.629  0.00  0.00    +0.295 HD
ENDBRANCH  16  18
ENDBRANCH   3  16
BRANCH   1  20
ATOM     20  C   UNL     1       7.380  -3.189  24.840  0.00  0.00    +0.085 C 
BRANCH  20  21
ATOM     21  N   UNL     1       7.040  -4.091  23.720  0.00  0.00    -0.312 N 
ATOM     22  H   UNL     1       6.142  -3.927  23.278  0.00  0.00    +0.149 HD
ATOM     23  C   UNL     1       7.751  -5.208  23.366  0.00  0.00    +0.210 C 
ATOM     24  C   UNL     1       7.234  -5.921  22.149  0.00  0.00    +0.109 C 
ATOM     25  O   UNL     1       8.762  -5.587  23.945  0.00  0.00    -0.276 OA
ENDBRANCH  20  21
BRANCH  20  26
ATOM     26  C   UNL     1       6.193  -3.209  25.897  0.00  0.00    +0.009 C 
BRANCH  26  28
ATOM     27  C   UNL     1       7.291  -5.218  27.143  0.00  0.00    +0.004 C 
ATOM     28  C   UNL     1       6.015  -4.580  26.601  0.00  0.00    +0.002 C 
ENDBRANCH  26  28
BRANCH  26  29
ATOM     29  C   UNL     1       4.847  -2.695  25.307  0.00  0.00    +0.002 C 
ATOM     30  C   UNL     1       3.738  -3.744  25.306  0.00  0.00    +0.004 C 
ENDBRANCH  26  29
ENDBRANCH  20  26
ENDBRANCH   1  20
TORSDOF 9
ENDMDL
MODEL 6
REMARK VINA RESULT:      -5.3      4.661      6.278
REMARK  Name = 
REMARK  12 active torsions:
REMARK  status: ('A' for Active; 'I' for Inactive)
REMARK    1  A    between atoms: C_1  and  C_2
REMARK    2  A    between atoms: C_2  and  C_3
REMARK    3  A    between atoms: C_3  and  C_4
REMARK    4  A    between atoms: C_3  and  C_6
REMARK    5  A    between atoms: C_4  and  C_5
REMARK    6  A    between atoms: C_6  and  C_8
REMARK    7  A    between atoms: C_6  and  N_25
REMARK    8  A    between atoms: C_10  and  N_21
REMARK    9  A    between atoms: C_13  and  C_18
REMARK   10  A    between atoms: C_15  and  O_17
REMARK   11  A    between atoms: C_18  and  O_20
REMARK   12  A    between atoms: C_26  and  C_28
REMARK                            x       y       z     vdW  Elec       q    Type
REMARK                         _______ _______ _______ _____ _____    ______ ____
ROOT
ATOM      1  C   UNL     1       5.843  -4.816  25.945  0.00  0.00    +0.079 C 
ATOM      2  C   UNL     1       6.371  -5.491  27.246  0.00  0.00    +0.137 C 
ATOM      3  C   UNL     1       5.485  -6.693  27.558  0.00  0.00    +0.130 C 
ATOM      4  C   UNL     1       4.309  -6.570  26.616  0.00  0.00    +0.062 C 
ATOM      5  C   UNL     1       4.840  -5.844  25.359  0.00  0.00    +0.196 C 
ENDROOT
BRANCH   5   6
ATOM      6  N   UNL     1       3.631  -5.281  24.783  0.00  0.00    -0.110 NA
ATOM      7  C   UNL     1       3.033  -5.744  23.758  0.00  0.00    +0.377 C 
ATOM      8  N   UNL     1       1.791  -5.293  23.471  0.00  0.00    -0.289 N 
ATOM      9  H   UNL     1       1.180  -5.937  22.994  0.00  0.00    +0.255 HD
ATOM     10  H   UNL     1       1.357  -4.849  24.273  0.00  0.00    +0.255 HD
ATOM     11  N   UNL     1       3.427  -6.656  22.855  0.00  0.00    -0.289 N 
ATOM     12  H   UNL     1       2.770  -7.385  22.624  0.00  0.00    +0.255 HD
ATOM     13  H   UNL     1       4.357  -7.057  22.977  0.00  0.00    +0.255 HD
ENDBRANCH   5   6
BRANCH   2  14
ATOM     14  O   UNL     1       7.705  -6.009  27.163  0.00  0.00    -0.391 OA
ATOM     15  H   UNL     1       8.299  -5.252  27.338  0.00  0.00    +0.210 HD
ENDBRANCH   2  14
BRANCH   3  16
ATOM     16  C   UNL     1       5.104  -6.704  29.016  0.00  0.00    +0.310 C 
ATOM     17  O   UNL     1       4.167  -7.309  29.509  0.00  0.00    -0.251 OA
BRANCH  16  18
ATOM     18  O   UNL     1       5.987  -6.009  29.781  0.00  0.00    -0.480 OA
ATOM     19  H   UNL     1       6.890  -5.963  29.401  0.00  0.00    +0.295 HD
ENDBRANCH  16  18
ENDBRANCH   3  16
BRANCH   1  20
ATOM     20  C   UNL     1       6.965  -4.288  24.982  0.00  0.00    +0.085 C 
BRANCH  20  21
ATOM     21  N   UNL     1       7.377  -2.927  25.381  0.00  0.00    -0.312 N 
ATOM     22  H   UNL     1       6.915  -2.165  24.896  0.00  0.00    +0.149 HD
ATOM     23  C   UNL     1       8.431  -2.635  26.209  0.00  0.00    +0.210 C 
ATOM     24  C   UNL     1       8.603  -1.174  26.513  0.00  0.00    +0.109 C 
ATOM     25  O   UNL     1       9.157  -3.482  26.716  0.00  0.00    -0.276 OA
ENDBRANCH  20  21
BRANCH  20  26
ATOM     26  C   UNL     1       6.512  -4.263  23.458  0.00  0.00    +0.009 C 
BRANCH  26  28
ATOM     27  C   UNL     1       6.520  -5.785  21.343  0.00  0.00    +0.004 C 
ATOM     28  C   UNL     1       7.274  -5.281  22.570  0.00  0.00    +0.002 C 
ENDBRANCH  26  28
BRANCH  26  29
ATOM     29  C   UNL     1       6.543  -2.834  22.840  0.00  0.00    +0.002 C 
ATOM     30  C   UNL     1       7.886  -2.469  22.209  0.00  0.00    +0.004 C 
ENDBRANCH  26  29
ENDBRANCH  20  26
ENDBRANCH   1  20
TORSDOF 9
ENDMDL
MODEL 7
REMARK VINA RESULT:      -5.2      2.469      5.074
REMARK  Name = 
REMARK  12 active torsions:
REMARK  status: ('A' for Active; 'I' for Inactive)
REMARK    1  A    between atoms: C_1  and  C_2
REMARK    2  A    between atoms: C_2  and  C_3
REMARK    3  A    between atoms: C_3  and  C_4
REMARK    4  A    between atoms: C_3  and  C_6
REMARK    5  A    between atoms: C_4  and  C_5
REMARK    6  A    between atoms: C_6  and  C_8
REMARK    7  A    between atoms: C_6  and  N_25
REMARK    8  A    between atoms: C_10  and  N_21
REMARK    9  A    between atoms: C_13  and  C_18
REMARK   10  A    between atoms: C_15  and  O_17
REMARK   11  A    between atoms: C_18  and  O_20
REMARK   12  A    between atoms: C_26  and  C_28
REMARK                            x       y       z     vdW  Elec       q    Type
REMARK                         _______ _______ _______ _____ _____    ______ ____
ROOT
ATOM      1  C   UNL     1       7.512  -1.471  24.401  0.00  0.00    +0.079 C 
ATOM      2  C   UNL     1       7.755  -0.217  23.509  0.00  0.00    +0.137 C 
ATOM      3  C   UNL     1       9.034  -0.439  22.706  0.00  0.00    +0.130 C 
ATOM      4  C   UNL     1       9.667  -1.673  23.307  0.00  0.00    +0.062 C 
ATOM      5  C   UNL     1       8.502  -2.531  23.851  0.00  0.00    +0.196 C 
ENDROOT
BRANCH   5   6
ATOM      6  N   UNL     1       9.156  -3.356  24.853  0.00  0.00    -0.110 NA
ATOM      7  C   UNL     1       9.181  -4.629  24.839  0.00  0.00    +0.377 C 
ATOM      8  N   UNL     1      10.027  -5.272  25.675  0.00  0.00    -0.289 N 
ATOM      9  H   UNL     1      10.370  -6.167  25.364  0.00  0.00    +0.255 HD
ATOM     10  H   UNL     1      10.760  -4.658  26.014  0.00  0.00    +0.255 HD
ATOM     11  N   UNL     1       8.484  -5.508  24.102  0.00  0.00    -0.289 N 
ATOM     12  H   UNL     1       9.004  -6.253  23.665  0.00  0.00    +0.255 HD
ATOM     13  H   UNL     1       7.808  -5.125  23.440  0.00  0.00    +0.255 HD
ENDBRANCH   5   6
BRANCH   2  14
ATOM     14  O   UNL     1       6.734   0.046  22.540  0.00  0.00    -0.391 OA
ATOM     15  H   UNL     1       6.735   1.014  22.403  0.00  0.00    +0.210 HD
ENDBRANCH   2  14
BRANCH   3  16
ATOM     16  C   UNL     1       9.909   0.787  22.759  0.00  0.00    +0.310 C 
ATOM     17  O   UNL     1      10.634   1.111  23.683  0.00  0.00    -0.251 OA
BRANCH  16  18
ATOM     18  O   UNL     1       9.876   1.490  21.596  0.00  0.00    -0.480 OA
ATOM     19  H   UNL     1      10.061   0.948  20.800  0.00  0.00    +0.295 HD
ENDBRANCH  16  18
ENDBRANCH   3  16
BRANCH   1  20
ATOM     20  C   UNL     1       6.007  -1.901  24.527  0.00  0.00    +0.085 C 
BRANCH  20  21
ATOM     21  N   UNL     1       5.601  -1.911  25.948  0.00  0.00    -0.312 N 
ATOM     22  H   UNL     1       5.774  -2.775  26.451  0.00  0.00    +0.149 HD
ATOM     23  C   UNL     1       4.869  -0.929  26.564  0.00  0.00    +0.210 C 
ATOM     24  C   UNL     1       4.641  -1.145  28.033  0.00  0.00    +0.109 C 
ATOM     25  O   UNL     1       4.467   0.081  25.998  0.00  0.00    -0.276 OA
ENDBRANCH  20  21
BRANCH  20  26
ATOM     26  C   UNL     1       5.716  -3.331  23.897  0.00  0.00    +0.009 C 
BRANCH  26  28
ATOM     27  C   UNL     1       6.136  -4.386  21.552  0.00  0.00    +0.004 C 
ATOM     28  C   UNL     1       5.456  -3.292  22.369  0.00  0.00    +0.002 C 
ENDBRANCH  26  28
BRANCH  26  29
ATOM     29  C   UNL     1       4.591  -4.105  24.646  0.00  0.00    +0.002 C 
ATOM     30  C   UNL     1       5.049  -5.441  25.226  0.00  0.00    +0.004 C 
ENDBRANCH  26  29
ENDBRANCH  20  26
ENDBRANCH   1  20
TORSDOF 9
ENDMDL
MODEL 8
REMARK VINA RESULT:      -5.2      5.797      8.170
REMARK  Name = 
REMARK  12 active torsions:
REMARK  status: ('A' for Active; 'I' for Inactive)
REMARK    1  A    between atoms: C_1  and  C_2
REMARK    2  A    between atoms: C_2  and  C_3
REMARK    3  A    between atoms: C_3  and  C_4
REMARK    4  A    between atoms: C_3  and  C_6
REMARK    5  A    between atoms: C_4  and  C_5
REMARK    6  A    between atoms: C_6  and  C_8
REMARK    7  A    between atoms: C_6  and  N_25
REMARK    8  A    between atoms: C_10  and  N_21
REMARK    9  A    between atoms: C_13  and  C_18
REMARK   10  A    between atoms: C_15  and  O_17
REMARK   11  A    between atoms: C_18  and  O_20
REMARK   12  A    between atoms: C_26  and  C_28
REMARK                            x       y       z     vdW  Elec       q    Type
REMARK                         _______ _______ _______ _____ _____    ______ ____
ROOT
ATOM      1  C   UNL     1       9.456   4.244  24.420  0.00  0.00    +0.079 C 
ATOM      2  C   UNL     1      10.406   5.391  23.963  0.00  0.00    +0.137 C 
ATOM      3  C   UNL     1      11.524   4.782  23.122  0.00  0.00    +0.130 C 
ATOM      4  C   UNL     1      11.384   3.288  23.303  0.00  0.00    +0.062 C 
ATOM      5  C   UNL     1       9.883   3.025  23.560  0.00  0.00    +0.196 C 
ENDROOT
BRANCH   5   6
ATOM      6  N   UNL     1       9.898   1.746  24.249  0.00  0.00    -0.110 NA
ATOM      7  C   UNL     1      10.009   0.615  23.675  0.00  0.00    +0.377 C 
ATOM      8  N   UNL     1      10.263  -0.476  24.431  0.00  0.00    -0.289 N 
ATOM      9  H   UNL     1      10.780  -1.219  23.987  0.00  0.00    +0.255 HD
ATOM     10  H   UNL     1      10.627  -0.225  25.343  0.00  0.00    +0.255 HD
ATOM     11  N   UNL     1       9.919   0.282  22.378  0.00  0.00    -0.289 N 
ATOM     12  H   UNL     1      10.643  -0.314  22.007  0.00  0.00    +0.255 HD
ATOM     13  H   UNL     1       9.722   1.036  21.718  0.00  0.00    +0.255 HD
ENDBRANCH   5   6
BRANCH   2  14
ATOM     14  O   UNL     1       9.799   6.387  23.131  0.00  0.00    -0.391 OA
ATOM     15  H   UNL     1       9.528   7.110  23.731  0.00  0.00    +0.210 HD
ENDBRANCH   2  14
BRANCH   3  16
ATOM     16  C   UNL     1      12.863   5.329  23.548  0.00  0.00    +0.310 C 
ATOM     17  O   UNL     1      13.940   5.060  23.046  0.00  0.00    -0.251 OA
BRANCH  16  18
ATOM     18  O   UNL     1      12.747   6.252  24.539  0.00  0.00    -0.480 OA
ATOM     19  H   UNL     1      11.892   6.211  25.020  0.00  0.00    +0.295 HD
ENDBRANCH  16  18
ENDBRANCH   3  16
BRANCH   1  20
ATOM     20  C   UNL     1       7.931   4.618  24.416  0.00  0.00    +0.085 C 
BRANCH  20  21
ATOM     21  N   UNL     1       7.242   3.947  25.538  0.00  0.00    -0.312 N 
ATOM     22  H   UNL     1       6.603   3.202  25.283  0.00  0.00    +0.149 HD
ATOM     23  C   UNL     1       7.272   4.367  26.843  0.00  0.00    +0.210 C 
ATOM     24  C   UNL     1       6.541   3.475  27.805  0.00  0.00    +0.109 C 
ATOM     25  O   UNL     1       7.882   5.357  27.229  0.00  0.00    -0.276 OA
ENDBRANCH  20  21
BRANCH  20  26
ATOM     26  C   UNL     1       7.202   4.231  23.058  0.00  0.00    +0.009 C 
BRANCH  26  28
ATOM     27  C   UNL     1       6.182   6.624  23.222  0.00  0.00    +0.004 C 
ATOM     28  C   UNL     1       6.561   5.443  22.333  0.00  0.00    +0.002 C 
ENDBRANCH  26  28
BRANCH  26  29
ATOM     29  C   UNL     1       6.181   3.067  23.228  0.00  0.00    +0.002 C 
ATOM     30  C   UNL     1       6.576   1.793  22.484  0.00  0.00    +0.004 C 
ENDBRANCH  26  29
ENDBRANCH  20  26
ENDBRANCH   1  20
TORSDOF 9
ENDMDL
MODEL 9
REMARK VINA RESULT:      -5.2      2.703      4.541
REMARK  Name = 
REMARK  12 active torsions:
REMARK  status: ('A' for Active; 'I' for Inactive)
REMARK    1  A    between atoms: C_1  and  C_2
REMARK    2  A    between atoms: C_2  and  C_3
REMARK    3  A    between atoms: C_3  and  C_4
REMARK    4  A    between atoms: C_3  and  C_6
REMARK    5  A    between atoms: C_4  and  C_5
REMARK    6  A    between atoms: C_6  and  C_8
REMARK    7  A    between atoms: C_6  and  N_25
REMARK    8  A    between atoms: C_10  and  N_21
REMARK    9  A    between atoms: C_13  and  C_18
REMARK   10  A    between atoms: C_15  and  O_17
REMARK   11  A    between atoms: C_18  and  O_20
REMARK   12  A    between atoms: C_26  and  C_28
REMARK                            x       y       z     vdW  Elec       q    Type
REMARK                         _______ _______ _______ _____ _____    ______ ____
ROOT
ATOM      1  C   UNL     1       6.847  -3.150  24.188  0.00  0.00    +0.079 C 
ATOM      2  C   UNL     1       6.349  -4.589  23.862  0.00  0.00    +0.137 C 
ATOM      3  C   UNL     1       6.994  -5.035  22.553  0.00  0.00    +0.130 C 
ATOM      4  C   UNL     1       7.642  -3.791  21.989  0.00  0.00    +0.062 C 
ATOM      5  C   UNL     1       8.025  -2.919  23.206  0.00  0.00    +0.196 C 
ENDROOT
BRANCH   5   6
ATOM      6  N   UNL     1       8.108  -1.588  22.628  0.00  0.00    -0.110 NA
ATOM      7  C   UNL     1       9.152  -1.093  22.093  0.00  0.00    +0.377 C 
ATOM      8  N   UNL     1       9.037   0.044  21.372  0.00  0.00    -0.289 N 
ATOM      9  H   UNL     1       9.698   0.166  20.620  0.00  0.00    +0.255 HD
ATOM     10  H   UNL     1       8.078   0.217  21.093  0.00  0.00    +0.255 HD
ATOM     11  N   UNL     1      10.425  -1.518  22.109  0.00  0.00    -0.289 N 
ATOM     12  H   UNL     1      10.910  -1.543  21.225  0.00  0.00    +0.255 HD
ATOM     13  H   UNL     1      10.624  -2.370  22.635  0.00  0.00    +0.255 HD
ENDBRANCH   5   6
BRANCH   2  14
ATOM     14  O   UNL     1       6.705  -5.588  24.825  0.00  0.00    -0.391 OA
ATOM     15  H   UNL     1       7.357  -5.168  25.421  0.00  0.00    +0.210 HD
ENDBRANCH   2  14
BRANCH   3  16
ATOM     16  C   UNL     1       5.965  -5.656  21.643  0.00  0.00    +0.310 C 
ATOM     17  O   UNL     1       5.975  -5.630  20.424  0.00  0.00    -0.251 OA
BRANCH  16  18
ATOM     18  O   UNL     1       5.020  -6.348  22.334  0.00  0.00    -0.480 OA
ATOM     19  H   UNL     1       5.376  -7.118  22.827  0.00  0.00    +0.295 HD
ENDBRANCH  16  18
ENDBRANCH   3  16
BRANCH   1  20
ATOM     20  C   UNL     1       7.128  -2.885  25.710  0.00  0.00    +0.085 C 
BRANCH  20  21
ATOM     21  N   UNL     1       5.988  -3.355  26.525  0.00  0.00    -0.312 N 
ATOM     22  H   UNL     1       5.129  -2.824  26.432  0.00  0.00    +0.149 HD
ATOM     23  C   UNL     1       6.062  -4.318  27.499  0.00  0.00    +0.210 C 
ATOM     24  C   UNL     1       4.748  -4.662  28.139  0.00  0.00    +0.109 C 
ATOM     25  O   UNL     1       7.093  -4.904  27.804  0.00  0.00    -0.276 OA
ENDBRANCH  20  21
BRANCH  20  26
ATOM     26  C   UNL     1       7.396  -1.352  26.034  0.00  0.00    +0.009 C 
BRANCH  26  28
ATOM     27  C   UNL     1       9.622  -0.086  25.554  0.00  0.00    +0.004 C 
ATOM     28  C   UNL     1       8.859  -1.054  26.452  0.00  0.00    +0.002 C 
ENDBRANCH  26  28
BRANCH  26  29
ATOM     29  C   UNL     1       6.381  -0.763  27.058  0.00  0.00    +0.002 C 
ATOM     30  C   UNL     1       6.176   0.744  26.919  0.00  0.00    +0.004 C 
ENDBRANCH  26  29
ENDBRANCH  20  26
ENDBRANCH   1  20
TORSDOF 9
ENDMDL
