MODEL 1
REMARK VINA RESULT:      -6.0      0.000      0.000
REMARK  Name = 
REMARK  4 active torsions:
REMARK  status: ('A' for Active; 'I' for Inactive)
REMARK    1  A    between atoms: C3*_2  and  O3*_20
REMARK    2  A    between atoms: C4*_4  and  C5*_18
REMARK    3  A    between atoms: C1*_7  and  N_9
REMARK    4  A    between atoms: C5*_18  and  O5*_19
REMARK                            x       y       z     vdW  Elec       q    Type
REMARK                         _______ _______ _______ _____ _____    ______ ____
ROOT
ATOM      1  C2* UNL     1       7.713  -2.099  23.288  0.00  0.00    +0.088 C 
ATOM      2  C1* UNL     1       8.762  -3.046  23.864  0.00  0.00    +0.226 C 
ATOM      3  O4* UNL     1       9.898  -2.249  24.267  0.00  0.00    -0.348 OA
ATOM      4  C4* UNL     1       9.632  -0.885  23.883  0.00  0.00    +0.175 C 
ATOM      5  C3* UNL     1       8.113  -0.761  23.867  0.00  0.00    +0.150 C 
ENDROOT
BRANCH   2   6
ATOM      6  N   UNL     1       8.274  -3.842  24.988  0.00  0.00    -0.273 N 
ATOM      7  C   UNL     1       9.043  -4.931  25.374  0.00  0.00    +0.331 A 
ATOM      8  O   UNL     1      10.086  -5.268  24.818  0.00  0.00    -0.246 OA
ATOM      9  N   UNL     1       8.571  -5.641  26.447  0.00  0.00    -0.274 N 
ATOM     10  H   UNL     1       9.137  -6.413  26.764  0.00  0.00    +0.173 HD
ATOM     11  C   UNL     1       7.439  -5.370  27.167  0.00  0.00    +0.267 A 
ATOM     12  O   UNL     1       7.151  -6.031  28.160  0.00  0.00    -0.267 OA
ATOM     13  C   UNL     1       6.609  -4.245  26.661  0.00  0.00    +0.094 A 
ATOM     14  I   UNL     1       4.843  -3.777  27.576  0.00  0.00    -0.037 I 
ATOM     15  C   UNL     1       7.070  -3.558  25.608  0.00  0.00    +0.113 A 
ENDBRANCH   2   6
BRANCH   5  16
ATOM     16  O3* UNL     1       7.642   0.324  23.086  0.00  0.00    -0.389 OA
ATOM     17  H3* UNL     1       6.823   0.064  22.632  0.00  0.00    +0.210 HD
ENDBRANCH   5  16
BRANCH   4  18
ATOM     18  C5* UNL     1      10.339   0.087  24.824  0.00  0.00    +0.190 C 
BRANCH  18  19
ATOM     19  O5* UNL     1       9.439   1.067  25.339  0.00  0.00    -0.392 OA
ATOM     20  H5* UNL     1       8.657   1.041  24.760  0.00  0.00    +0.210 HD
ENDBRANCH  18  19
ENDBRANCH   4  18
TORSDOF 4
ENDMDL
MODEL 2
REMARK VINA RESULT:      -5.9      2.048      2.584
REMARK  Name = 
REMARK  4 active torsions:
REMARK  status: ('A' for Active; 'I' for Inactive)
REMARK    1  A    between atoms: C3*_2  and  O3*_20
REMARK    2  A    between atoms: C4*_4  and  C5*_18
REMARK    3  A    between atoms: C1*_7  and  N_9
REMARK    4  A    between atoms: C5*_18  and  O5*_19
REMARK                            x       y       z     vdW  Elec       q    Type
REMARK                         _______ _______ _______ _____ _____    ______ ____
ROOT
ATOM      1  C2* UNL     1       6.775  -4.975  22.549  0.00  0.00    +0.088 C 
ATOM      2  C1* UNL     1       7.927  -4.827  23.539  0.00  0.00    +0.226 C 
ATOM      3  O4* UNL     1       8.404  -3.466  23.458  0.00  0.00    -0.348 OA
ATOM      4  C4* UNL     1       7.665  -2.807  22.409  0.00  0.00    +0.175 C 
ATOM      5  C3* UNL     1       6.334  -3.545  22.329  0.00  0.00    +0.150 C 
ENDROOT
BRANCH   2   6
ATOM      6  N   UNL     1       7.559  -5.156  24.915  0.00  0.00    -0.273 N 
ATOM      7  C   UNL     1       8.594  -5.350  25.818  0.00  0.00    +0.331 A 
ATOM      8  O   UNL     1       9.785  -5.280  25.525  0.00  0.00    -0.246 OA
ATOM      9  N   UNL     1       8.215  -5.632  27.105  0.00  0.00    -0.274 N 
ATOM     10  H   UNL     1       8.954  -5.738  27.782  0.00  0.00    +0.173 HD
ATOM     11  C   UNL     1       6.931  -5.724  27.573  0.00  0.00    +0.267 A 
ATOM     12  O   UNL     1       6.707  -5.908  28.765  0.00  0.00    -0.267 OA
ATOM     13  C   UNL     1       5.862  -5.590  26.548  0.00  0.00    +0.094 A 
ATOM     14  I   UNL     1       3.900  -5.795  27.077  0.00  0.00    -0.037 I 
ATOM     15  C   UNL     1       6.237  -5.322  25.291  0.00  0.00    +0.113 A 
ENDBRANCH   2   6
BRANCH   5  16
ATOM     16  O3* UNL     1       5.665  -3.374  21.092  0.00  0.00    -0.389 OA
ATOM     17  H3* UNL     1       5.741  -2.448  20.808  0.00  0.00    +0.210 HD
ENDBRANCH   5  16
BRANCH   4  18
ATOM     18  C5* UNL     1       7.547  -1.311  22.690  0.00  0.00    +0.190 C 
BRANCH  18  19
ATOM     19  O5* UNL     1       6.203  -0.940  22.992  0.00  0.00    -0.392 OA
ATOM     20  H5* UNL     1       5.680  -1.759  22.937  0.00  0.00    +0.210 HD
ENDBRANCH  18  19
ENDBRANCH   4  18
TORSDOF 4
ENDMDL
MODEL 3
REMARK VINA RESULT:      -5.7      1.875      2.359
REMARK  Name = 
REMARK  4 active torsions:
REMARK  status: ('A' for Active; 'I' for Inactive)
REMARK    1  A    between atoms: C3*_2  and  O3*_20
REMARK    2  A    between atoms: C4*_4  and  C5*_18
REMARK    3  A    between atoms: C1*_7  and  N_9
REMARK    4  A    between atoms: C5*_18  and  O5*_19
REMARK                            x       y       z     vdW  Elec       q    Type
REMARK                         _______ _______ _______ _____ _____    ______ ____
ROOT
ATOM      1  C2* UNL     1       9.801  -2.783  23.854  0.00  0.00    +0.088 C 
ATOM      2  C1* UNL     1       8.884  -2.536  25.049  0.00  0.00    +0.226 C 
ATOM      3  O4* UNL     1       8.147  -1.320  24.792  0.00  0.00    -0.348 OA
ATOM      4  C4* UNL     1       8.634  -0.769  23.551  0.00  0.00    +0.175 C 
ATOM      5  C3* UNL     1       9.157  -1.961  22.760  0.00  0.00    +0.150 C 
ENDROOT
BRANCH   2   6
ATOM      6  N   UNL     1       7.965  -3.641  25.317  0.00  0.00    -0.273 N 
ATOM      7  C   UNL     1       8.394  -4.620  26.201  0.00  0.00    +0.331 A 
ATOM      8  O   UNL     1       9.493  -4.620  26.748  0.00  0.00    -0.246 OA
ATOM      9  N   UNL     1       7.499  -5.628  26.450  0.00  0.00    -0.274 N 
ATOM     10  H   UNL     1       7.779  -6.328  27.119  0.00  0.00    +0.173 HD
ATOM     11  C   UNL     1       6.239  -5.746  25.925  0.00  0.00    +0.267 A 
ATOM     12  O   UNL     1       5.493  -6.654  26.277  0.00  0.00    -0.267 OA
ATOM     13  C   UNL     1       5.862  -4.717  24.921  0.00  0.00    +0.094 A 
ATOM     14  I   UNL     1       4.051  -4.811  23.982  0.00  0.00    -0.037 I 
ATOM     15  C   UNL     1       6.742  -3.738  24.675  0.00  0.00    +0.113 A 
ENDBRANCH   2   6
BRANCH   5  16
ATOM     16  O3* UNL     1      10.079  -1.606  21.744  0.00  0.00    -0.389 OA
ATOM     17  H3* UNL     1      10.981  -1.820  22.036  0.00  0.00    +0.210 HD
ENDBRANCH   5  16
BRANCH   4  18
ATOM     18  C5* UNL     1       7.537   0.028  22.849  0.00  0.00    +0.190 C 
BRANCH  18  19
ATOM     19  O5* UNL     1       6.299  -0.681  22.837  0.00  0.00    -0.392 OA
ATOM     20  H5* UNL     1       6.450  -1.490  23.357  0.00  0.00    +0.210 HD
ENDBRANCH  18  19
ENDBRANCH   4  18
TORSDOF 4
ENDMDL
MODEL 4
REMARK VINA RESULT:      -5.7      3.542      5.457
REMARK  Name = 
REMARK  4 active torsions:
REMARK  status: ('A' for Active; 'I' for Inactive)
REMARK    1  A    between atoms: C3*_2  and  O3*_20
REMARK    2  A    between atoms: C4*_4  and  C5*_18
REMARK    3  A    between atoms: C1*_7  and  N_9
REMARK    4  A    between atoms: C5*_18  and  O5*_19
REMARK                            x       y       z     vdW  Elec       q    Type
REMARK                         _______ _______ _______ _____ _____    ______ ____
ROOT
ATOM      1  C2* UNL     1       5.792  -3.757  24.068  0.00  0.00    +0.088 C 
ATOM      2  C1* UNL     1       7.298  -3.994  24.136  0.00  0.00    +0.226 C 
ATOM      3  O4* UNL     1       7.624  -5.025  23.176  0.00  0.00    -0.348 OA
ATOM      4  C4* UNL     1       6.387  -5.488  22.597  0.00  0.00    +0.175 C 
ATOM      5  C3* UNL     1       5.425  -4.312  22.710  0.00  0.00    +0.150 C 
ENDROOT
BRANCH   2   6
ATOM      6  N   UNL     1       8.089  -2.792  23.880  0.00  0.00    -0.273 N 
ATOM      7  C   UNL     1       9.464  -2.893  24.045  0.00  0.00    +0.331 A 
ATOM      8  O   UNL     1      10.041  -3.915  24.405  0.00  0.00    -0.246 OA
ATOM      9  N   UNL     1      10.178  -1.755  23.772  0.00  0.00    -0.274 N 
ATOM     10  H   UNL     1      11.182  -1.820  23.850  0.00  0.00    +0.173 HD
ATOM     11  C   UNL     1       9.670  -0.556  23.349  0.00  0.00    +0.267 A 
ATOM     12  O   UNL     1      10.413   0.377  23.062  0.00  0.00    -0.267 OA
ATOM     13  C   UNL     1       8.187  -0.479  23.269  0.00  0.00    +0.094 A 
ATOM     14  I   UNL     1       7.276   1.271  22.740  0.00  0.00    -0.037 I 
ATOM     15  C   UNL     1       7.492  -1.590  23.543  0.00  0.00    +0.113 A 
ENDBRANCH   2   6
BRANCH   5  16
ATOM     16  O3* UNL     1       4.060  -4.687  22.635  0.00  0.00    -0.389 OA
ATOM     17  H3* UNL     1       3.992  -5.592  22.288  0.00  0.00    +0.210 HD
ENDBRANCH   5  16
BRANCH   4  18
ATOM     18  C5* UNL     1       6.613  -5.990  21.173  0.00  0.00    +0.190 C 
BRANCH  18  19
ATOM     19  O5* UNL     1       5.895  -5.206  20.221  0.00  0.00    -0.392 OA
ATOM     20  H5* UNL     1       5.882  -4.300  20.577  0.00  0.00    +0.210 HD
ENDBRANCH  18  19
ENDBRANCH   4  18
TORSDOF 4
ENDMDL
MODEL 5
REMARK VINA RESULT:      -5.5      2.763      5.654
REMARK  Name = 
REMARK  4 active torsions:
REMARK  status: ('A' for Active; 'I' for Inactive)
REMARK    1  A    between atoms: C3*_2  and  O3*_20
REMARK    2  A    between atoms: C4*_4  and  C5*_18
REMARK    3  A    between atoms: C1*_7  and  N_9
REMARK    4  A    between atoms: C5*_18  and  O5*_19
REMARK                            x       y       z     vdW  Elec       q    Type
REMARK                         _______ _______ _______ _____ _____    ______ ____
ROOT
ATOM      1  C2* UNL     1       9.413  -4.086  24.345  0.00  0.00    +0.088 C 
ATOM      2  C1* UNL     1       8.051  -3.794  23.721  0.00  0.00    +0.226 C 
ATOM      3  O4* UNL     1       7.047  -4.427  24.545  0.00  0.00    -0.348 OA
ATOM      4  C4* UNL     1       7.732  -5.162  25.580  0.00  0.00    +0.175 C 
ATOM      5  C3* UNL     1       9.061  -4.443  25.771  0.00  0.00    +0.150 C 
ENDROOT
BRANCH   2   6
ATOM      6  N   UNL     1       7.768  -2.367  23.581  0.00  0.00    -0.273 N 
ATOM      7  C   UNL     1       6.513  -2.014  23.105  0.00  0.00    +0.331 A 
ATOM      8  O   UNL     1       5.647  -2.824  22.782  0.00  0.00    -0.246 OA
ATOM      9  N   UNL     1       6.271  -0.669  23.009  0.00  0.00    -0.274 N 
ATOM     10  H   UNL     1       5.351  -0.394  22.701  0.00  0.00    +0.173 HD
ATOM     11  C   UNL     1       7.134   0.339  23.347  0.00  0.00    +0.267 A 
ATOM     12  O   UNL     1       6.783   1.514  23.292  0.00  0.00    -0.267 OA
ATOM     13  C   UNL     1       8.492  -0.092  23.773  0.00  0.00    +0.094 A 
ATOM     14  I   UNL     1       9.919   1.298  24.223  0.00  0.00    -0.037 I 
ATOM     15  C   UNL     1       8.727  -1.407  23.858  0.00  0.00    +0.113 A 
ENDBRANCH   2   6
BRANCH   5  16
ATOM     16  O3* UNL     1      10.056  -5.245  26.385  0.00  0.00    -0.389 OA
ATOM     17  H3* UNL     1       9.638  -5.845  27.024  0.00  0.00    +0.210 HD
ENDBRANCH   5  16
BRANCH   4  18
ATOM     18  C5* UNL     1       6.871  -5.252  26.837  0.00  0.00    +0.190 C 
BRANCH  18  19
ATOM     19  O5* UNL     1       7.530  -5.978  27.873  0.00  0.00    -0.392 OA
ATOM     20  H5* UNL     1       6.950  -6.731  28.082  0.00  0.00    +0.210 HD
ENDBRANCH  18  19
ENDBRANCH   4  18
TORSDOF 4
ENDMDL
MODEL 6
REMARK VINA RESULT:      -5.4      2.268      3.083
REMARK  Name = 
REMARK  4 active torsions:
REMARK  status: ('A' for Active; 'I' for Inactive)
REMARK    1  A    between atoms: C3*_2  and  O3*_20
REMARK    2  A    between atoms: C4*_4  and  C5*_18
REMARK    3  A    between atoms: C1*_7  and  N_9
REMARK    4  A    between atoms: C5*_18  and  O5*_19
REMARK                            x       y       z     vdW  Elec       q    Type
REMARK                         _______ _______ _______ _____ _____    ______ ____
ROOT
ATOM      1  C2* UNL     1      10.197   0.120  22.544  0.00  0.00    +0.088 C 
ATOM      2  C1* UNL     1      10.202  -0.266  24.021  0.00  0.00    +0.226 C 
ATOM      3  O4* UNL     1      10.008   0.941  24.791  0.00  0.00    -0.348 OA
ATOM      4  C4* UNL     1       9.977   2.047  23.867  0.00  0.00    +0.175 C 
ATOM      5  C3* UNL     1       9.491   1.458  22.549  0.00  0.00    +0.150 C 
ENDROOT
BRANCH   2   6
ATOM      6  N   UNL     1       9.187  -1.260  24.367  0.00  0.00    -0.273 N 
ATOM      7  C   UNL     1       9.457  -2.581  24.041  0.00  0.00    +0.331 A 
ATOM      8  O   UNL     1      10.479  -2.954  23.470  0.00  0.00    -0.246 OA
ATOM      9  N   UNL     1       8.497  -3.490  24.402  0.00  0.00    -0.274 N 
ATOM     10  H   UNL     1       8.694  -4.459  24.207  0.00  0.00    +0.173 HD
ATOM     11  C   UNL     1       7.324  -3.218  25.054  0.00  0.00    +0.267 A 
ATOM     12  O   UNL     1       6.569  -4.123  25.396  0.00  0.00    -0.267 OA
ATOM     13  C   UNL     1       7.045  -1.779  25.305  0.00  0.00    +0.094 A 
ATOM     14  I   UNL     1       5.294  -1.209  26.188  0.00  0.00    -0.037 I 
ATOM     15  C   UNL     1       7.983  -0.894  24.944  0.00  0.00    +0.113 A 
ENDBRANCH   2   6
BRANCH   5  16
ATOM     16  O3* UNL     1       9.825   2.244  21.419  0.00  0.00    -0.389 OA
ATOM     17  H3* UNL     1       9.750   1.703  20.615  0.00  0.00    +0.210 HD
ENDBRANCH   5  16
BRANCH   4  18
ATOM     18  C5* UNL     1       9.114   3.182  24.413  0.00  0.00    +0.190 C 
BRANCH  18  19
ATOM     19  O5* UNL     1       8.325   3.780  23.386  0.00  0.00    -0.392 OA
ATOM     20  H5* UNL     1       8.721   4.653  23.219  0.00  0.00    +0.210 HD
ENDBRANCH  18  19
ENDBRANCH   4  18
TORSDOF 4
ENDMDL
MODEL 7
REMARK VINA RESULT:      -5.4      3.088      3.252
REMARK  Name = 
REMARK  4 active torsions:
REMARK  status: ('A' for Active; 'I' for Inactive)
REMARK    1  A    between atoms: C3*_2  and  O3*_20
REMARK    2  A    between atoms: C4*_4  and  C5*_18
REMARK    3  A    between atoms: C1*_7  and  N_9
REMARK    4  A    between atoms: C5*_18  and  O5*_19
REMARK                            x       y       z     vdW  Elec       q    Type
REMARK                         _______ _______ _______ _____ _____    ______ ____
ROOT
ATOM      1  C2* UNL     1       6.584  -2.555  22.239  0.00  0.00    +0.088 C 
ATOM      2  C1* UNL     1       7.256  -3.888  22.558  0.00  0.00    +0.226 C 
ATOM      3  O4* UNL     1       8.362  -3.619  23.448  0.00  0.00    -0.348 OA
ATOM      4  C4* UNL     1       8.452  -2.189  23.611  0.00  0.00    +0.175 C 
ATOM      5  C3* UNL     1       7.041  -1.667  23.374  0.00  0.00    +0.150 C 
ENDROOT
BRANCH   2   6
ATOM      6  N   UNL     1       6.351  -4.869  23.153  0.00  0.00    -0.273 N 
ATOM      7  C   UNL     1       5.646  -5.689  22.284  0.00  0.00    +0.331 A 
ATOM      8  O   UNL     1       5.725  -5.624  21.059  0.00  0.00    -0.246 OA
ATOM      9  N   UNL     1       4.826  -6.615  22.874  0.00  0.00    -0.274 N 
ATOM     10  H   UNL     1       4.335  -7.244  22.258  0.00  0.00    +0.173 HD
ATOM     11  C   UNL     1       4.653  -6.809  24.219  0.00  0.00    +0.267 A 
ATOM     12  O   UNL     1       3.948  -7.721  24.638  0.00  0.00    -0.267 OA
ATOM     13  C   UNL     1       5.367  -5.850  25.104  0.00  0.00    +0.094 A 
ATOM     14  I   UNL     1       5.136  -5.954  27.130  0.00  0.00    -0.037 I 
ATOM     15  C   UNL     1       6.161  -4.943  24.522  0.00  0.00    +0.113 A 
ENDBRANCH   2   6
BRANCH   5  16
ATOM     16  O3* UNL     1       6.995  -0.292  23.031  0.00  0.00    -0.389 OA
ATOM     17  H3* UNL     1       6.078  -0.038  22.836  0.00  0.00    +0.210 HD
ENDBRANCH   5  16
BRANCH   4  18
ATOM     18  C5* UNL     1       9.038  -1.838  24.977  0.00  0.00    +0.190 C 
BRANCH  18  19
ATOM     19  O5* UNL     1       8.192  -0.943  25.696  0.00  0.00    -0.392 OA
ATOM     20  H5* UNL     1       7.580  -0.568  25.038  0.00  0.00    +0.210 HD
ENDBRANCH  18  19
ENDBRANCH   4  18
TORSDOF 4
ENDMDL
MODEL 8
REMARK VINA RESULT:      -5.3      2.826      3.815
REMARK  Name = 
REMARK  4 active torsions:
REMARK  status: ('A' for Active; 'I' for Inactive)
REMARK    1  A    between atoms: C3*_2  and  O3*_20
REMARK    2  A    between atoms: C4*_4  and  C5*_18
REMARK    3  A    between atoms: C1*_7  and  N_9
REMARK    4  A    between atoms: C5*_18  and  O5*_19
REMARK                            x       y       z     vdW  Elec       q    Type
REMARK                         _______ _______ _______ _____ _____    ______ ____
ROOT
ATOM      1  C2* UNL     1      10.310   0.400  23.351  0.00  0.00    +0.088 C 
ATOM      2  C1* UNL     1       9.701   0.353  24.750  0.00  0.00    +0.226 C 
ATOM      3  O4* UNL     1       9.042   1.618  24.983  0.00  0.00    -0.348 OA
ATOM      4  C4* UNL     1       9.298   2.460  23.841  0.00  0.00    +0.175 C 
ATOM      5  C3* UNL     1       9.524   1.502  22.678  0.00  0.00    +0.150 C 
ENDROOT
BRANCH   2   6
ATOM      6  N   UNL     1       8.764  -0.752  24.940  0.00  0.00    -0.273 N 
ATOM      7  C   UNL     1       8.580  -1.209  26.238  0.00  0.00    +0.331 A 
ATOM      8  O   UNL     1       9.168  -0.756  27.217  0.00  0.00    -0.246 OA
ATOM      9  N   UNL     1       7.676  -2.228  26.385  0.00  0.00    -0.274 N 
ATOM     10  H   UNL     1       7.502  -2.548  27.326  0.00  0.00    +0.173 HD
ATOM     11  C   UNL     1       6.942  -2.816  25.390  0.00  0.00    +0.267 A 
ATOM     12  O   UNL     1       6.103  -3.673  25.648  0.00  0.00    -0.267 OA
ATOM     13  C   UNL     1       7.238  -2.346  24.010  0.00  0.00    +0.094 A 
ATOM     14  I   UNL     1       6.288  -3.190  22.411  0.00  0.00    -0.037 I 
ATOM     15  C   UNL     1       8.127  -1.355  23.870  0.00  0.00    +0.113 A 
ENDBRANCH   2   6
BRANCH   5  16
ATOM     16  O3* UNL     1      10.233   2.082  21.596  0.00  0.00    -0.389 OA
ATOM     17  H3* UNL     1      11.169   1.826  21.648  0.00  0.00    +0.210 HD
ENDBRANCH   5  16
BRANCH   4  18
ATOM     18  C5* UNL     1       8.154   3.450  23.635  0.00  0.00    +0.190 C 
BRANCH  18  19
ATOM     19  O5* UNL     1       8.372   4.273  22.491  0.00  0.00    -0.392 OA
ATOM     20  H5* UNL     1       8.797   5.084  22.822  0.00  0.00    +0.210 HD
ENDBRANCH  18  19
ENDBRANCH   4  18
TORSDOF 4
ENDMDL
MODEL 9
REMARK VINA RESULT:      -5.2      2.693      3.142
REMARK  Name = 
REMARK  4 active torsions:
REMARK  status: ('A' for Active; 'I' for Inactive)
REMARK    1  A    between atoms: C3*_2  and  O3*_20
REMARK    2  A    between atoms: C4*_4  and  C5*_18
REMARK    3  A    between atoms: C1*_7  and  N_9
REMARK    4  A    between atoms: C5*_18  and  O5*_19
REMARK                            x       y       z     vdW  Elec       q    Type
REMARK                         _______ _______ _______ _____ _____    ______ ____
ROOT
ATOM      1  C2* UNL     1       9.404  -0.529  21.531  0.00  0.00    +0.088 C 
ATOM      2  C1* UNL     1       9.909  -1.324  22.732  0.00  0.00    +0.226 C 
ATOM      3  O4* UNL     1      10.335  -0.378  23.738  0.00  0.00    -0.348 OA
ATOM      4  C4* UNL     1      10.201   0.944  23.177  0.00  0.00    +0.175 C 
ATOM      5  C3* UNL     1       9.101   0.827  22.129  0.00  0.00    +0.150 C 
ENDROOT
BRANCH   2   6
ATOM      6  N   UNL     1       8.913  -2.240  23.285  0.00  0.00    -0.273 N 
ATOM      7  C   UNL     1       8.699  -2.191  24.655  0.00  0.00    +0.331 A 
ATOM      8  O   UNL     1       9.304  -1.444  25.419  0.00  0.00    -0.246 OA
ATOM      9  N   UNL     1       7.740  -3.044  25.137  0.00  0.00    -0.274 N 
ATOM     10  H   UNL     1       7.545  -2.995  26.125  0.00  0.00    +0.173 HD
ATOM     11  C   UNL     1       6.982  -3.915  24.401  0.00  0.00    +0.267 A 
ATOM     12  O   UNL     1       6.097  -4.580  24.929  0.00  0.00    -0.267 OA
ATOM     13  C   UNL     1       7.309  -3.987  22.952  0.00  0.00    +0.094 A 
ATOM     14  I   UNL     1       6.325  -5.305  21.741  0.00  0.00    -0.037 I 
ATOM     15  C   UNL     1       8.251  -3.157  22.487  0.00  0.00    +0.113 A 
ENDBRANCH   2   6
BRANCH   5  16
ATOM     16  O3* UNL     1       9.131   1.859  21.158  0.00  0.00    -0.389 OA
ATOM     17  H3* UNL     1       8.781   1.522  20.317  0.00  0.00    +0.210 HD
ENDBRANCH   5  16
BRANCH   4  18
ATOM     18  C5* UNL     1       9.927   1.970  24.274  0.00  0.00    +0.190 C 
BRANCH  18  19
ATOM     19  O5* UNL     1       9.066   1.443  25.281  0.00  0.00    -0.392 OA
ATOM     20  H5* UNL     1       8.342   0.997  24.806  0.00  0.00    +0.210 HD
ENDBRANCH  18  19
ENDBRANCH   4  18
TORSDOF 4
ENDMDL
