MODEL 1
REMARK VINA RESULT:      -5.8      0.000      0.000
REMARK  Name = 
REMARK  8 active torsions:
REMARK  status: ('A' for Active; 'I' for Inactive)
REMARK    1  A    between atoms: C_1  and  C_2
REMARK    2  A    between atoms: C_2  and  C_3
REMARK    3  A    between atoms: C_2  and  N_4
REMARK    4  A    between atoms: N_13  and  C1*_14
REMARK    5  A    between atoms: C2*_16  and  O2*_26
REMARK    6  A    between atoms: C3*_18  and  O3*_25
REMARK    7  A    between atoms: C4*_20  and  C5*_23
REMARK    8  A    between atoms: C5*_23  and  O5*_24
REMARK                            x       y       z     vdW  Elec       q    Type
REMARK                         _______ _______ _______ _____ _____    ______ ____
ROOT
ATOM      1  N   UNL     1       8.132  -4.184  24.881  0.00  0.00    -0.312 N 
ATOM      2  H   UNL     1       7.172  -4.436  25.084  0.00  0.00    +0.149 HD
ATOM      3  C   UNL     1       8.317  -2.983  24.275  0.00  0.00    +0.199 A 
ATOM      4  N   UNL     1       7.280  -2.298  23.678  0.00  0.00    -0.283 N 
ATOM      5  C   UNL     1       7.749  -1.048  23.320  0.00  0.00    +0.074 A 
ATOM      6  C   UNL     1       9.087  -1.063  23.694  0.00  0.00    +0.092 A 
ATOM      7  C   UNL     1       9.867   0.091  23.514  0.00  0.00    +0.051 A 
ATOM      8  C   UNL     1       9.265   1.240  22.975  0.00  0.00    +0.061 A 
ATOM      9 CL   UNL     1      10.250   2.654  22.818  0.00  0.00    -0.082 Cl
ATOM     10  C   UNL     1       7.917   1.234  22.602  0.00  0.00    +0.061 A 
ATOM     11 CL   UNL     1       7.126   2.628  21.948  0.00  0.00    -0.082 Cl
ATOM     12  C   UNL     1       7.138   0.080  22.755  0.00  0.00    +0.049 A 
ATOM     13  N   UNL     1       9.423  -2.269  24.248  0.00  0.00    -0.214 NA
ENDROOT
BRANCH   4  14
ATOM     14  C1* UNL     1       5.892  -2.679  23.604  0.00  0.00    +0.254 C 
ATOM     15  O4* UNL     1       5.420  -3.084  24.911  0.00  0.00    -0.346 OA
ATOM     16  C4* UNL     1       4.237  -3.887  24.695  0.00  0.00    +0.177 C 
ATOM     17  C3* UNL     1       4.061  -4.026  23.176  0.00  0.00    +0.178 C 
ATOM     18  C2* UNL     1       5.489  -3.813  22.663  0.00  0.00    +0.195 C 
BRANCH  17  19
ATOM     19  O3* UNL     1       3.483  -5.269  22.804  0.00  0.00    -0.386 OA
ATOM     20  H3* UNL     1       2.527  -5.156  22.665  0.00  0.00    +0.210 HD
ENDBRANCH  17  19
BRANCH  18  21
ATOM     21  O2* UNL     1       5.542  -3.477  21.283  0.00  0.00    -0.385 OA
ATOM     22  H2* UNL     1       5.704  -2.523  21.181  0.00  0.00    +0.210 HD
ENDBRANCH  18  21
BRANCH  16  23
ATOM     23  C5* UNL     1       3.051  -3.191  25.368  0.00  0.00    +0.190 C 
BRANCH  23  24
ATOM     24  O5* UNL     1       1.832  -3.853  25.031  0.00  0.00    -0.392 OA
ATOM     25  H5* UNL     1       1.116  -3.333  25.443  0.00  0.00    +0.210 HD
ENDBRANCH  23  24
ENDBRANCH  16  23
ENDBRANCH   4  14
BRANCH   1  27
ATOM     26  C   UNL     1       8.212  -5.289  27.072  0.00  0.00    +0.027 C 
ATOM     27  C   UNL     1       9.009  -4.525  26.010  0.00  0.00    +0.067 C 
ATOM     28  C   UNL     1      10.152  -5.405  25.492  0.00  0.00    +0.027 C 
ENDBRANCH   1  27
TORSDOF 6
ENDMDL
MODEL 2
REMARK VINA RESULT:      -5.7      3.025      4.436
REMARK  Name = 
REMARK  8 active torsions:
REMARK  status: ('A' for Active; 'I' for Inactive)
REMARK    1  A    between atoms: C_1  and  C_2
REMARK    2  A    between atoms: C_2  and  C_3
REMARK    3  A    between atoms: C_2  and  N_4
REMARK    4  A    between atoms: N_13  and  C1*_14
REMARK    5  A    between atoms: C2*_16  and  O2*_26
REMARK    6  A    between atoms: C3*_18  and  O3*_25
REMARK    7  A    between atoms: C4*_20  and  C5*_23
REMARK    8  A    between atoms: C5*_23  and  O5*_24
REMARK                            x       y       z     vdW  Elec       q    Type
REMARK                         _______ _______ _______ _____ _____    ______ ____
ROOT
ATOM      1  N   UNL     1       4.945  -2.279  27.768  0.00  0.00    -0.312 N 
ATOM      2  H   UNL     1       4.465  -3.104  27.427  0.00  0.00    +0.149 HD
ATOM      3  C   UNL     1       6.097  -1.952  27.129  0.00  0.00    +0.199 A 
ATOM      4  N   UNL     1       6.750  -2.841  26.301  0.00  0.00    -0.283 N 
ATOM      5  C   UNL     1       7.773  -2.157  25.669  0.00  0.00    +0.074 A 
ATOM      6  C   UNL     1       7.702  -0.873  26.193  0.00  0.00    +0.092 A 
ATOM      7  C   UNL     1       8.584   0.113  25.723  0.00  0.00    +0.051 A 
ATOM      8  C   UNL     1       9.506  -0.223  24.718  0.00  0.00    +0.061 A 
ATOM      9 CL   UNL     1      10.539   1.036  24.132  0.00  0.00    -0.082 Cl
ATOM     10  C   UNL     1       9.563  -1.523  24.205  0.00  0.00    +0.061 A 
ATOM     11 CL   UNL     1      10.670  -1.983  22.956  0.00  0.00    -0.082 Cl
ATOM     12  C   UNL     1       8.704  -2.519  24.686  0.00  0.00    +0.049 A 
ATOM     13  N   UNL     1       6.689  -0.776  27.108  0.00  0.00    -0.214 NA
ENDROOT
BRANCH   4  14
ATOM     14  C1* UNL     1       6.359  -4.185  25.957  0.00  0.00    +0.254 C 
ATOM     15  O4* UNL     1       5.019  -4.184  25.409  0.00  0.00    -0.346 OA
ATOM     16  C4* UNL     1       4.516  -5.533  25.542  0.00  0.00    +0.177 C 
ATOM     17  C3* UNL     1       5.591  -6.342  26.283  0.00  0.00    +0.178 C 
ATOM     18  C2* UNL     1       6.345  -5.250  27.050  0.00  0.00    +0.195 C 
BRANCH  17  19
ATOM     19  O3* UNL     1       5.039  -7.361  27.104  0.00  0.00    -0.386 OA
ATOM     20  H3* UNL     1       5.269  -8.233  26.740  0.00  0.00    +0.210 HD
ENDBRANCH  17  19
BRANCH  18  21
ATOM     21  O2* UNL     1       7.634  -5.664  27.484  0.00  0.00    -0.385 OA
ATOM     22  H2* UNL     1       7.549  -6.372  28.145  0.00  0.00    +0.210 HD
ENDBRANCH  18  21
BRANCH  16  23
ATOM     23  C5* UNL     1       4.224  -6.080  24.142  0.00  0.00    +0.190 C 
BRANCH  23  24
ATOM     24  O5* UNL     1       4.402  -7.496  24.117  0.00  0.00    -0.392 OA
ATOM     25  H5* UNL     1       4.439  -7.749  23.175  0.00  0.00    +0.210 HD
ENDBRANCH  23  24
ENDBRANCH  16  23
ENDBRANCH   4  14
BRANCH   1  27
ATOM     26  C   UNL     1       2.659  -1.492  27.343  0.00  0.00    +0.027 C 
ATOM     27  C   UNL     1       3.986  -1.200  28.048  0.00  0.00    +0.067 C 
ATOM     28  C   UNL     1       3.761  -1.129  29.562  0.00  0.00    +0.027 C 
ENDBRANCH   1  27
TORSDOF 6
ENDMDL
MODEL 3
REMARK VINA RESULT:      -5.7      2.343      3.423
REMARK  Name = 
REMARK  8 active torsions:
REMARK  status: ('A' for Active; 'I' for Inactive)
REMARK    1  A    between atoms: C_1  and  C_2
REMARK    2  A    between atoms: C_2  and  C_3
REMARK    3  A    between atoms: C_2  and  N_4
REMARK    4  A    between atoms: N_13  and  C1*_14
REMARK    5  A    between atoms: C2*_16  and  O2*_26
REMARK    6  A    between atoms: C3*_18  and  O3*_25
REMARK    7  A    between atoms: C4*_20  and  C5*_23
REMARK    8  A    between atoms: C5*_23  and  O5*_24
REMARK                            x       y       z     vdW  Elec       q    Type
REMARK                         _______ _______ _______ _____ _____    ______ ____
ROOT
ATOM      1  N   UNL     1       6.509  -4.497  22.760  0.00  0.00    -0.312 N 
ATOM      2  H   UNL     1       6.343  -4.945  23.653  0.00  0.00    +0.149 HD
ATOM      3  C   UNL     1       6.963  -3.219  22.809  0.00  0.00    +0.199 A 
ATOM      4  N   UNL     1       6.895  -2.463  23.960  0.00  0.00    -0.283 N 
ATOM      5  C   UNL     1       7.594  -1.290  23.739  0.00  0.00    +0.074 A 
ATOM      6  C   UNL     1       8.022  -1.390  22.421  0.00  0.00    +0.092 A 
ATOM      7  C   UNL     1       8.818  -0.369  21.876  0.00  0.00    +0.051 A 
ATOM      8  C   UNL     1       9.177   0.719  22.688  0.00  0.00    +0.061 A 
ATOM      9 CL   UNL     1      10.201   1.928  21.991  0.00  0.00    -0.082 Cl
ATOM     10  C   UNL     1       8.733   0.802  24.012  0.00  0.00    +0.061 A 
ATOM     11 CL   UNL     1       9.160   2.114  25.056  0.00  0.00    -0.082 Cl
ATOM     12  C   UNL     1       7.918  -0.198  24.556  0.00  0.00    +0.049 A 
ATOM     13  N   UNL     1       7.599  -2.564  21.860  0.00  0.00    -0.214 NA
ENDROOT
BRANCH   4  14
ATOM     14  C1* UNL     1       6.387  -2.856  25.251  0.00  0.00    +0.254 C 
ATOM     15  O4* UNL     1       6.758  -4.227  25.530  0.00  0.00    -0.346 OA
ATOM     16  C4* UNL     1       5.849  -4.702  26.550  0.00  0.00    +0.177 C 
ATOM     17  C3* UNL     1       4.844  -3.572  26.817  0.00  0.00    +0.178 C 
ATOM     18  C2* UNL     1       4.883  -2.787  25.502  0.00  0.00    +0.195 C 
BRANCH  17  19
ATOM     19  O3* UNL     1       3.557  -4.058  27.173  0.00  0.00    -0.386 OA
ATOM     20  H3* UNL     1       3.311  -3.717  28.050  0.00  0.00    +0.210 HD
ENDBRANCH  17  19
BRANCH  18  21
ATOM     21  O2* UNL     1       4.368  -1.468  25.625  0.00  0.00    -0.385 OA
ATOM     22  H2* UNL     1       3.478  -1.497  26.017  0.00  0.00    +0.210 HD
ENDBRANCH  18  21
BRANCH  16  23
ATOM     23  C5* UNL     1       6.667  -5.073  27.790  0.00  0.00    +0.190 C 
BRANCH  23  24
ATOM     24  O5* UNL     1       7.851  -5.776  27.411  0.00  0.00    -0.392 OA
ATOM     25  H5* UNL     1       7.621  -6.724  27.422  0.00  0.00    +0.210 HD
ENDBRANCH  23  24
ENDBRANCH  16  23
ENDBRANCH   4  14
BRANCH   1  27
ATOM     26  C   UNL     1       7.821  -6.566  22.613  0.00  0.00    +0.027 C 
ATOM     27  C   UNL     1       7.169  -5.424  21.829  0.00  0.00    +0.067 C 
ATOM     28  C   UNL     1       6.112  -5.991  20.874  0.00  0.00    +0.027 C 
ENDBRANCH   1  27
TORSDOF 6
ENDMDL
MODEL 4
REMARK VINA RESULT:      -5.6      4.069      6.435
REMARK  Name = 
REMARK  8 active torsions:
REMARK  status: ('A' for Active; 'I' for Inactive)
REMARK    1  A    between atoms: C_1  and  C_2
REMARK    2  A    between atoms: C_2  and  C_3
REMARK    3  A    between atoms: C_2  and  N_4
REMARK    4  A    between atoms: N_13  and  C1*_14
REMARK    5  A    between atoms: C2*_16  and  O2*_26
REMARK    6  A    between atoms: C3*_18  and  O3*_25
REMARK    7  A    between atoms: C4*_20  and  C5*_23
REMARK    8  A    between atoms: C5*_23  and  O5*_24
REMARK                            x       y       z     vdW  Elec       q    Type
REMARK                         _______ _______ _______ _____ _____    ______ ____
ROOT
ATOM      1  N   UNL     1       6.388   0.157  25.879  0.00  0.00    -0.312 N 
ATOM      2  H   UNL     1       7.373   0.390  25.822  0.00  0.00    +0.149 HD
ATOM      3  C   UNL     1       5.973  -0.872  25.097  0.00  0.00    +0.199 A 
ATOM      4  N   UNL     1       6.740  -1.357  24.059  0.00  0.00    -0.283 N 
ATOM      5  C   UNL     1       6.132  -2.504  23.583  0.00  0.00    +0.074 A 
ATOM      6  C   UNL     1       4.984  -2.628  24.354  0.00  0.00    +0.092 A 
ATOM      7  C   UNL     1       4.141  -3.736  24.162  0.00  0.00    +0.051 A 
ATOM      8  C   UNL     1       4.495  -4.701  23.205  0.00  0.00    +0.061 A 
ATOM      9 CL   UNL     1       3.456  -6.074  23.038  0.00  0.00    -0.082 Cl
ATOM     10  C   UNL     1       5.655  -4.556  22.437  0.00  0.00    +0.061 A 
ATOM     11 CL   UNL     1       6.142  -5.724  21.257  0.00  0.00    -0.082 Cl
ATOM     12  C   UNL     1       6.488  -3.442  22.604  0.00  0.00    +0.049 A 
ATOM     13  N   UNL     1       4.888  -1.602  25.254  0.00  0.00    -0.214 NA
ENDROOT
BRANCH   4  14
ATOM     14  C1* UNL     1       8.048  -0.916  23.642  0.00  0.00    +0.254 C 
ATOM     15  O4* UNL     1       7.932  -0.048  22.489  0.00  0.00    -0.346 OA
ATOM     16  C4* UNL     1       9.226  -0.042  21.843  0.00  0.00    +0.177 C 
ATOM     17  C3* UNL     1      10.117  -1.026  22.616  0.00  0.00    +0.178 C 
ATOM     18  C2* UNL     1       9.088  -1.965  23.253  0.00  0.00    +0.195 C 
BRANCH  17  19
ATOM     19  O3* UNL     1      11.067  -1.675  21.781  0.00  0.00    -0.386 OA
ATOM     20  H3* UNL     1      11.178  -2.597  22.069  0.00  0.00    +0.210 HD
ENDBRANCH  17  19
BRANCH  18  21
ATOM     21  O2* UNL     1       9.612  -2.707  24.346  0.00  0.00    -0.385 OA
ATOM     22  H2* UNL     1       9.949  -3.564  24.032  0.00  0.00    +0.210 HD
ENDBRANCH  18  21
BRANCH  16  23
ATOM     23  C5* UNL     1       9.768   1.389  21.862  0.00  0.00    +0.190 C 
BRANCH  23  24
ATOM     24  O5* UNL     1       8.745   2.311  21.485  0.00  0.00    -0.392 OA
ATOM     25  H5* UNL     1       8.382   2.671  22.316  0.00  0.00    +0.210 HD
ENDBRANCH  23  24
ENDBRANCH  16  23
ENDBRANCH   4  14
BRANCH   1  27
ATOM     26  C   UNL     1       7.067   0.656  28.185  0.00  0.00    +0.027 C 
ATOM     27  C   UNL     1       5.928   0.187  27.275  0.00  0.00    +0.067 C 
ATOM     28  C   UNL     1       4.750   1.162  27.379  0.00  0.00    +0.027 C 
ENDBRANCH   1  27
TORSDOF 6
ENDMDL
MODEL 5
REMARK VINA RESULT:      -5.6      3.822      5.861
REMARK  Name = 
REMARK  8 active torsions:
REMARK  status: ('A' for Active; 'I' for Inactive)
REMARK    1  A    between atoms: C_1  and  C_2
REMARK    2  A    between atoms: C_2  and  C_3
REMARK    3  A    between atoms: C_2  and  N_4
REMARK    4  A    between atoms: N_13  and  C1*_14
REMARK    5  A    between atoms: C2*_16  and  O2*_26
REMARK    6  A    between atoms: C3*_18  and  O3*_25
REMARK    7  A    between atoms: C4*_20  and  C5*_23
REMARK    8  A    between atoms: C5*_23  and  O5*_24
REMARK                            x       y       z     vdW  Elec       q    Type
REMARK                         _______ _______ _______ _____ _____    ______ ____
ROOT
ATOM      1  N   UNL     1       8.948   0.263  24.060  0.00  0.00    -0.312 N 
ATOM      2  H   UNL     1       8.365   1.091  24.013  0.00  0.00    +0.149 HD
ATOM      3  C   UNL     1       8.304  -0.926  23.945  0.00  0.00    +0.199 A 
ATOM      4  N   UNL     1       6.936  -1.033  24.085  0.00  0.00    -0.283 N 
ATOM      5  C   UNL     1       6.574  -2.322  23.736  0.00  0.00    +0.074 A 
ATOM      6  C   UNL     1       7.777  -2.946  23.434  0.00  0.00    +0.092 A 
ATOM      7  C   UNL     1       7.770  -4.277  22.986  0.00  0.00    +0.051 A 
ATOM      8  C   UNL     1       6.539  -4.936  22.836  0.00  0.00    +0.061 A 
ATOM      9 CL   UNL     1       6.573  -6.558  22.233  0.00  0.00    -0.082 Cl
ATOM     10  C   UNL     1       5.338  -4.291  23.148  0.00  0.00    +0.061 A 
ATOM     11 CL   UNL     1       3.796  -5.054  22.966  0.00  0.00    -0.082 Cl
ATOM     12  C   UNL     1       5.337  -2.972  23.619  0.00  0.00    +0.049 A 
ATOM     13  N   UNL     1       8.827  -2.084  23.599  0.00  0.00    -0.214 NA
ENDROOT
BRANCH   4  14
ATOM     14  C1* UNL     1       5.985   0.020  24.340  0.00  0.00    +0.254 C 
ATOM     15  O4* UNL     1       6.346   1.204  23.589  0.00  0.00    -0.346 OA
ATOM     16  C4* UNL     1       5.689   2.320  24.232  0.00  0.00    +0.177 C 
ATOM     17  C3* UNL     1       4.975   1.764  25.473  0.00  0.00    +0.178 C 
ATOM     18  C2* UNL     1       5.787   0.500  25.775  0.00  0.00    +0.195 C 
BRANCH  17  19
ATOM     19  O3* UNL     1       4.926   2.701  26.540  0.00  0.00    -0.386 OA
ATOM     20  H3* UNL     1       5.644   3.349  26.438  0.00  0.00    +0.210 HD
ENDBRANCH  17  19
BRANCH  18  21
ATOM     21  O2* UNL     1       5.096  -0.418  26.612  0.00  0.00    -0.385 OA
ATOM     22  H2* UNL     1       4.608   0.065  27.301  0.00  0.00    +0.210 HD
ENDBRANCH  18  21
BRANCH  16  23
ATOM     23  C5* UNL     1       4.724   2.955  23.227  0.00  0.00    +0.190 C 
BRANCH  23  24
ATOM     24  O5* UNL     1       3.373   2.668  23.589  0.00  0.00    -0.392 OA
ATOM     25  H5* UNL     1       2.873   2.610  22.752  0.00  0.00    +0.210 HD
ENDBRANCH  23  24
ENDBRANCH  16  23
ENDBRANCH   4  14
BRANCH   1  27
ATOM     26  C   UNL     1       9.915   1.401  22.111  0.00  0.00    +0.027 C 
ATOM     27  C   UNL     1      10.182   0.452  23.284  0.00  0.00    +0.067 C 
ATOM     28  C   UNL     1      11.248   1.057  24.204  0.00  0.00    +0.027 C 
ENDBRANCH   1  27
TORSDOF 6
ENDMDL
MODEL 6
REMARK VINA RESULT:      -5.6      4.007      6.142
REMARK  Name = 
REMARK  8 active torsions:
REMARK  status: ('A' for Active; 'I' for Inactive)
REMARK    1  A    between atoms: C_1  and  C_2
REMARK    2  A    between atoms: C_2  and  C_3
REMARK    3  A    between atoms: C_2  and  N_4
REMARK    4  A    between atoms: N_13  and  C1*_14
REMARK    5  A    between atoms: C2*_16  and  O2*_26
REMARK    6  A    between atoms: C3*_18  and  O3*_25
REMARK    7  A    between atoms: C4*_20  and  C5*_23
REMARK    8  A    between atoms: C5*_23  and  O5*_24
REMARK                            x       y       z     vdW  Elec       q    Type
REMARK                         _______ _______ _______ _____ _____    ______ ____
ROOT
ATOM      1  N   UNL     1       8.392   0.669  23.473  0.00  0.00    -0.312 N 
ATOM      2  H   UNL     1       7.903   1.255  24.139  0.00  0.00    +0.149 HD
ATOM      3  C   UNL     1       8.105  -0.657  23.521  0.00  0.00    +0.199 A 
ATOM      4  N   UNL     1       7.455  -1.224  24.597  0.00  0.00    -0.283 N 
ATOM      5  C   UNL     1       7.152  -2.533  24.266  0.00  0.00    +0.074 A 
ATOM      6  C   UNL     1       7.684  -2.697  22.994  0.00  0.00    +0.092 A 
ATOM      7  C   UNL     1       7.510  -3.920  22.326  0.00  0.00    +0.051 A 
ATOM      8  C   UNL     1       6.783  -4.941  22.959  0.00  0.00    +0.061 A 
ATOM      9 CL   UNL     1       6.549  -6.413  22.079  0.00  0.00    -0.082 Cl
ATOM     10  C   UNL     1       6.258  -4.757  24.242  0.00  0.00    +0.061 A 
ATOM     11 CL   UNL     1       5.343  -5.979  25.057  0.00  0.00    -0.082 Cl
ATOM     12  C   UNL     1       6.448  -3.550  24.926  0.00  0.00    +0.049 A 
ATOM     13  N   UNL     1       8.291  -1.546  22.568  0.00  0.00    -0.214 NA
ENDROOT
BRANCH   4  14
ATOM     14  C1* UNL     1       6.967  -0.569  25.785  0.00  0.00    +0.254 C 
ATOM     15  O4* UNL     1       5.920   0.368  25.438  0.00  0.00    -0.346 OA
ATOM     16  C4* UNL     1       5.823   1.306  26.534  0.00  0.00    +0.177 C 
ATOM     17  C3* UNL     1       6.929   0.942  27.535  0.00  0.00    +0.178 C 
ATOM     18  C2* UNL     1       7.949   0.224  26.643  0.00  0.00    +0.195 C 
BRANCH  17  19
ATOM     19  O3* UNL     1       7.443   2.077  28.218  0.00  0.00    -0.386 OA
ATOM     20  H3* UNL     1       8.184   2.453  27.714  0.00  0.00    +0.210 HD
ENDBRANCH  17  19
BRANCH  18  21
ATOM     21  O2* UNL     1       8.866  -0.575  27.378  0.00  0.00    -0.385 OA
ATOM     22  H2* UNL     1       8.556  -0.675  28.295  0.00  0.00    +0.210 HD
ENDBRANCH  18  21
BRANCH  16  23
ATOM     23  C5* UNL     1       4.420   1.198  27.137  0.00  0.00    +0.190 C 
BRANCH  23  24
ATOM     24  O5* UNL     1       3.568   0.440  26.279  0.00  0.00    -0.392 OA
ATOM     25  H5* UNL     1       2.968  -0.062  26.863  0.00  0.00    +0.210 HD
ENDBRANCH  23  24
ENDBRANCH  16  23
ENDBRANCH   4  14
BRANCH   1  27
ATOM     26  C   UNL     1       7.552   2.560  22.152  0.00  0.00    +0.027 C 
ATOM     27  C   UNL     1       8.440   1.313  22.152  0.00  0.00    +0.067 C 
ATOM     28  C   UNL     1       9.890   1.712  21.856  0.00  0.00    +0.027 C 
ENDBRANCH   1  27
TORSDOF 6
ENDMDL
MODEL 7
REMARK VINA RESULT:      -5.5      4.196      6.850
REMARK  Name = 
REMARK  8 active torsions:
REMARK  status: ('A' for Active; 'I' for Inactive)
REMARK    1  A    between atoms: C_1  and  C_2
REMARK    2  A    between atoms: C_2  and  C_3
REMARK    3  A    between atoms: C_2  and  N_4
REMARK    4  A    between atoms: N_13  and  C1*_14
REMARK    5  A    between atoms: C2*_16  and  O2*_26
REMARK    6  A    between atoms: C3*_18  and  O3*_25
REMARK    7  A    between atoms: C4*_20  and  C5*_23
REMARK    8  A    between atoms: C5*_23  and  O5*_24
REMARK                            x       y       z     vdW  Elec       q    Type
REMARK                         _______ _______ _______ _____ _____    ______ ____
ROOT
ATOM      1  N   UNL     1       5.898   0.612  24.185  0.00  0.00    -0.312 N 
ATOM      2  H   UNL     1       6.858   0.815  23.932  0.00  0.00    +0.149 HD
ATOM      3  C   UNL     1       5.695  -0.542  24.871  0.00  0.00    +0.199 A 
ATOM      4  N   UNL     1       6.654  -1.530  24.940  0.00  0.00    -0.283 N 
ATOM      5  C   UNL     1       6.221  -2.478  25.849  0.00  0.00    +0.074 A 
ATOM      6  C   UNL     1       4.977  -2.017  26.259  0.00  0.00    +0.092 A 
ATOM      7  C   UNL     1       4.264  -2.730  27.236  0.00  0.00    +0.051 A 
ATOM      8  C   UNL     1       4.841  -3.886  27.789  0.00  0.00    +0.061 A 
ATOM      9 CL   UNL     1       3.952  -4.705  29.026  0.00  0.00    -0.082 Cl
ATOM     10  C   UNL     1       6.094  -4.336  27.360  0.00  0.00    +0.061 A 
ATOM     11 CL   UNL     1       6.853  -5.743  28.020  0.00  0.00    -0.082 Cl
ATOM     12  C   UNL     1       6.801  -3.644  26.368  0.00  0.00    +0.049 A 
ATOM     13  N   UNL     1       4.659  -0.846  25.625  0.00  0.00    -0.214 NA
ENDROOT
BRANCH   4  14
ATOM     14  C1* UNL     1       7.973  -1.527  24.359  0.00  0.00    +0.254 C 
ATOM     15  O4* UNL     1       8.500  -0.180  24.335  0.00  0.00    -0.346 OA
ATOM     16  C4* UNL     1       9.552  -0.163  23.343  0.00  0.00    +0.177 C 
ATOM     17  C3* UNL     1       9.581  -1.556  22.697  0.00  0.00    +0.178 C 
ATOM     18  C2* UNL     1       8.152  -2.054  22.937  0.00  0.00    +0.195 C 
BRANCH  17  19
ATOM     19  O3* UNL     1       9.968  -1.517  21.331  0.00  0.00    -0.386 OA
ATOM     20  H3* UNL     1       9.400  -0.892  20.849  0.00  0.00    +0.210 HD
ENDBRANCH  17  19
BRANCH  18  21
ATOM     21  O2* UNL     1       8.025  -3.464  22.812  0.00  0.00    -0.385 OA
ATOM     22  H2* UNL     1       7.310  -3.784  23.389  0.00  0.00    +0.210 HD
ENDBRANCH  18  21
BRANCH  16  23
ATOM     23  C5* UNL     1      10.867   0.195  24.041  0.00  0.00    +0.190 C 
BRANCH  23  24
ATOM     24  O5* UNL     1      10.628   0.528  25.408  0.00  0.00    -0.392 OA
ATOM     25  H5* UNL     1      11.483   0.426  25.867  0.00  0.00    +0.210 HD
ENDBRANCH  23  24
ENDBRANCH  16  23
ENDBRANCH   4  14
BRANCH   1  27
ATOM     26  C   UNL     1       6.084   2.518  25.720  0.00  0.00    +0.027 C 
ATOM     27  C   UNL     1       5.219   1.824  24.664  0.00  0.00    +0.067 C 
ATOM     28  C   UNL     1       5.005   2.766  23.474  0.00  0.00    +0.027 C 
ENDBRANCH   1  27
TORSDOF 6
ENDMDL
MODEL 8
REMARK VINA RESULT:      -5.5      3.377      5.244
REMARK  Name = 
REMARK  8 active torsions:
REMARK  status: ('A' for Active; 'I' for Inactive)
REMARK    1  A    between atoms: C_1  and  C_2
REMARK    2  A    between atoms: C_2  and  C_3
REMARK    3  A    between atoms: C_2  and  N_4
REMARK    4  A    between atoms: N_13  and  C1*_14
REMARK    5  A    between atoms: C2*_16  and  O2*_26
REMARK    6  A    between atoms: C3*_18  and  O3*_25
REMARK    7  A    between atoms: C4*_20  and  C5*_23
REMARK    8  A    between atoms: C5*_23  and  O5*_24
REMARK                            x       y       z     vdW  Elec       q    Type
REMARK                         _______ _______ _______ _____ _____    ______ ____
ROOT
ATOM      1  N   UNL     1       8.133  -0.790  23.010  0.00  0.00    -0.312 N 
ATOM      2  H   UNL     1       8.571  -1.700  23.089  0.00  0.00    +0.149 HD
ATOM      3  C   UNL     1       7.066  -0.570  23.820  0.00  0.00    +0.199 A 
ATOM      4  N   UNL     1       6.413  -1.600  24.464  0.00  0.00    -0.283 N 
ATOM      5  C   UNL     1       5.503  -1.041  25.342  0.00  0.00    +0.074 A 
ATOM      6  C   UNL     1       5.633   0.328  25.146  0.00  0.00    +0.092 A 
ATOM      7  C   UNL     1       4.873   1.212  25.928  0.00  0.00    +0.051 A 
ATOM      8  C   UNL     1       4.012   0.687  26.906  0.00  0.00    +0.061 A 
ATOM      9 CL   UNL     1       3.134   1.814  27.881  0.00  0.00    -0.082 Cl
ATOM     10  C   UNL     1       3.893  -0.695  27.086  0.00  0.00    +0.061 A 
ATOM     11 CL   UNL     1       2.859  -1.391  28.286  0.00  0.00    -0.082 Cl
ATOM     12  C   UNL     1       4.629  -1.586  26.293  0.00  0.00    +0.049 A 
ATOM     13  N   UNL     1       6.573   0.594  24.187  0.00  0.00    -0.214 NA
ENDROOT
BRANCH   4  14
ATOM     14  C1* UNL     1       6.723  -3.007  24.428  0.00  0.00    +0.254 C 
ATOM     15  O4* UNL     1       8.131  -3.210  24.698  0.00  0.00    -0.346 OA
ATOM     16  C4* UNL     1       8.468  -4.519  24.181  0.00  0.00    +0.177 C 
ATOM     17  C3* UNL     1       7.206  -5.070  23.500  0.00  0.00    +0.178 C 
ATOM     18  C2* UNL     1       6.443  -3.789  23.147  0.00  0.00    +0.195 C 
BRANCH  17  19
ATOM     19  O3* UNL     1       7.505  -5.902  22.388  0.00  0.00    -0.386 OA
ATOM     20  H3* UNL     1       7.541  -5.364  21.579  0.00  0.00    +0.210 HD
ENDBRANCH  17  19
BRANCH  18  21
ATOM     21  O2* UNL     1       5.064  -4.017  22.887  0.00  0.00    -0.385 OA
ATOM     22  H2* UNL     1       4.959  -4.467  22.030  0.00  0.00    +0.210 HD
ENDBRANCH  18  21
BRANCH  16  23
ATOM     23  C5* UNL     1       8.941  -5.390  25.347  0.00  0.00    +0.190 C 
BRANCH  23  24
ATOM     24  O5* UNL     1      10.365  -5.494  25.341  0.00  0.00    -0.392 OA
ATOM     25  H5* UNL     1      10.624  -5.739  26.250  0.00  0.00    +0.210 HD
ENDBRANCH  23  24
ENDBRANCH  16  23
ENDBRANCH   4  14
BRANCH   1  27
ATOM     26  C   UNL     1      10.499  -0.263  23.397  0.00  0.00    +0.027 C 
ATOM     27  C   UNL     1       9.148   0.268  22.910  0.00  0.00    +0.067 C 
ATOM     28  C   UNL     1       9.261   0.699  21.444  0.00  0.00    +0.027 C 
ENDBRANCH   1  27
TORSDOF 6
ENDMDL
MODEL 9
REMARK VINA RESULT:      -5.4      2.757      4.515
REMARK  Name = 
REMARK  8 active torsions:
REMARK  status: ('A' for Active; 'I' for Inactive)
REMARK    1  A    between atoms: C_1  and  C_2
REMARK    2  A    between atoms: C_2  and  C_3
REMARK    3  A    between atoms: C_2  and  N_4
REMARK    4  A    between atoms: N_13  and  C1*_14
REMARK    5  A    between atoms: C2*_16  and  O2*_26
REMARK    6  A    between atoms: C3*_18  and  O3*_25
REMARK    7  A    between atoms: C4*_20  and  C5*_23
REMARK    8  A    between atoms: C5*_23  and  O5*_24
REMARK                            x       y       z     vdW  Elec       q    Type
REMARK                         _______ _______ _______ _____ _____    ______ ____
ROOT
ATOM      1  N   UNL     1       4.315  -1.782  26.951  0.00  0.00    -0.312 N 
ATOM      2  H   UNL     1       4.250  -2.793  26.988  0.00  0.00    +0.149 HD
ATOM      3  C   UNL     1       5.204  -1.274  26.060  0.00  0.00    +0.199 A 
ATOM      4  N   UNL     1       6.183  -2.052  25.479  0.00  0.00    -0.283 N 
ATOM      5  C   UNL     1       6.797  -1.296  24.497  0.00  0.00    +0.074 A 
ATOM      6  C   UNL     1       6.164  -0.062  24.568  0.00  0.00    +0.092 A 
ATOM      7  C   UNL     1       6.518   0.948  23.659  0.00  0.00    +0.051 A 
ATOM      8  C   UNL     1       7.493   0.674  22.686  0.00  0.00    +0.061 A 
ATOM      9 CL   UNL     1       7.862   1.930  21.553  0.00  0.00    -0.082 Cl
ATOM     10  C   UNL     1       8.121  -0.575  22.632  0.00  0.00    +0.061 A 
ATOM     11 CL   UNL     1       9.316  -0.966  21.444  0.00  0.00    -0.082 Cl
ATOM     12  C   UNL     1       7.792  -1.579  23.551  0.00  0.00    +0.049 A 
ATOM     13  N   UNL     1       5.213  -0.058  25.553  0.00  0.00    -0.214 NA
ENDROOT
BRANCH   4  14
ATOM     14  C1* UNL     1       6.427  -3.459  25.670  0.00  0.00    +0.254 C 
ATOM     15  O4* UNL     1       5.184  -4.141  25.963  0.00  0.00    -0.346 OA
ATOM     16  C4* UNL     1       5.536  -5.388  26.605  0.00  0.00    +0.177 C 
ATOM     17  C3* UNL     1       7.063  -5.392  26.769  0.00  0.00    +0.178 C 
ATOM     18  C2* UNL     1       7.393  -3.896  26.769  0.00  0.00    +0.195 C 
BRANCH  17  19
ATOM     19  O3* UNL     1       7.486  -6.087  27.934  0.00  0.00    -0.386 OA
ATOM     20  H3* UNL     1       7.453  -7.045  27.772  0.00  0.00    +0.210 HD
ENDBRANCH  17  19
BRANCH  18  21
ATOM     21  O2* UNL     1       8.761  -3.627  26.490  0.00  0.00    -0.385 OA
ATOM     22  H2* UNL     1       8.832  -2.856  25.901  0.00  0.00    +0.210 HD
ENDBRANCH  18  21
BRANCH  16  23
ATOM     23  C5* UNL     1       5.031  -6.540  25.733  0.00  0.00    +0.190 C 
BRANCH  23  24
ATOM     24  O5* UNL     1       4.147  -7.376  26.480  0.00  0.00    -0.392 OA
ATOM     25  H5* UNL     1       4.192  -7.064  27.403  0.00  0.00    +0.210 HD
ENDBRANCH  23  24
ENDBRANCH  16  23
ENDBRANCH   4  14
BRANCH   1  27
ATOM     26  C   UNL     1       1.911  -2.248  26.781  0.00  0.00    +0.027 C 
ATOM     27  C   UNL     1       2.978  -1.174  27.011  0.00  0.00    +0.067 C 
ATOM     28  C   UNL     1       2.788  -0.547  28.396  0.00  0.00    +0.027 C 
ENDBRANCH   1  27
TORSDOF 6
ENDMDL
