MODEL 1
REMARK VINA RESULT:      -6.6      0.000      0.000
REMARK  Name = 
REMARK  5 active torsions:
REMARK  status: ('A' for Active; 'I' for Inactive)
REMARK    1  A    between atoms: C_1  and  C_2
REMARK    2  A    between atoms: N_4  and  C_10
REMARK    3  A    between atoms: C_12  and  N_17
REMARK    4  A    between atoms: C_13  and  C_15
REMARK    5  A    between atoms: C_15  and  O_16
REMARK                            x       y       z     vdW  Elec       q    Type
REMARK                         _______ _______ _______ _____ _____    ______ ____
ROOT
ATOM      1  C   UNL     1       8.441  -0.920  22.942  0.00  0.00    +0.226 C 
ATOM      2  O   UNL     1       7.448  -1.833  22.446  0.00  0.00    -0.349 OA
ATOM      3  C   UNL     1       7.378  -2.949  23.359  0.00  0.00    +0.178 C 
ATOM      4  C   UNL     1       8.436  -2.732  24.452  0.00  0.00    +0.230 C 
ATOM      5  C   UNL     1       8.598  -1.226  24.426  0.00  0.00    +0.091 C 
ENDROOT
BRANCH   1  14
ATOM      6  C   UNL     1       5.233   2.885  23.317  0.00  0.00    +0.051 C 
ATOM      7  C   UNL     1       6.516   2.263  22.876  0.00  0.00    +0.030 A 
ATOM      8  C   UNL     1       7.473   3.126  22.146  0.00  0.00    +0.257 A 
ATOM      9  O   UNL     1       7.240   4.309  21.919  0.00  0.00    -0.267 OA
ATOM     10  N   UNL     1       8.636   2.530  21.754  0.00  0.00    -0.275 N 
ATOM     11  H   UNL     1       9.307   3.109  21.275  0.00  0.00    +0.173 HD
ATOM     12  C   UNL     1       9.014   1.245  22.025  0.00  0.00    +0.331 A 
ATOM     13  O   UNL     1      10.136   0.851  21.708  0.00  0.00    -0.246 OA
ATOM     14  N   UNL     1       8.069   0.461  22.671  0.00  0.00    -0.274 N 
ATOM     15  C   UNL     1       6.860   0.986  23.092  0.00  0.00    +0.101 A 
ENDBRANCH   1  14
BRANCH   4  16
ATOM     16  N   UNL     1       9.719  -3.375  24.108  0.00  0.00    +0.125 NA
ATOM     17  N   UNL     1       9.972  -4.428  24.715  0.00  0.00    +0.219 NA
ATOM     18  N   UNL     1      10.204  -5.488  25.301  0.00  0.00    +0.104 NA
ATOM     19  H   UNL     1      10.825  -6.079  24.741  0.00  0.00    +0.288 HD
ENDBRANCH   4  16
BRANCH   3  20
ATOM     20  C   UNL     1       7.481  -4.260  22.582  0.00  0.00    +0.189 C 
BRANCH  20  21
ATOM     21  O   UNL     1       7.573  -5.378  23.457  0.00  0.00    -0.392 OA
ATOM     22  H   UNL     1       8.162  -6.021  23.025  0.00  0.00    +0.210 HD
ENDBRANCH  20  21
ENDBRANCH   3  20
TORSDOF 4
ENDMDL
MODEL 2
REMARK VINA RESULT:      -6.5      1.512      1.527
REMARK  Name = 
REMARK  5 active torsions:
REMARK  status: ('A' for Active; 'I' for Inactive)
REMARK    1  A    between atoms: C_1  and  C_2
REMARK    2  A    between atoms: N_4  and  C_10
REMARK    3  A    between atoms: C_12  and  N_17
REMARK    4  A    between atoms: C_13  and  C_15
REMARK    5  A    between atoms: C_15  and  O_16
REMARK                            x       y       z     vdW  Elec       q    Type
REMARK                         _______ _______ _______ _____ _____    ______ ____
ROOT
ATOM      1  C   UNL     1       9.063  -0.569  23.632  0.00  0.00    +0.226 C 
ATOM      2  O   UNL     1       7.943  -1.164  22.956  0.00  0.00    -0.349 OA
ATOM      3  C   UNL     1       7.643  -2.413  23.613  0.00  0.00    +0.178 C 
ATOM      4  C   UNL     1       8.683  -2.624  24.725  0.00  0.00    +0.230 C 
ATOM      5  C   UNL     1       9.110  -1.200  25.017  0.00  0.00    +0.091 C 
ENDROOT
BRANCH   1  14
ATOM      6  C   UNL     1       7.716   3.658  25.919  0.00  0.00    +0.051 C 
ATOM      7  C   UNL     1       8.304   2.886  24.784  0.00  0.00    +0.030 A 
ATOM      8  C   UNL     1       8.832   3.660  23.638  0.00  0.00    +0.257 A 
ATOM      9  O   UNL     1       8.806   4.887  23.615  0.00  0.00    -0.267 OA
ATOM     10  N   UNL     1       9.361   2.928  22.615  0.00  0.00    -0.275 N 
ATOM     11  H   UNL     1       9.743   3.441  21.837  0.00  0.00    +0.173 HD
ATOM     12  C   UNL     1       9.500   1.570  22.586  0.00  0.00    +0.331 A 
ATOM     13  O   UNL     1      10.090   1.029  21.651  0.00  0.00    -0.246 OA
ATOM     14  N   UNL     1       8.952   0.882  23.659  0.00  0.00    -0.274 N 
ATOM     15  C   UNL     1       8.387   1.549  24.732  0.00  0.00    +0.101 A 
ENDBRANCH   1  14
BRANCH   4  16
ATOM     16  N   UNL     1       9.843  -3.402  24.250  0.00  0.00    +0.125 NA
ATOM     17  N   UNL     1       9.978  -4.528  24.756  0.00  0.00    +0.219 NA
ATOM     18  N   UNL     1      10.090  -5.657  25.241  0.00  0.00    +0.104 NA
ATOM     19  H   UNL     1      10.591  -6.276  24.598  0.00  0.00    +0.288 HD
ENDBRANCH   4  16
BRANCH   3  20
ATOM     20  C   UNL     1       7.540  -3.531  22.576  0.00  0.00    +0.189 C 
BRANCH  20  21
ATOM     21  O   UNL     1       7.611  -4.815  23.185  0.00  0.00    -0.392 OA
ATOM     22  H   UNL     1       8.356  -5.280  22.767  0.00  0.00    +0.210 HD
ENDBRANCH  20  21
ENDBRANCH   3  20
TORSDOF 4
ENDMDL
MODEL 3
REMARK VINA RESULT:      -6.5      1.605      1.951
REMARK  Name = 
REMARK  5 active torsions:
REMARK  status: ('A' for Active; 'I' for Inactive)
REMARK    1  A    between atoms: C_1  and  C_2
REMARK    2  A    between atoms: N_4  and  C_10
REMARK    3  A    between atoms: C_12  and  N_17
REMARK    4  A    between atoms: C_13  and  C_15
REMARK    5  A    between atoms: C_15  and  O_16
REMARK                            x       y       z     vdW  Elec       q    Type
REMARK                         _______ _______ _______ _____ _____    ______ ____
ROOT
ATOM      1  C   UNL     1       8.170  -2.753  22.695  0.00  0.00    +0.226 C 
ATOM      2  O   UNL     1       7.040  -3.256  21.964  0.00  0.00    -0.349 OA
ATOM      3  C   UNL     1       6.464  -4.336  22.729  0.00  0.00    +0.178 C 
ATOM      4  C   UNL     1       7.332  -4.545  23.980  0.00  0.00    +0.230 C 
ATOM      5  C   UNL     1       7.965  -3.178  24.143  0.00  0.00    +0.091 C 
ENDROOT
BRANCH   1  14
ATOM      6  C   UNL     1       6.316   1.870  23.016  0.00  0.00    +0.051 C 
ATOM      7  C   UNL     1       7.393   0.885  22.701  0.00  0.00    +0.030 A 
ATOM      8  C   UNL     1       8.686   1.425  22.221  0.00  0.00    +0.257 A 
ATOM      9  O   UNL     1       8.882   2.629  22.095  0.00  0.00    -0.267 OA
ATOM     10  N   UNL     1       9.651   0.501  21.939  0.00  0.00    -0.275 N 
ATOM     11  H   UNL     1      10.543   0.853  21.631  0.00  0.00    +0.173 HD
ATOM     12  C   UNL     1       9.549  -0.849  22.119  0.00  0.00    +0.331 A 
ATOM     13  O   UNL     1      10.526  -1.573  21.928  0.00  0.00    -0.246 OA
ATOM     14  N   UNL     1       8.307  -1.313  22.528  0.00  0.00    -0.274 N 
ATOM     15  C   UNL     1       7.272  -0.443  22.823  0.00  0.00    +0.101 A 
ENDBRANCH   1  14
BRANCH   4  16
ATOM     16  N   UNL     1       8.385  -5.555  23.754  0.00  0.00    +0.125 NA
ATOM     17  N   UNL     1       9.321  -5.545  24.570  0.00  0.00    +0.219 NA
ATOM     18  N   UNL     1      10.234  -5.549  25.399  0.00  0.00    +0.104 NA
ATOM     19  H   UNL     1      10.657  -6.480  25.464  0.00  0.00    +0.288 HD
ENDBRANCH   4  16
BRANCH   3  20
ATOM     20  C   UNL     1       6.278  -5.561  21.835  0.00  0.00    +0.189 C 
BRANCH  20  21
ATOM     21  O   UNL     1       5.743  -6.661  22.562  0.00  0.00    -0.392 OA
ATOM     22  H   UNL     1       6.175  -7.460  22.215  0.00  0.00    +0.210 HD
ENDBRANCH  20  21
ENDBRANCH   3  20
TORSDOF 4
ENDMDL
MODEL 4
REMARK VINA RESULT:      -6.2      3.168      4.301
REMARK  Name = 
REMARK  5 active torsions:
REMARK  status: ('A' for Active; 'I' for Inactive)
REMARK    1  A    between atoms: C_1  and  C_2
REMARK    2  A    between atoms: N_4  and  C_10
REMARK    3  A    between atoms: C_12  and  N_17
REMARK    4  A    between atoms: C_13  and  C_15
REMARK    5  A    between atoms: C_15  and  O_16
REMARK                            x       y       z     vdW  Elec       q    Type
REMARK                         _______ _______ _______ _____ _____    ______ ____
ROOT
ATOM      1  C   UNL     1       7.349  -2.809  23.461  0.00  0.00    +0.226 C 
ATOM      2  O   UNL     1       7.818  -3.725  22.458  0.00  0.00    -0.349 OA
ATOM      3  C   UNL     1       6.671  -4.203  21.724  0.00  0.00    +0.178 C 
ATOM      4  C   UNL     1       5.414  -3.585  22.357  0.00  0.00    +0.230 C 
ATOM      5  C   UNL     1       5.979  -2.333  22.996  0.00  0.00    +0.091 C 
ENDROOT
BRANCH   1  14
ATOM      6  C   UNL     1       9.798   1.221  21.826  0.00  0.00    +0.051 C 
ATOM      7  C   UNL     1       9.448   0.203  22.861  0.00  0.00    +0.030 A 
ATOM      8  C   UNL     1      10.090   0.337  24.189  0.00  0.00    +0.257 A 
ATOM      9  O   UNL     1      10.869   1.249  24.446  0.00  0.00    -0.267 OA
ATOM     10  N   UNL     1       9.753  -0.609  25.114  0.00  0.00    -0.275 N 
ATOM     11  H   UNL     1      10.165  -0.519  26.028  0.00  0.00    +0.173 HD
ATOM     12  C   UNL     1       8.842  -1.612  24.943  0.00  0.00    +0.331 A 
ATOM     13  O   UNL     1       8.544  -2.343  25.888  0.00  0.00    -0.246 OA
ATOM     14  N   UNL     1       8.299  -1.726  23.671  0.00  0.00    -0.274 N 
ATOM     15  C   UNL     1       8.598  -0.815  22.674  0.00  0.00    +0.101 A 
ENDBRANCH   1  14
BRANCH   4  16
ATOM     16  N   UNL     1       4.839  -4.458  23.400  0.00  0.00    +0.125 NA
ATOM     17  N   UNL     1       3.686  -4.863  23.184  0.00  0.00    +0.219 NA
ATOM     18  N   UNL     1       2.551  -5.285  22.951  0.00  0.00    +0.104 NA
ATOM     19  H   UNL     1       2.392  -6.175  23.433  0.00  0.00    +0.288 HD
ENDBRANCH   4  16
BRANCH   3  20
ATOM     20  C   UNL     1       6.701  -5.729  21.655  0.00  0.00    +0.189 C 
BRANCH  20  21
ATOM     21  O   UNL     1       5.462  -6.254  21.193  0.00  0.00    -0.392 OA
ATOM     22  H   UNL     1       5.673  -7.048  20.672  0.00  0.00    +0.210 HD
ENDBRANCH  20  21
ENDBRANCH   3  20
TORSDOF 4
ENDMDL
MODEL 5
REMARK VINA RESULT:      -6.2      2.353      3.050
REMARK  Name = 
REMARK  5 active torsions:
REMARK  status: ('A' for Active; 'I' for Inactive)
REMARK    1  A    between atoms: C_1  and  C_2
REMARK    2  A    between atoms: N_4  and  C_10
REMARK    3  A    between atoms: C_12  and  N_17
REMARK    4  A    between atoms: C_13  and  C_15
REMARK    5  A    between atoms: C_15  and  O_16
REMARK                            x       y       z     vdW  Elec       q    Type
REMARK                         _______ _______ _______ _____ _____    ______ ____
ROOT
ATOM      1  C   UNL     1       7.897  -3.077  23.456  0.00  0.00    +0.226 C 
ATOM      2  O   UNL     1       7.203  -3.756  22.398  0.00  0.00    -0.349 OA
ATOM      3  C   UNL     1       6.095  -4.472  22.984  0.00  0.00    +0.178 C 
ATOM      4  C   UNL     1       6.150  -4.263  24.506  0.00  0.00    +0.230 C 
ATOM      5  C   UNL     1       6.908  -2.955  24.607  0.00  0.00    +0.091 C 
ENDROOT
BRANCH   1  14
ATOM      6  C   UNL     1       7.230   1.701  22.174  0.00  0.00    +0.051 C 
ATOM      7  C   UNL     1       8.070   0.488  22.406  0.00  0.00    +0.030 A 
ATOM      8  C   UNL     1       9.529   0.622  22.190  0.00  0.00    +0.257 A 
ATOM      9  O   UNL     1      10.041   1.683  21.849  0.00  0.00    -0.267 OA
ATOM     10  N   UNL     1      10.270  -0.503  22.408  0.00  0.00    -0.275 N 
ATOM     11  H   UNL     1      11.267  -0.423  22.286  0.00  0.00    +0.173 HD
ATOM     12  C   UNL     1       9.799  -1.703  22.860  0.00  0.00    +0.331 A 
ATOM     13  O   UNL     1      10.583  -2.617  23.118  0.00  0.00    -0.246 OA
ATOM     14  N   UNL     1       8.423  -1.796  23.005  0.00  0.00    -0.274 N 
ATOM     15  C   UNL     1       7.598  -0.705  22.793  0.00  0.00    +0.101 A 
ENDBRANCH   1  14
BRANCH   4  16
ATOM     16  N   UNL     1       6.914  -5.332  25.178  0.00  0.00    +0.125 NA
ATOM     17  N   UNL     1       6.299  -5.962  26.053  0.00  0.00    +0.219 NA
ATOM     18  N   UNL     1       5.674  -6.602  26.902  0.00  0.00    +0.104 NA
ATOM     19  H   UNL     1       6.063  -7.545  26.999  0.00  0.00    +0.288 HD
ENDBRANCH   4  16
BRANCH   3  20
ATOM     20  C   UNL     1       6.107  -5.924  22.509  0.00  0.00    +0.189 C 
BRANCH  20  21
ATOM     21  O   UNL     1       5.162  -6.713  23.221  0.00  0.00    -0.392 OA
ATOM     22  H   UNL     1       4.282  -6.363  22.997  0.00  0.00    +0.210 HD
ENDBRANCH  20  21
ENDBRANCH   3  20
TORSDOF 4
ENDMDL
MODEL 6
REMARK VINA RESULT:      -6.1      2.271      6.500
REMARK  Name = 
REMARK  5 active torsions:
REMARK  status: ('A' for Active; 'I' for Inactive)
REMARK    1  A    between atoms: C_1  and  C_2
REMARK    2  A    between atoms: N_4  and  C_10
REMARK    3  A    between atoms: C_12  and  N_17
REMARK    4  A    between atoms: C_13  and  C_15
REMARK    5  A    between atoms: C_15  and  O_16
REMARK                            x       y       z     vdW  Elec       q    Type
REMARK                         _______ _______ _______ _____ _____    ______ ____
ROOT
ATOM      1  C   UNL     1       8.763  -0.685  24.394  0.00  0.00    +0.226 C 
ATOM      2  O   UNL     1       7.922  -0.290  23.298  0.00  0.00    -0.349 OA
ATOM      3  C   UNL     1       8.695   0.571  22.435  0.00  0.00    +0.178 C 
ATOM      4  C   UNL     1      10.079   0.761  23.076  0.00  0.00    +0.230 C 
ATOM      5  C   UNL     1      10.197  -0.489  23.923  0.00  0.00    +0.091 C 
ENDROOT
BRANCH   1  14
ATOM      6  C   UNL     1       7.795  -5.466  23.334  0.00  0.00    +0.051 C 
ATOM      7  C   UNL     1       8.020  -4.329  24.275  0.00  0.00    +0.030 A 
ATOM      8  C   UNL     1       7.974  -4.628  25.725  0.00  0.00    +0.257 A 
ATOM      9  O   UNL     1       7.774  -5.762  26.148  0.00  0.00    -0.267 OA
ATOM     10  N   UNL     1       8.181  -3.570  26.561  0.00  0.00    -0.275 N 
ATOM     11  H   UNL     1       8.173  -3.761  27.549  0.00  0.00    +0.173 HD
ATOM     12  C   UNL     1       8.484  -2.293  26.182  0.00  0.00    +0.331 A 
ATOM     13  O   UNL     1       8.752  -1.444  27.032  0.00  0.00    -0.246 OA
ATOM     14  N   UNL     1       8.473  -2.048  24.817  0.00  0.00    -0.274 N 
ATOM     15  C   UNL     1       8.260  -3.064  23.902  0.00  0.00    +0.101 A 
ENDBRANCH   1  14
BRANCH   4  16
ATOM     16  N   UNL     1      10.122   1.954  23.944  0.00  0.00    +0.125 NA
ATOM     17  N   UNL     1      10.778   2.913  23.506  0.00  0.00    +0.219 NA
ATOM     18  N   UNL     1      11.407   3.872  23.052  0.00  0.00    +0.104 NA
ATOM     19  H   UNL     1      11.052   4.751  23.440  0.00  0.00    +0.288 HD
ENDBRANCH   4  16
BRANCH   3  20
ATOM     20  C   UNL     1       7.912   1.851  22.146  0.00  0.00    +0.189 C 
BRANCH  20  21
ATOM     21  O   UNL     1       8.743   2.851  21.568  0.00  0.00    -0.392 OA
ATOM     22  H   UNL     1       8.168   3.609  21.368  0.00  0.00    +0.210 HD
ENDBRANCH  20  21
ENDBRANCH   3  20
TORSDOF 4
ENDMDL
MODEL 7
REMARK VINA RESULT:      -6.1      2.575      3.418
REMARK  Name = 
REMARK  5 active torsions:
REMARK  status: ('A' for Active; 'I' for Inactive)
REMARK    1  A    between atoms: C_1  and  C_2
REMARK    2  A    between atoms: N_4  and  C_10
REMARK    3  A    between atoms: C_12  and  N_17
REMARK    4  A    between atoms: C_13  and  C_15
REMARK    5  A    between atoms: C_15  and  O_16
REMARK                            x       y       z     vdW  Elec       q    Type
REMARK                         _______ _______ _______ _____ _____    ______ ____
ROOT
ATOM      1  C   UNL     1       8.032  -3.185  24.627  0.00  0.00    +0.226 C 
ATOM      2  O   UNL     1       6.859  -3.818  24.090  0.00  0.00    -0.349 OA
ATOM      3  C   UNL     1       6.066  -4.293  25.199  0.00  0.00    +0.178 C 
ATOM      4  C   UNL     1       6.832  -3.981  26.494  0.00  0.00    +0.230 C 
ATOM      5  C   UNL     1       7.696  -2.814  26.065  0.00  0.00    +0.091 C 
ENDROOT
BRANCH   1  14
ATOM      6  C   UNL     1       7.070   1.252  22.553  0.00  0.00    +0.051 C 
ATOM      7  C   UNL     1       7.947   0.079  22.843  0.00  0.00    +0.030 A 
ATOM      8  C   UNL     1       9.320   0.104  22.288  0.00  0.00    +0.257 A 
ATOM      9  O   UNL     1       9.737   1.049  21.628  0.00  0.00    -0.267 OA
ATOM     10  N   UNL     1      10.097  -0.983  22.567  0.00  0.00    -0.275 N 
ATOM     11  H   UNL     1      11.040  -0.972  22.214  0.00  0.00    +0.173 HD
ATOM     12  C   UNL     1       9.745  -2.044  23.352  0.00  0.00    +0.331 A 
ATOM     13  O   UNL     1      10.571  -2.918  23.617  0.00  0.00    -0.246 OA
ATOM     14  N   UNL     1       8.436  -2.047  23.814  0.00  0.00    -0.274 N 
ATOM     15  C   UNL     1       7.580  -0.989  23.565  0.00  0.00    +0.101 A 
ENDBRANCH   1  14
BRANCH   4  16
ATOM     16  N   UNL     1       7.691  -5.108  26.908  0.00  0.00    +0.125 NA
ATOM     17  N   UNL     1       7.262  -5.792  27.851  0.00  0.00    +0.219 NA
ATOM     18  N   UNL     1       6.816  -6.485  28.770  0.00  0.00    +0.104 NA
ATOM     19  H   UNL     1       7.188  -7.437  28.714  0.00  0.00    +0.288 HD
ENDBRANCH   4  16
BRANCH   3  20
ATOM     20  C   UNL     1       5.696  -5.759  24.979  0.00  0.00    +0.189 C 
BRANCH  20  21
ATOM     21  O   UNL     1       5.047  -6.309  26.119  0.00  0.00    -0.392 OA
ATOM     22  H   UNL     1       5.602  -6.088  26.888  0.00  0.00    +0.210 HD
ENDBRANCH  20  21
ENDBRANCH   3  20
TORSDOF 4
ENDMDL
MODEL 8
REMARK VINA RESULT:      -5.9      2.203      6.763
REMARK  Name = 
REMARK  5 active torsions:
REMARK  status: ('A' for Active; 'I' for Inactive)
REMARK    1  A    between atoms: C_1  and  C_2
REMARK    2  A    between atoms: N_4  and  C_10
REMARK    3  A    between atoms: C_12  and  N_17
REMARK    4  A    between atoms: C_13  and  C_15
REMARK    5  A    between atoms: C_15  and  O_16
REMARK                            x       y       z     vdW  Elec       q    Type
REMARK                         _______ _______ _______ _____ _____    ______ ____
ROOT
ATOM      1  C   UNL     1       7.850   1.622  23.302  0.00  0.00    +0.226 C 
ATOM      2  O   UNL     1       6.414   1.625  23.353  0.00  0.00    -0.349 OA
ATOM      3  C   UNL     1       5.941   2.615  22.415  0.00  0.00    +0.178 C 
ATOM      4  C   UNL     1       7.167   3.302  21.794  0.00  0.00    +0.230 C 
ATOM      5  C   UNL     1       8.231   2.236  21.962  0.00  0.00    +0.091 C 
ENDROOT
BRANCH   1  14
ATOM      6  C   UNL     1       7.689  -3.296  22.464  0.00  0.00    +0.051 C 
ATOM      7  C   UNL     1       8.281  -2.066  23.070  0.00  0.00    +0.030 A 
ATOM      8  C   UNL     1       9.502  -2.234  23.890  0.00  0.00    +0.257 A 
ATOM      9  O   UNL     1      10.024  -3.330  24.062  0.00  0.00    -0.267 OA
ATOM     10  N   UNL     1      10.019  -1.093  24.433  0.00  0.00    -0.275 N 
ATOM     11  H   UNL     1      10.861  -1.188  24.976  0.00  0.00    +0.173 HD
ATOM     12  C   UNL     1       9.551   0.175  24.236  0.00  0.00    +0.331 A 
ATOM     13  O   UNL     1      10.166   1.138  24.694  0.00  0.00    -0.246 OA
ATOM     14  N   UNL     1       8.381   0.281  23.498  0.00  0.00    -0.274 N 
ATOM     15  C   UNL     1       7.787  -0.829  22.923  0.00  0.00    +0.101 A 
ENDBRANCH   1  14
BRANCH   4  16
ATOM     16  N   UNL     1       7.555   4.513  22.544  0.00  0.00    +0.125 NA
ATOM     17  N   UNL     1       7.341   5.592  21.968  0.00  0.00    +0.219 NA
ATOM     18  N   UNL     1       7.099   6.661  21.403  0.00  0.00    +0.104 NA
ATOM     19  H   UNL     1       6.968   7.409  22.090  0.00  0.00    +0.288 HD
ENDBRANCH   4  16
BRANCH   3  20
ATOM     20  C   UNL     1       4.935   3.539  23.102  0.00  0.00    +0.189 C 
BRANCH  20  21
ATOM     21  O   UNL     1       4.626   4.666  22.291  0.00  0.00    -0.392 OA
ATOM     22  H   UNL     1       5.074   4.527  21.439  0.00  0.00    +0.210 HD
ENDBRANCH  20  21
ENDBRANCH   3  20
TORSDOF 4
ENDMDL
MODEL 9
REMARK VINA RESULT:      -5.8      2.122      6.660
REMARK  Name = 
REMARK  5 active torsions:
REMARK  status: ('A' for Active; 'I' for Inactive)
REMARK    1  A    between atoms: C_1  and  C_2
REMARK    2  A    between atoms: N_4  and  C_10
REMARK    3  A    between atoms: C_12  and  N_17
REMARK    4  A    between atoms: C_13  and  C_15
REMARK    5  A    between atoms: C_15  and  O_16
REMARK                            x       y       z     vdW  Elec       q    Type
REMARK                         _______ _______ _______ _____ _____    ______ ____
ROOT
ATOM      1  C   UNL     1       8.954   0.117  23.567  0.00  0.00    +0.226 C 
ATOM      2  O   UNL     1      10.087   0.882  24.010  0.00  0.00    -0.349 OA
ATOM      3  C   UNL     1       9.662   2.252  24.167  0.00  0.00    +0.178 C 
ATOM      4  C   UNL     1       8.189   2.342  23.737  0.00  0.00    +0.230 C 
ATOM      5  C   UNL     1       7.720   0.919  23.958  0.00  0.00    +0.091 C 
ENDROOT
BRANCH   1  14
ATOM      6  C   UNL     1       7.189  -3.314  26.734  0.00  0.00    +0.051 C 
ATOM      7  C   UNL     1       8.101  -2.847  25.647  0.00  0.00    +0.030 A 
ATOM      8  C   UNL     1       9.056  -3.834  25.092  0.00  0.00    +0.257 A 
ATOM      9  O   UNL     1       9.097  -4.993  25.489  0.00  0.00    -0.267 OA
ATOM     10  N   UNL     1       9.877  -3.378  24.102  0.00  0.00    -0.275 N 
ATOM     11  H   UNL     1      10.518  -4.043  23.699  0.00  0.00    +0.173 HD
ATOM     12  C   UNL     1       9.852  -2.131  23.545  0.00  0.00    +0.331 A 
ATOM     13  O   UNL     1      10.574  -1.869  22.584  0.00  0.00    -0.246 OA
ATOM     14  N   UNL     1       8.974  -1.227  24.126  0.00  0.00    -0.274 N 
ATOM     15  C   UNL     1       8.115  -1.606  25.142  0.00  0.00    +0.101 A 
ENDBRANCH   1  14
BRANCH   4  16
ATOM     16  N   UNL     1       8.056   2.692  22.309  0.00  0.00    +0.125 NA
ATOM     17  N   UNL     1       7.635   3.836  22.075  0.00  0.00    +0.219 NA
ATOM     18  N   UNL     1       7.242   4.983  21.848  0.00  0.00    +0.104 NA
ATOM     19  H   UNL     1       7.579   5.305  20.936  0.00  0.00    +0.288 HD
ENDBRANCH   4  16
BRANCH   3  20
ATOM     20  C   UNL     1      10.629   3.180  23.434  0.00  0.00    +0.189 C 
BRANCH  20  21
ATOM     21  O   UNL     1      10.112   4.503  23.341  0.00  0.00    -0.392 OA
ATOM     22  H   UNL     1       9.563   4.642  24.132  0.00  0.00    +0.210 HD
ENDBRANCH  20  21
ENDBRANCH   3  20
TORSDOF 4
ENDMDL
