MODEL 1
REMARK VINA RESULT:      -5.3      0.000      0.000
REMARK  Name = 
REMARK  3 active torsions:
REMARK  status: ('A' for Active; 'I' for Inactive)
REMARK    1  A    between atoms: C_1  and  C_2
REMARK    2  A    between atoms: C_2  and  C_4
REMARK    3  A    between atoms: C_2  and  N_14
REMARK                            x       y       z     vdW  Elec       q    Type
REMARK                         _______ _______ _______ _____ _____    ______ ____
ROOT
ATOM      1  C   UNL     1       9.270  -0.518  23.000  0.00  0.00    -0.014 C 
ATOM      2  C   UNL     1       9.803   0.265  21.761  0.00  0.00    +0.012 C 
ATOM      3  C   UNL     1       9.723   1.785  21.983  0.00  0.00    -0.010 C 
ATOM      4  C   UNL     1      10.563   2.160  23.213  0.00  0.00    +0.007 C 
ATOM      5  C   UNL     1      10.026   1.434  24.457  0.00  0.00    -0.010 C 
ATOM      6  C   UNL     1       8.561   1.835  24.687  0.00  0.00    +0.007 C 
ATOM      7  C   UNL     1       7.717   1.459  23.460  0.00  0.00    -0.010 C 
ATOM      8  C   UNL     1       8.260   2.186  22.223  0.00  0.00    +0.007 C 
ATOM      9  C   UNL     1       7.801  -0.062  23.239  0.00  0.00    +0.012 C 
ATOM     10  C   UNL     1      10.110  -0.087  24.235  0.00  0.00    +0.012 C 
ENDROOT
BRANCH   1  12
ATOM     11  C   UNL     1       7.963  -2.731  22.538  0.00  0.00    +0.024 C 
ATOM     12  C   UNL     1       9.329  -2.060  22.726  0.00  0.00    +0.054 C 
BRANCH  12  13
ATOM     13  N   UNL     1      10.047  -2.780  23.786  0.00  0.00    -0.327 NA
ATOM     14  H   UNL     1      11.052  -2.720  23.626  0.00  0.00    +0.118 HD
ATOM     15  H   UNL     1       9.881  -2.323  24.683  0.00  0.00    +0.118 HD
ENDBRANCH  12  13
ENDBRANCH   1  12
TORSDOF 2
ENDMDL
MODEL 2
REMARK VINA RESULT:      -5.3      0.352      2.241
REMARK  Name = 
REMARK  3 active torsions:
REMARK  status: ('A' for Active; 'I' for Inactive)
REMARK    1  A    between atoms: C_1  and  C_2
REMARK    2  A    between atoms: C_2  and  C_4
REMARK    3  A    between atoms: C_2  and  N_14
REMARK                            x       y       z     vdW  Elec       q    Type
REMARK                         _______ _______ _______ _____ _____    ______ ____
ROOT
ATOM      1  C   UNL     1       9.271  -0.509  22.859  0.00  0.00    -0.014 C 
ATOM      2  C   UNL     1       7.903  -0.133  23.508  0.00  0.00    +0.012 C 
ATOM      3  C   UNL     1       7.805   1.380  23.768  0.00  0.00    -0.010 C 
ATOM      4  C   UNL     1       7.951   2.130  22.436  0.00  0.00    +0.007 C 
ATOM      5  C   UNL     1       9.313   1.811  21.799  0.00  0.00    -0.010 C 
ATOM      6  C   UNL     1      10.434   2.234  22.760  0.00  0.00    +0.007 C 
ATOM      7  C   UNL     1      10.294   1.482  24.093  0.00  0.00    -0.010 C 
ATOM      8  C   UNL     1       8.931   1.805  24.720  0.00  0.00    +0.007 C 
ATOM      9  C   UNL     1      10.391  -0.031  23.830  0.00  0.00    +0.012 C 
ATOM     10  C   UNL     1       9.410   0.297  21.537  0.00  0.00    +0.012 C 
ENDROOT
BRANCH   1  12
ATOM     11  C   UNL     1       8.001  -2.758  22.477  0.00  0.00    +0.024 C 
ATOM     12  C   UNL     1       9.355  -2.059  22.645  0.00  0.00    +0.054 C 
BRANCH  12  13
ATOM     13  N   UNL     1      10.080  -2.726  23.735  0.00  0.00    -0.327 NA
ATOM     14  H   UNL     1      10.387  -2.036  24.420  0.00  0.00    +0.118 HD
ATOM     15  H   UNL     1       9.447  -3.350  24.235  0.00  0.00    +0.118 HD
ENDBRANCH  12  13
ENDBRANCH   1  12
TORSDOF 2
ENDMDL
MODEL 3
REMARK VINA RESULT:      -5.3      0.062      2.109
REMARK  Name = 
REMARK  3 active torsions:
REMARK  status: ('A' for Active; 'I' for Inactive)
REMARK    1  A    between atoms: C_1  and  C_2
REMARK    2  A    between atoms: C_2  and  C_4
REMARK    3  A    between atoms: C_2  and  N_14
REMARK                            x       y       z     vdW  Elec       q    Type
REMARK                         _______ _______ _______ _____ _____    ______ ____
ROOT
ATOM      1  C   UNL     1       9.204  -0.515  22.964  0.00  0.00    -0.014 C 
ATOM      2  C   UNL     1      10.033  -0.135  24.230  0.00  0.00    +0.012 C 
ATOM      3  C   UNL     1       9.997   1.381  24.488  0.00  0.00    -0.010 C 
ATOM      4  C   UNL     1       8.540   1.823  24.691  0.00  0.00    +0.007 C 
ATOM      5  C   UNL     1       7.713   1.500  23.435  0.00  0.00    -0.010 C 
ATOM      6  C   UNL     1       8.316   2.234  22.228  0.00  0.00    +0.007 C 
ATOM      7  C   UNL     1       9.772   1.791  22.019  0.00  0.00    -0.010 C 
ATOM      8  C   UNL     1      10.590   2.115  23.277  0.00  0.00    +0.007 C 
ATOM      9  C   UNL     1       9.805   0.274  21.764  0.00  0.00    +0.012 C 
ATOM     10  C   UNL     1       7.747  -0.018  23.180  0.00  0.00    +0.012 C 
ENDROOT
BRANCH   1  12
ATOM     11  C   UNL     1       7.942  -2.764  22.556  0.00  0.00    +0.024 C 
ATOM     12  C   UNL     1       9.294  -2.058  22.708  0.00  0.00    +0.054 C 
BRANCH  12  13
ATOM     13  N   UNL     1      10.052  -2.747  23.761  0.00  0.00    -0.327 NA
ATOM     14  H   UNL     1       9.411  -3.230  24.390  0.00  0.00    +0.118 HD
ATOM     15  H   UNL     1      10.633  -3.474  23.345  0.00  0.00    +0.118 HD
ENDBRANCH  12  13
ENDBRANCH   1  12
TORSDOF 2
ENDMDL
MODEL 4
REMARK VINA RESULT:      -5.2      1.957      3.902
REMARK  Name = 
REMARK  3 active torsions:
REMARK  status: ('A' for Active; 'I' for Inactive)
REMARK    1  A    between atoms: C_1  and  C_2
REMARK    2  A    between atoms: C_2  and  C_4
REMARK    3  A    between atoms: C_2  and  N_14
REMARK                            x       y       z     vdW  Elec       q    Type
REMARK                         _______ _______ _______ _____ _____    ______ ____
ROOT
ATOM      1  C   UNL     1       9.496   0.487  22.899  0.00  0.00    -0.014 C 
ATOM      2  C   UNL     1       7.941   0.503  23.019  0.00  0.00    +0.012 C 
ATOM      3  C   UNL     1       7.403  -0.861  23.482  0.00  0.00    -0.010 C 
ATOM      4  C   UNL     1       8.009  -1.205  24.851  0.00  0.00    +0.007 C 
ATOM      5  C   UNL     1       9.541  -1.271  24.745  0.00  0.00    -0.010 C 
ATOM      6  C   UNL     1       9.934  -2.345  23.719  0.00  0.00    +0.007 C 
ATOM      7  C   UNL     1       9.332  -2.003  22.347  0.00  0.00    -0.010 C 
ATOM      8  C   UNL     1       7.803  -1.937  22.462  0.00  0.00    +0.007 C 
ATOM      9  C   UNL     1       9.871  -0.636  21.888  0.00  0.00    +0.012 C 
ATOM     10  C   UNL     1      10.080   0.096  24.286  0.00  0.00    +0.012 C 
ENDROOT
BRANCH   1  12
ATOM     11  C   UNL     1      10.597   2.784  23.476  0.00  0.00    +0.024 C 
ATOM     12  C   UNL     1      10.009   1.878  22.388  0.00  0.00    +0.054 C 
BRANCH  12  13
ATOM     13  N   UNL     1       8.955   2.629  21.691  0.00  0.00    -0.327 NA
ATOM     14  H   UNL     1       9.130   3.630  21.774  0.00  0.00    +0.118 HD
ATOM     15  H   UNL     1       8.992   2.422  20.693  0.00  0.00    +0.118 HD
ENDBRANCH  12  13
ENDBRANCH   1  12
TORSDOF 2
ENDMDL
MODEL 5
REMARK VINA RESULT:      -5.2      1.945      3.925
REMARK  Name = 
REMARK  3 active torsions:
REMARK  status: ('A' for Active; 'I' for Inactive)
REMARK    1  A    between atoms: C_1  and  C_2
REMARK    2  A    between atoms: C_2  and  C_4
REMARK    3  A    between atoms: C_2  and  N_14
REMARK                            x       y       z     vdW  Elec       q    Type
REMARK                         _______ _______ _______ _____ _____    ______ ____
ROOT
ATOM      1  C   UNL     1       9.460   0.402  22.865  0.00  0.00    -0.014 C 
ATOM      2  C   UNL     1      10.077   0.040  24.251  0.00  0.00    +0.012 C 
ATOM      3  C   UNL     1       9.511  -1.287  24.785  0.00  0.00    -0.010 C 
ATOM      4  C   UNL     1       9.828  -2.409  23.786  0.00  0.00    +0.007 C 
ATOM      5  C   UNL     1       9.190  -2.095  22.423  0.00  0.00    -0.010 C 
ATOM      6  C   UNL     1       7.668  -1.965  22.593  0.00  0.00    +0.007 C 
ATOM      7  C   UNL     1       7.347  -0.840  23.589  0.00  0.00    -0.010 C 
ATOM      8  C   UNL     1       7.989  -1.161  24.946  0.00  0.00    +0.007 C 
ATOM      9  C   UNL     1       7.916   0.485  23.053  0.00  0.00    +0.012 C 
ATOM     10  C   UNL     1       9.759  -0.769  21.888  0.00  0.00    +0.012 C 
ENDROOT
BRANCH   1  12
ATOM     11  C   UNL     1      10.588   2.677  23.474  0.00  0.00    +0.024 C 
ATOM     12  C   UNL     1      10.027   1.776  22.368  0.00  0.00    +0.054 C 
BRANCH  12  13
ATOM     13  N   UNL     1       9.024   2.546  21.620  0.00  0.00    -0.327 NA
ATOM     14  H   UNL     1       9.000   3.507  21.960  0.00  0.00    +0.118 HD
ATOM     15  H   UNL     1       9.299   2.604  20.640  0.00  0.00    +0.118 HD
ENDBRANCH  12  13
ENDBRANCH   1  12
TORSDOF 2
ENDMDL
MODEL 6
REMARK VINA RESULT:      -5.2      1.888      3.929
REMARK  Name = 
REMARK  3 active torsions:
REMARK  status: ('A' for Active; 'I' for Inactive)
REMARK    1  A    between atoms: C_1  and  C_2
REMARK    2  A    between atoms: C_2  and  C_4
REMARK    3  A    between atoms: C_2  and  N_14
REMARK                            x       y       z     vdW  Elec       q    Type
REMARK                         _______ _______ _______ _____ _____    ______ ____
ROOT
ATOM      1  C   UNL     1       9.526   0.513  23.302  0.00  0.00    -0.014 C 
ATOM      2  C   UNL     1      10.002  -0.491  22.208  0.00  0.00    +0.012 C 
ATOM      3  C   UNL     1       9.406  -1.891  22.436  0.00  0.00    -0.010 C 
ATOM      4  C   UNL     1       7.873  -1.797  22.400  0.00  0.00    +0.007 C 
ATOM      5  C   UNL     1       7.378  -0.847  23.502  0.00  0.00    -0.010 C 
ATOM      6  C   UNL     1       7.834  -1.375  24.870  0.00  0.00    +0.007 C 
ATOM      7  C   UNL     1       9.367  -1.466  24.912  0.00  0.00    -0.010 C 
ATOM      8  C   UNL     1       9.853  -2.415  23.808  0.00  0.00    +0.007 C 
ATOM      9  C   UNL     1       9.961  -0.065  24.681  0.00  0.00    +0.012 C 
ATOM     10  C   UNL     1       7.973   0.554  23.270  0.00  0.00    +0.012 C 
ENDROOT
BRANCH   1  12
ATOM     11  C   UNL     1       9.580   3.056  23.893  0.00  0.00    +0.024 C 
ATOM     12  C   UNL     1      10.182   1.916  23.064  0.00  0.00    +0.054 C 
BRANCH  12  13
ATOM     13  N   UNL     1      10.137   2.310  21.648  0.00  0.00    -0.327 NA
ATOM     14  H   UNL     1      10.624   1.618  21.080  0.00  0.00    +0.118 HD
ATOM     15  H   UNL     1       9.171   2.307  21.323  0.00  0.00    +0.118 HD
ENDBRANCH  12  13
ENDBRANCH   1  12
TORSDOF 2
ENDMDL
MODEL 7
REMARK VINA RESULT:      -5.1      2.289      4.109
REMARK  Name = 
REMARK  3 active torsions:
REMARK  status: ('A' for Active; 'I' for Inactive)
REMARK    1  A    between atoms: C_1  and  C_2
REMARK    2  A    between atoms: C_2  and  C_4
REMARK    3  A    between atoms: C_2  and  N_14
REMARK                            x       y       z     vdW  Elec       q    Type
REMARK                         _______ _______ _______ _____ _____    ______ ____
ROOT
ATOM      1  C   UNL     1       9.937   2.114  23.549  0.00  0.00    -0.014 C 
ATOM      2  C   UNL     1      10.827   1.095  24.325  0.00  0.00    +0.012 C 
ATOM      3  C   UNL     1      10.312  -0.344  24.147  0.00  0.00    -0.010 C 
ATOM      4  C   UNL     1      10.323  -0.702  22.654  0.00  0.00    +0.007 C 
ATOM      5  C   UNL     1       9.415   0.263  21.875  0.00  0.00    -0.010 C 
ATOM      6  C   UNL     1       7.983   0.166  22.422  0.00  0.00    +0.007 C 
ATOM      7  C   UNL     1       7.967   0.528  23.915  0.00  0.00    -0.010 C 
ATOM      8  C   UNL     1       8.877  -0.439  24.684  0.00  0.00    +0.007 C 
ATOM      9  C   UNL     1       8.484   1.966  24.090  0.00  0.00    +0.012 C 
ATOM     10  C   UNL     1       9.933   1.702  22.050  0.00  0.00    +0.012 C 
ENDROOT
BRANCH   1  12
ATOM     11  C   UNL     1       9.372   4.644  23.863  0.00  0.00    +0.024 C 
ATOM     12  C   UNL     1      10.464   3.572  23.783  0.00  0.00    +0.054 C 
BRANCH  12  13
ATOM     13  N   UNL     1      11.428   3.980  22.751  0.00  0.00    -0.327 NA
ATOM     14  H   UNL     1      12.370   3.710  23.031  0.00  0.00    +0.118 HD
ATOM     15  H   UNL     1      11.238   3.474  21.887  0.00  0.00    +0.118 HD
ENDBRANCH  12  13
ENDBRANCH   1  12
TORSDOF 2
ENDMDL
MODEL 8
REMARK VINA RESULT:      -5.0      2.135      3.416
REMARK  Name = 
REMARK  3 active torsions:
REMARK  status: ('A' for Active; 'I' for Inactive)
REMARK    1  A    between atoms: C_1  and  C_2
REMARK    2  A    between atoms: C_2  and  C_4
REMARK    3  A    between atoms: C_2  and  N_14
REMARK                            x       y       z     vdW  Elec       q    Type
REMARK                         _______ _______ _______ _____ _____    ______ ____
ROOT
ATOM      1  C   UNL     1       7.962   0.937  23.781  0.00  0.00    -0.014 C 
ATOM      2  C   UNL     1       8.851   2.058  24.402  0.00  0.00    +0.012 C 
ATOM      3  C   UNL     1      10.301   1.967  23.895  0.00  0.00    -0.010 C 
ATOM      4  C   UNL     1      10.310   2.108  22.366  0.00  0.00    +0.007 C 
ATOM      5  C   UNL     1       9.476   0.984  21.730  0.00  0.00    -0.010 C 
ATOM      6  C   UNL     1      10.067  -0.376  22.130  0.00  0.00    +0.007 C 
ATOM      7  C   UNL     1      10.056  -0.523  23.659  0.00  0.00    -0.010 C 
ATOM      8  C   UNL     1      10.889   0.603  24.286  0.00  0.00    +0.007 C 
ATOM      9  C   UNL     1       8.605  -0.428  24.163  0.00  0.00    +0.012 C 
ATOM     10  C   UNL     1       8.025   1.079  22.235  0.00  0.00    +0.012 C 
ENDROOT
BRANCH   1  12
ATOM     11  C   UNL     1       5.892  -0.303  24.780  0.00  0.00    +0.024 C 
ATOM     12  C   UNL     1       6.504   1.035  24.348  0.00  0.00    +0.054 C 
BRANCH  12  13
ATOM     13  N   UNL     1       5.584   1.667  23.392  0.00  0.00    -0.327 NA
ATOM     14  H   UNL     1       5.878   2.626  23.211  0.00  0.00    +0.118 HD
ATOM     15  H   UNL     1       5.639   1.186  22.495  0.00  0.00    +0.118 HD
ENDBRANCH  12  13
ENDBRANCH   1  12
TORSDOF 2
ENDMDL
MODEL 9
REMARK VINA RESULT:      -5.0      2.133      3.176
REMARK  Name = 
REMARK  3 active torsions:
REMARK  status: ('A' for Active; 'I' for Inactive)
REMARK    1  A    between atoms: C_1  and  C_2
REMARK    2  A    between atoms: C_2  and  C_4
REMARK    3  A    between atoms: C_2  and  N_14
REMARK                            x       y       z     vdW  Elec       q    Type
REMARK                         _______ _______ _______ _____ _____    ______ ____
ROOT
ATOM      1  C   UNL     1       7.976   0.842  23.907  0.00  0.00    -0.014 C 
ATOM      2  C   UNL     1       8.720  -0.444  24.380  0.00  0.00    +0.012 C 
ATOM      3  C   UNL     1      10.152  -0.498  23.822  0.00  0.00    -0.010 C 
ATOM      4  C   UNL     1      10.928   0.737  24.303  0.00  0.00    +0.007 C 
ATOM      5  C   UNL     1      10.236   2.018  23.808  0.00  0.00    -0.010 C 
ATOM      6  C   UNL     1      10.181   2.004  22.273  0.00  0.00    +0.007 C 
ATOM      7  C   UNL     1       9.403   0.772  21.788  0.00  0.00    -0.010 C 
ATOM      8  C   UNL     1      10.098  -0.501  22.288  0.00  0.00    +0.007 C 
ATOM      9  C   UNL     1       7.971   0.828  22.350  0.00  0.00    +0.012 C 
ATOM     10  C   UNL     1       8.804   2.073  24.371  0.00  0.00    +0.012 C 
ENDROOT
BRANCH   1  12
ATOM     11  C   UNL     1       5.906  -0.544  24.692  0.00  0.00    +0.024 C 
ATOM     12  C   UNL     1       6.509   0.847  24.460  0.00  0.00    +0.054 C 
BRANCH  12  13
ATOM     13  N   UNL     1       5.596   1.599  23.588  0.00  0.00    -0.327 NA
ATOM     14  H   UNL     1       4.641   1.523  23.939  0.00  0.00    +0.118 HD
ATOM     15  H   UNL     1       5.827   2.591  23.625  0.00  0.00    +0.118 HD
ENDBRANCH  12  13
ENDBRANCH   1  12
TORSDOF 2
ENDMDL
