MODEL 1
REMARK VINA RESULT:      -6.4      0.000      0.000
REMARK  Name = 
REMARK  18 active torsions:
REMARK  status: ('A' for Active; 'I' for Inactive)
REMARK    1  A    between atoms: C_1  and  C_2
REMARK    2  A    between atoms: C_2  and  C_3
REMARK    3  A    between atoms: C_3  and  C_4
REMARK    4  A    between atoms: C_4  and  C_5
REMARK    5  A    between atoms: C_4  and  N_13
REMARK    6  A    between atoms: C_5  and  C_7
REMARK    7  A    between atoms: N_9  and  C_10
REMARK    8  A    between atoms: C_14  and  C_16
REMARK    9  A    between atoms: C_26  and  C_28
REMARK   10  A    between atoms: C_28  and  C_29
REMARK   11  A    between atoms: C_28  and  N_33
REMARK   12  A    between atoms: C_29  and  C_30
REMARK   13  A    between atoms: C_29  and  C_31
REMARK   14  A    between atoms: C_29  and  C_32
REMARK   15  A    between atoms: C_34  and  C_36
REMARK   16  A    between atoms: C_36  and  C_37
REMARK   17  A    between atoms: C_36  and  N_43
REMARK   18  A    between atoms: C_44  and  C_46
REMARK                            x       y       z     vdW  Elec       q    Type
REMARK                         _______ _______ _______ _____ _____    ______ ____
ROOT
ATOM      1  C   UNL     1       3.807  -2.306  25.801  0.00  0.00    +0.165 C 
ATOM      2  N   UNL     1       5.211  -1.874  25.989  0.00  0.00    -0.288 N 
ATOM      3  C   UNL     1       6.006  -1.560  24.898  0.00  0.00    +0.237 C 
ATOM      4  O   UNL     1       5.679  -1.963  23.780  0.00  0.00    -0.274 OA
ATOM      5  C   UNL     1       5.375  -1.357  27.337  0.00  0.00    +0.112 C 
ATOM      6  C   UNL     1       4.489  -2.283  28.148  0.00  0.00    +0.012 C 
ATOM      7  C   UNL     1       3.965  -1.722  29.454  0.00  0.00    +0.005 C 
ATOM      8  C   UNL     1       2.821  -0.802  29.046  0.00  0.00    +0.001 C 
ATOM      9  C   UNL     1       2.292  -1.339  27.711  0.00  0.00    +0.006 C 
ATOM     10  C   UNL     1       3.258  -2.448  27.249  0.00  0.00    +0.023 C 
ENDROOT
BRANCH   1  13
ATOM     11  N   UNL     1       4.470  -4.557  24.901  0.00  0.00    -0.304 N 
ATOM     12  H   UNL     1       5.429  -4.263  25.068  0.00  0.00    +0.149 HD
ATOM     13  C   UNL     1       3.489  -3.595  24.999  0.00  0.00    +0.234 C 
ATOM     14  O   UNL     1       2.338  -3.806  24.607  0.00  0.00    -0.274 OA
BRANCH  11  15
ATOM     15  C   UNL     1       4.236  -5.789  24.126  0.00  0.00    +0.149 C 
BRANCH  15  16
ATOM     16  C   UNL     1       4.179  -6.989  25.071  0.00  0.00    +0.237 C 
ATOM     17  O   UNL     1       3.645  -8.064  24.803  0.00  0.00    -0.285 OA
BRANCH  16  18
ATOM     18  C   UNL     1       4.792  -6.793  26.465  0.00  0.00    +0.282 C 
ATOM     19  N   UNL     1       3.924  -7.071  27.499  0.00  0.00    -0.306 N 
ATOM     20  H   UNL     1       2.992  -7.391  27.244  0.00  0.00    +0.149 HD
ATOM     21  O   UNL     1       5.952  -6.421  26.590  0.00  0.00    -0.267 OA
BRANCH  19  22
ATOM     22  C   UNL     1       4.300  -6.988  28.875  0.00  0.00    +0.073 C 
ATOM     23  C   UNL     1       3.263  -6.796  29.949  0.00  0.00    +0.024 C 
ATOM     24  C   UNL     1       4.214  -5.685  29.617  0.00  0.00    +0.024 C 
ENDBRANCH  19  22
ENDBRANCH  16  18
ENDBRANCH  15  16
BRANCH  15  25
ATOM     25  C   UNL     1       5.348  -5.993  23.076  0.00  0.00    +0.030 C 
BRANCH  25  27
ATOM     26  C   UNL     1       7.319  -4.648  22.212  0.00  0.00    +0.004 C 
ATOM     27  C   UNL     1       6.656  -5.272  23.432  0.00  0.00    -0.001 C 
ENDBRANCH  25  27
ENDBRANCH  15  25
ENDBRANCH  11  15
ENDBRANCH   1  13
BRANCH   3  28
ATOM     28  C   UNL     1       7.230  -0.607  25.102  0.00  0.00    +0.164 C 
BRANCH  28  29
ATOM     29  N   UNL     1       6.871   0.657  24.433  0.00  0.00    -0.302 N 
ATOM     30  H   UNL     1       6.702   0.620  23.435  0.00  0.00    +0.150 HD
ATOM     31  C   UNL     1       6.860   1.887  25.063  0.00  0.00    +0.234 C 
ATOM     32  O   UNL     1       7.174   2.014  26.252  0.00  0.00    -0.274 OA
BRANCH  31  33
ATOM     33  C   UNL     1       6.413   3.092  24.178  0.00  0.00    +0.162 C 
BRANCH  33  34
ATOM     34  C   UNL     1       7.470   3.323  23.054  0.00  0.00    +0.018 C 
ATOM     35  C   UNL     1       8.911   3.438  23.587  0.00  0.00    +0.006 C 
ATOM     36  C   UNL     1       9.185   4.746  24.323  0.00  0.00    +0.000 C 
ATOM     37  C   UNL     1       8.856   5.958  23.460  0.00  0.00    +0.000 C 
ATOM     38  C   UNL     1       7.449   5.881  22.873  0.00  0.00    +0.000 C 
ATOM     39  C   UNL     1       7.193   4.553  22.164  0.00  0.00    +0.006 C 
ENDBRANCH  33  34
BRANCH  33  40
ATOM     40  N   UNL     1       5.084   2.799  23.616  0.00  0.00    -0.298 N 
ATOM     41  H   UNL     1       4.936   1.967  23.050  0.00  0.00    +0.150 HD
ATOM     42  C   UNL     1       4.032   3.681  23.720  0.00  0.00    +0.264 C 
ATOM     43  O   UNL     1       4.102   4.732  24.347  0.00  0.00    -0.268 OA
BRANCH  42  44
ATOM     44  C   UNL     1       2.775   3.299  23.001  0.00  0.00    +0.143 A 
ATOM     45  C   UNL     1       2.776   3.228  21.613  0.00  0.00    +0.143 A 
ATOM     46  N   UNL     1       1.690   2.827  20.899  0.00  0.00    -0.259 NA
ATOM     47  C   UNL     1       0.605   2.502  21.636  0.00  0.00    +0.130 A 
ATOM     48  C   UNL     1       0.601   2.582  23.022  0.00  0.00    +0.131 A 
ATOM     49  N   UNL     1       1.676   2.983  23.745  0.00  0.00    -0.247 NA
ENDBRANCH  42  44
ENDBRANCH  33  40
ENDBRANCH  31  33
ENDBRANCH  28  29
BRANCH  28  50
ATOM     50  C   UNL     1       8.613  -1.169  24.604  0.00  0.00    -0.011 C 
ATOM     51  C   UNL     1       9.775  -0.321  25.162  0.00  0.00    +0.013 C 
ATOM     52  C   UNL     1       8.688  -1.079  23.066  0.00  0.00    +0.013 C 
ATOM     53  C   UNL     1       8.853  -2.644  25.000  0.00  0.00    +0.013 C 
ENDBRANCH  28  50
ENDBRANCH   3  28
TORSDOF 14
ENDMDL
MODEL 2
REMARK VINA RESULT:      -6.2      1.627      2.342
REMARK  Name = 
REMARK  18 active torsions:
REMARK  status: ('A' for Active; 'I' for Inactive)
REMARK    1  A    between atoms: C_1  and  C_2
REMARK    2  A    between atoms: C_2  and  C_3
REMARK    3  A    between atoms: C_3  and  C_4
REMARK    4  A    between atoms: C_4  and  C_5
REMARK    5  A    between atoms: C_4  and  N_13
REMARK    6  A    between atoms: C_5  and  C_7
REMARK    7  A    between atoms: N_9  and  C_10
REMARK    8  A    between atoms: C_14  and  C_16
REMARK    9  A    between atoms: C_26  and  C_28
REMARK   10  A    between atoms: C_28  and  C_29
REMARK   11  A    between atoms: C_28  and  N_33
REMARK   12  A    between atoms: C_29  and  C_30
REMARK   13  A    between atoms: C_29  and  C_31
REMARK   14  A    between atoms: C_29  and  C_32
REMARK   15  A    between atoms: C_34  and  C_36
REMARK   16  A    between atoms: C_36  and  C_37
REMARK   17  A    between atoms: C_36  and  N_43
REMARK   18  A    between atoms: C_44  and  C_46
REMARK                            x       y       z     vdW  Elec       q    Type
REMARK                         _______ _______ _______ _____ _____    ______ ____
ROOT
ATOM      1  C   UNL     1       4.808  -1.775  25.336  0.00  0.00    +0.165 C 
ATOM      2  N   UNL     1       6.150  -1.194  25.571  0.00  0.00    -0.288 N 
ATOM      3  C   UNL     1       6.992  -0.908  24.507  0.00  0.00    +0.237 C 
ATOM      4  O   UNL     1       6.784  -1.442  23.416  0.00  0.00    -0.274 OA
ATOM      5  C   UNL     1       6.168  -0.542  26.869  0.00  0.00    +0.112 C 
ATOM      6  C   UNL     1       5.311  -1.470  27.708  0.00  0.00    +0.012 C 
ATOM      7  C   UNL     1       4.644  -0.843  28.917  0.00  0.00    +0.005 C 
ATOM      8  C   UNL     1       3.456  -0.080  28.347  0.00  0.00    +0.001 C 
ATOM      9  C   UNL     1       3.077  -0.786  27.039  0.00  0.00    +0.006 C 
ATOM     10  C   UNL     1       4.168  -1.834  26.753  0.00  0.00    +0.023 C 
ENDROOT
BRANCH   1  13
ATOM     11  N   UNL     1       5.754  -4.001  24.656  0.00  0.00    -0.304 N 
ATOM     12  H   UNL     1       6.666  -3.583  24.816  0.00  0.00    +0.149 HD
ATOM     13  C   UNL     1       4.666  -3.157  24.647  0.00  0.00    +0.234 C 
ATOM     14  O   UNL     1       3.560  -3.535  24.250  0.00  0.00    -0.274 OA
BRANCH  11  15
ATOM     15  C   UNL     1       5.688  -5.315  23.990  0.00  0.00    +0.149 C 
BRANCH  15  16
ATOM     16  C   UNL     1       5.066  -6.342  24.935  0.00  0.00    +0.237 C 
ATOM     17  O   UNL     1       5.538  -6.664  26.025  0.00  0.00    -0.285 OA
BRANCH  16  18
ATOM     18  C   UNL     1       3.792  -7.043  24.443  0.00  0.00    +0.282 C 
ATOM     19  N   UNL     1       3.083  -6.319  23.509  0.00  0.00    -0.306 N 
ATOM     20  H   UNL     1       3.475  -5.423  23.228  0.00  0.00    +0.149 HD
ATOM     21  O   UNL     1       3.479  -8.146  24.875  0.00  0.00    -0.267 OA
BRANCH  19  22
ATOM     22  C   UNL     1       1.887  -6.801  22.894  0.00  0.00    +0.073 C 
ATOM     23  C   UNL     1       0.770  -5.860  22.533  0.00  0.00    +0.024 C 
ATOM     24  C   UNL     1       0.593  -6.837  23.656  0.00  0.00    +0.024 C 
ENDBRANCH  19  22
ENDBRANCH  16  18
ENDBRANCH  15  16
BRANCH  15  25
ATOM     25  C   UNL     1       7.094  -5.777  23.555  0.00  0.00    +0.030 C 
BRANCH  25  27
ATOM     26  C   UNL     1       5.958  -5.878  21.288  0.00  0.00    +0.004 C 
ATOM     27  C   UNL     1       7.284  -5.789  22.032  0.00  0.00    -0.001 C 
ENDBRANCH  25  27
ENDBRANCH  15  25
ENDBRANCH  11  15
ENDBRANCH   1  13
BRANCH   3  28
ATOM     28  C   UNL     1       8.107   0.173  24.695  0.00  0.00    +0.164 C 
BRANCH  28  29
ATOM     29  N   UNL     1       7.559   1.420  24.129  0.00  0.00    -0.302 N 
ATOM     30  H   UNL     1       7.432   1.454  23.125  0.00  0.00    +0.150 HD
ATOM     31  C   UNL     1       7.314   2.560  24.870  0.00  0.00    +0.234 C 
ATOM     32  O   UNL     1       7.561   2.619  26.080  0.00  0.00    -0.274 OA
BRANCH  31  33
ATOM     33  C   UNL     1       6.696   3.755  24.080  0.00  0.00    +0.162 C 
BRANCH  33  34
ATOM     34  C   UNL     1       7.690   4.201  22.963  0.00  0.00    +0.018 C 
ATOM     35  C   UNL     1       9.141   4.351  23.462  0.00  0.00    +0.006 C 
ATOM     36  C   UNL     1       9.354   5.573  24.351  0.00  0.00    +0.000 C 
ATOM     37  C   UNL     1       8.911   6.857  23.660  0.00  0.00    +0.000 C 
ATOM     38  C   UNL     1       7.490   6.753  23.111  0.00  0.00    +0.000 C 
ATOM     39  C   UNL     1       7.296   5.510  22.246  0.00  0.00    +0.006 C 
ENDBRANCH  33  34
BRANCH  33  40
ATOM     40  N   UNL     1       5.405   3.331  23.514  0.00  0.00    -0.298 N 
ATOM     41  H   UNL     1       5.367   2.598  22.811  0.00  0.00    +0.150 HD
ATOM     42  C   UNL     1       4.226   3.979  23.809  0.00  0.00    +0.264 C 
ATOM     43  O   UNL     1       4.153   4.900  24.614  0.00  0.00    -0.268 OA
BRANCH  42  44
ATOM     44  C   UNL     1       3.011   3.509  23.070  0.00  0.00    +0.143 A 
ATOM     45  C   UNL     1       3.048   3.412  21.684  0.00  0.00    +0.143 A 
ATOM     46  N   UNL     1       2.004   2.934  20.955  0.00  0.00    -0.259 NA
ATOM     47  C   UNL     1       0.924   2.558  21.674  0.00  0.00    +0.130 A 
ATOM     48  C   UNL     1       0.883   2.663  23.058  0.00  0.00    +0.131 A 
ATOM     49  N   UNL     1       1.916   3.141  23.796  0.00  0.00    -0.247 NA
ENDBRANCH  42  44
ENDBRANCH  33  40
ENDBRANCH  31  33
ENDBRANCH  28  29
BRANCH  28  50
ATOM     50  C   UNL     1       9.509  -0.191  24.079  0.00  0.00    -0.011 C 
ATOM     51  C   UNL     1       9.791  -1.700  24.227  0.00  0.00    +0.013 C 
ATOM     52  C   UNL     1      10.623   0.552  24.846  0.00  0.00    +0.013 C 
ATOM     53  C   UNL     1       9.637   0.184  22.585  0.00  0.00    +0.013 C 
ENDBRANCH  28  50
ENDBRANCH   3  28
TORSDOF 14
ENDMDL
MODEL 3
REMARK VINA RESULT:      -6.2      2.693      9.785
REMARK  Name = 
REMARK  18 active torsions:
REMARK  status: ('A' for Active; 'I' for Inactive)
REMARK    1  A    between atoms: C_1  and  C_2
REMARK    2  A    between atoms: C_2  and  C_3
REMARK    3  A    between atoms: C_3  and  C_4
REMARK    4  A    between atoms: C_4  and  C_5
REMARK    5  A    between atoms: C_4  and  N_13
REMARK    6  A    between atoms: C_5  and  C_7
REMARK    7  A    between atoms: N_9  and  C_10
REMARK    8  A    between atoms: C_14  and  C_16
REMARK    9  A    between atoms: C_26  and  C_28
REMARK   10  A    between atoms: C_28  and  C_29
REMARK   11  A    between atoms: C_28  and  N_33
REMARK   12  A    between atoms: C_29  and  C_30
REMARK   13  A    between atoms: C_29  and  C_31
REMARK   14  A    between atoms: C_29  and  C_32
REMARK   15  A    between atoms: C_34  and  C_36
REMARK   16  A    between atoms: C_36  and  C_37
REMARK   17  A    between atoms: C_36  and  N_43
REMARK   18  A    between atoms: C_44  and  C_46
REMARK                            x       y       z     vdW  Elec       q    Type
REMARK                         _______ _______ _______ _____ _____    ______ ____
ROOT
ATOM      1  C   UNL     1       7.274   1.307  23.495  0.00  0.00    +0.165 C 
ATOM      2  N   UNL     1       6.973   1.214  24.942  0.00  0.00    -0.288 N 
ATOM      3  C   UNL     1       5.663   1.241  25.395  0.00  0.00    +0.237 C 
ATOM      4  O   UNL     1       4.782   1.684  24.657  0.00  0.00    -0.274 OA
ATOM      5  C   UNL     1       8.096   0.593  25.624  0.00  0.00    +0.112 C 
ATOM      6  C   UNL     1       9.285   1.168  24.877  0.00  0.00    +0.012 C 
ATOM      7  C   UNL     1      10.554   0.340  24.917  0.00  0.00    +0.005 C 
ATOM      8  C   UNL     1      10.316  -0.776  23.908  0.00  0.00    +0.001 C 
ATOM      9  C   UNL     1       9.312  -0.227  22.887  0.00  0.00    +0.006 C 
ATOM     10  C   UNL     1       8.818   1.133  23.418  0.00  0.00    +0.023 C 
ENDROOT
BRANCH   1  13
ATOM     11  N   UNL     1       6.731   3.758  23.371  0.00  0.00    -0.304 N 
ATOM     12  H   UNL     1       6.601   3.708  24.378  0.00  0.00    +0.149 HD
ATOM     13  C   UNL     1       6.856   2.566  22.691  0.00  0.00    +0.234 C 
ATOM     14  O   UNL     1       6.799   2.519  21.460  0.00  0.00    -0.274 OA
BRANCH  11  15
ATOM     15  C   UNL     1       6.306   4.982  22.666  0.00  0.00    +0.149 C 
BRANCH  15  16
ATOM     16  C   UNL     1       7.404   6.040  22.763  0.00  0.00    +0.237 C 
ATOM     17  O   UNL     1       7.409   7.101  22.141  0.00  0.00    -0.285 OA
BRANCH  16  18
ATOM     18  C   UNL     1       8.600   5.705  23.667  0.00  0.00    +0.282 C 
ATOM     19  N   UNL     1       9.815   5.741  23.018  0.00  0.00    -0.306 N 
ATOM     20  H   UNL     1       9.804   6.000  22.035  0.00  0.00    +0.149 HD
ATOM     21  O   UNL     1       8.432   5.437  24.851  0.00  0.00    -0.267 OA
BRANCH  19  22
ATOM     22  C   UNL     1      11.058   5.497  23.680  0.00  0.00    +0.073 C 
ATOM     23  C   UNL     1      12.361   5.584  22.932  0.00  0.00    +0.024 C 
ATOM     24  C   UNL     1      11.848   4.252  23.393  0.00  0.00    +0.024 C 
ENDBRANCH  19  22
ENDBRANCH  16  18
ENDBRANCH  15  16
BRANCH  15  25
ATOM     25  C   UNL     1       4.991   5.525  23.261  0.00  0.00    +0.030 C 
BRANCH  25  27
ATOM     26  C   UNL     1       4.701   6.622  25.530  0.00  0.00    +0.004 C 
ATOM     27  C   UNL     1       4.878   5.311  24.777  0.00  0.00    -0.001 C 
ENDBRANCH  25  27
ENDBRANCH  15  25
ENDBRANCH  11  15
ENDBRANCH   1  13
BRANCH   3  28
ATOM     28  C   UNL     1       5.329   0.601  26.783  0.00  0.00    +0.164 C 
BRANCH  28  29
ATOM     29  N   UNL     1       4.638  -0.668  26.484  0.00  0.00    -0.302 N 
ATOM     30  H   UNL     1       3.715  -0.605  26.072  0.00  0.00    +0.150 HD
ATOM     31  C   UNL     1       5.129  -1.913  26.829  0.00  0.00    +0.234 C 
ATOM     32  O   UNL     1       6.195  -2.048  27.440  0.00  0.00    -0.274 OA
BRANCH  31  33
ATOM     33  C   UNL     1       4.256  -3.126  26.384  0.00  0.00    +0.162 C 
BRANCH  33  34
ATOM     34  C   UNL     1       2.770  -2.670  26.254  0.00  0.00    +0.018 C 
ATOM     35  C   UNL     1       2.029  -2.610  27.604  0.00  0.00    +0.006 C 
ATOM     36  C   UNL     1       1.714  -3.985  28.186  0.00  0.00    +0.000 C 
ATOM     37  C   UNL     1       0.928  -4.846  27.203  0.00  0.00    +0.000 C 
ATOM     38  C   UNL     1       1.597  -4.911  25.833  0.00  0.00    +0.000 C 
ATOM     39  C   UNL     1       1.924  -3.524  25.285  0.00  0.00    +0.006 C 
ENDBRANCH  33  34
BRANCH  33  40
ATOM     40  N   UNL     1       4.775  -3.640  25.106  0.00  0.00    -0.298 N 
ATOM     41  H   UNL     1       4.404  -3.297  24.224  0.00  0.00    +0.150 HD
ATOM     42  C   UNL     1       5.679  -4.678  25.044  0.00  0.00    +0.264 C 
ATOM     43  O   UNL     1       6.170  -5.196  26.041  0.00  0.00    -0.268 OA
BRANCH  42  44
ATOM     44  C   UNL     1       6.029  -5.169  23.673  0.00  0.00    +0.143 A 
ATOM     45  C   UNL     1       5.019  -5.368  22.739  0.00  0.00    +0.143 A 
ATOM     46  N   UNL     1       5.271  -5.751  21.459  0.00  0.00    -0.259 NA
ATOM     47  C   UNL     1       6.576  -5.927  21.156  0.00  0.00    +0.130 A 
ATOM     48  C   UNL     1       7.585  -5.737  22.092  0.00  0.00    +0.131 A 
ATOM     49  N   UNL     1       7.346  -5.358  23.372  0.00  0.00    -0.247 NA
ENDBRANCH  42  44
ENDBRANCH  33  40
ENDBRANCH  31  33
ENDBRANCH  28  29
BRANCH  28  50
ATOM     50  C   UNL     1       4.500   1.511  27.763  0.00  0.00    -0.011 C 
ATOM     51  C   UNL     1       4.640   1.010  29.215  0.00  0.00    +0.013 C 
ATOM     52  C   UNL     1       3.002   1.434  27.403  0.00  0.00    +0.013 C 
ATOM     53  C   UNL     1       4.918   2.997  27.719  0.00  0.00    +0.013 C 
ENDBRANCH  28  50
ENDBRANCH   3  28
TORSDOF 14
ENDMDL
MODEL 4
REMARK VINA RESULT:      -5.7      2.532      5.823
REMARK  Name = 
REMARK  18 active torsions:
REMARK  status: ('A' for Active; 'I' for Inactive)
REMARK    1  A    between atoms: C_1  and  C_2
REMARK    2  A    between atoms: C_2  and  C_3
REMARK    3  A    between atoms: C_3  and  C_4
REMARK    4  A    between atoms: C_4  and  C_5
REMARK    5  A    between atoms: C_4  and  N_13
REMARK    6  A    between atoms: C_5  and  C_7
REMARK    7  A    between atoms: N_9  and  C_10
REMARK    8  A    between atoms: C_14  and  C_16
REMARK    9  A    between atoms: C_26  and  C_28
REMARK   10  A    between atoms: C_28  and  C_29
REMARK   11  A    between atoms: C_28  and  N_33
REMARK   12  A    between atoms: C_29  and  C_30
REMARK   13  A    between atoms: C_29  and  C_31
REMARK   14  A    between atoms: C_29  and  C_32
REMARK   15  A    between atoms: C_34  and  C_36
REMARK   16  A    between atoms: C_36  and  C_37
REMARK   17  A    between atoms: C_36  and  N_43
REMARK   18  A    between atoms: C_44  and  C_46
REMARK                            x       y       z     vdW  Elec       q    Type
REMARK                         _______ _______ _______ _____ _____    ______ ____
ROOT
ATOM      1  C   UNL     1       8.548  -0.668  23.782  0.00  0.00    +0.165 C 
ATOM      2  N   UNL     1       7.464   0.252  24.195  0.00  0.00    -0.288 N 
ATOM      3  C   UNL     1       6.358  -0.223  24.884  0.00  0.00    +0.237 C 
ATOM      4  O   UNL     1       6.102  -1.428  24.850  0.00  0.00    -0.274 OA
ATOM      5  C   UNL     1       7.984   1.607  24.253  0.00  0.00    +0.112 C 
ATOM      6  C   UNL     1       8.936   1.638  23.073  0.00  0.00    +0.012 C 
ATOM      7  C   UNL     1      10.057   2.655  23.154  0.00  0.00    +0.005 C 
ATOM      8  C   UNL     1      11.074   2.031  24.101  0.00  0.00    +0.001 C 
ATOM      9  C   UNL     1      10.879   0.513  24.003  0.00  0.00    +0.006 C 
ATOM     10  C   UNL     1       9.619   0.268  23.151  0.00  0.00    +0.023 C 
ENDROOT
BRANCH   1  13
ATOM     11  N   UNL     1       7.647  -2.968  23.320  0.00  0.00    -0.304 N 
ATOM     12  H   UNL     1       7.716  -3.120  24.323  0.00  0.00    +0.149 HD
ATOM     13  C   UNL     1       8.249  -1.839  22.809  0.00  0.00    +0.234 C 
ATOM     14  O   UNL     1       8.403  -1.685  21.595  0.00  0.00    -0.274 OA
BRANCH  11  15
ATOM     15  C   UNL     1       7.367  -4.126  22.451  0.00  0.00    +0.149 C 
BRANCH  15  16
ATOM     16  C   UNL     1       5.942  -4.028  21.907  0.00  0.00    +0.237 C 
ATOM     17  O   UNL     1       5.644  -3.554  20.812  0.00  0.00    -0.285 OA
BRANCH  16  18
ATOM     18  C   UNL     1       4.819  -4.515  22.835  0.00  0.00    +0.282 C 
ATOM     19  N   UNL     1       4.518  -3.635  23.852  0.00  0.00    -0.306 N 
ATOM     20  H   UNL     1       5.040  -2.762  23.875  0.00  0.00    +0.149 HD
ATOM     21  O   UNL     1       4.275  -5.595  22.643  0.00  0.00    -0.267 OA
BRANCH  19  22
ATOM     22  C   UNL     1       3.482  -3.874  24.806  0.00  0.00    +0.073 C 
ATOM     23  C   UNL     1       3.319  -2.984  26.009  0.00  0.00    +0.024 C 
ATOM     24  C   UNL     1       3.807  -4.392  26.178  0.00  0.00    +0.024 C 
ENDBRANCH  19  22
ENDBRANCH  16  18
ENDBRANCH  15  16
BRANCH  15  25
ATOM     25  C   UNL     1       7.550  -5.447  23.225  0.00  0.00    +0.030 C 
BRANCH  25  27
ATOM     26  C   UNL     1       7.329  -5.338  25.751  0.00  0.00    +0.004 C 
ATOM     27  C   UNL     1       8.280  -5.268  24.564  0.00  0.00    -0.001 C 
ENDBRANCH  25  27
ENDBRANCH  15  25
ENDBRANCH  11  15
ENDBRANCH   1  13
BRANCH   3  28
ATOM     28  C   UNL     1       5.539   0.767  25.775  0.00  0.00    +0.164 C 
BRANCH  28  29
ATOM     29  N   UNL     1       5.587   2.068  25.080  0.00  0.00    -0.302 N 
ATOM     30  H   UNL     1       6.490   2.523  25.014  0.00  0.00    +0.150 HD
ATOM     31  C   UNL     1       4.470   2.736  24.617  0.00  0.00    +0.234 C 
ATOM     32  O   UNL     1       3.329   2.288  24.774  0.00  0.00    -0.274 OA
BRANCH  31  33
ATOM     33  C   UNL     1       4.750   4.080  23.876  0.00  0.00    +0.162 C 
BRANCH  33  34
ATOM     34  C   UNL     1       3.537   5.040  24.076  0.00  0.00    +0.018 C 
ATOM     35  C   UNL     1       2.367   4.753  23.114  0.00  0.00    +0.006 C 
ATOM     36  C   UNL     1       2.651   5.167  21.673  0.00  0.00    +0.000 C 
ATOM     37  C   UNL     1       3.051   6.634  21.576  0.00  0.00    +0.000 C 
ATOM     38  C   UNL     1       4.183   6.986  22.537  0.00  0.00    +0.000 C 
ATOM     39  C   UNL     1       3.886   6.539  23.967  0.00  0.00    +0.006 C 
ENDBRANCH  33  34
BRANCH  33  40
ATOM     40  N   UNL     1       5.992   4.665  24.409  0.00  0.00    -0.298 N 
ATOM     41  H   UNL     1       6.051   4.947  25.384  0.00  0.00    +0.150 HD
ATOM     42  C   UNL     1       7.067   4.967  23.603  0.00  0.00    +0.264 C 
ATOM     43  O   UNL     1       7.097   4.706  22.405  0.00  0.00    -0.268 OA
BRANCH  42  44
ATOM     44  C   UNL     1       8.216   5.663  24.266  0.00  0.00    +0.143 A 
ATOM     45  C   UNL     1       8.250   5.760  25.652  0.00  0.00    +0.143 A 
ATOM     46  N   UNL     1       9.292   6.322  26.321  0.00  0.00    -0.259 NA
ATOM     47  C   UNL     1      10.296   6.781  25.543  0.00  0.00    +0.130 A 
ATOM     48  C   UNL     1      10.258   6.692  24.157  0.00  0.00    +0.131 A 
ATOM     49  N   UNL     1       9.224   6.137  23.478  0.00  0.00    -0.247 NA
ENDBRANCH  42  44
ENDBRANCH  33  40
ENDBRANCH  31  33
ENDBRANCH  28  29
BRANCH  28  50
ATOM     50  C   UNL     1       6.013   0.878  27.272  0.00  0.00    -0.011 C 
ATOM     51  C   UNL     1       4.913   0.369  28.227  0.00  0.00    +0.013 C 
ATOM     52  C   UNL     1       6.270   2.357  27.629  0.00  0.00    +0.013 C 
ATOM     53  C   UNL     1       7.311   0.092  27.562  0.00  0.00    +0.013 C 
ENDBRANCH  28  50
ENDBRANCH   3  28
TORSDOF 14
ENDMDL
MODEL 5
REMARK VINA RESULT:      -5.7      2.550      4.403
REMARK  Name = 
REMARK  18 active torsions:
REMARK  status: ('A' for Active; 'I' for Inactive)
REMARK    1  A    between atoms: C_1  and  C_2
REMARK    2  A    between atoms: C_2  and  C_3
REMARK    3  A    between atoms: C_3  and  C_4
REMARK    4  A    between atoms: C_4  and  C_5
REMARK    5  A    between atoms: C_4  and  N_13
REMARK    6  A    between atoms: C_5  and  C_7
REMARK    7  A    between atoms: N_9  and  C_10
REMARK    8  A    between atoms: C_14  and  C_16
REMARK    9  A    between atoms: C_26  and  C_28
REMARK   10  A    between atoms: C_28  and  C_29
REMARK   11  A    between atoms: C_28  and  N_33
REMARK   12  A    between atoms: C_29  and  C_30
REMARK   13  A    between atoms: C_29  and  C_31
REMARK   14  A    between atoms: C_29  and  C_32
REMARK   15  A    between atoms: C_34  and  C_36
REMARK   16  A    between atoms: C_36  and  C_37
REMARK   17  A    between atoms: C_36  and  N_43
REMARK   18  A    between atoms: C_44  and  C_46
REMARK                            x       y       z     vdW  Elec       q    Type
REMARK                         _______ _______ _______ _____ _____    ______ ____
ROOT
ATOM      1  C   UNL     1       7.620  -1.041  24.469  0.00  0.00    +0.165 C 
ATOM      2  N   UNL     1       6.790   0.173  24.635  0.00  0.00    -0.288 N 
ATOM      3  C   UNL     1       5.588   0.119  25.323  0.00  0.00    +0.237 C 
ATOM      4  O   UNL     1       5.042  -0.972  25.493  0.00  0.00    -0.274 OA
ATOM      5  C   UNL     1       7.627   1.350  24.479  0.00  0.00    +0.112 C 
ATOM      6  C   UNL     1       8.581   0.924  23.378  0.00  0.00    +0.012 C 
ATOM      7  C   UNL     1       9.917   1.639  23.347  0.00  0.00    +0.005 C 
ATOM      8  C   UNL     1      10.728   0.985  24.457  0.00  0.00    +0.001 C 
ATOM      9  C   UNL     1      10.166  -0.432  24.625  0.00  0.00    +0.006 C 
ATOM     10  C   UNL     1       8.901  -0.528  23.751  0.00  0.00    +0.023 C 
ENDROOT
BRANCH   1  13
ATOM     11  N   UNL     1       6.878  -3.441  24.414  0.00  0.00    -0.304 N 
ATOM     12  H   UNL     1       7.399  -3.548  25.281  0.00  0.00    +0.149 HD
ATOM     13  C   UNL     1       7.060  -2.272  23.709  0.00  0.00    +0.234 C 
ATOM     14  O   UNL     1       6.645  -2.145  22.554  0.00  0.00    -0.274 OA
BRANCH  11  15
ATOM     15  C   UNL     1       6.378  -4.653  23.739  0.00  0.00    +0.149 C 
BRANCH  15  16
ATOM     16  C   UNL     1       5.644  -5.538  24.746  0.00  0.00    +0.237 C 
ATOM     17  O   UNL     1       5.993  -5.703  25.914  0.00  0.00    -0.285 OA
BRANCH  16  18
ATOM     18  C   UNL     1       4.419  -6.302  24.223  0.00  0.00    +0.282 C 
ATOM     19  N   UNL     1       3.472  -5.496  23.628  0.00  0.00    -0.306 N 
ATOM     20  H   UNL     1       3.682  -4.501  23.576  0.00  0.00    +0.149 HD
ATOM     21  O   UNL     1       4.341  -7.518  24.349  0.00  0.00    -0.267 OA
BRANCH  19  22
ATOM     22  C   UNL     1       2.273  -6.005  23.043  0.00  0.00    +0.073 C 
ATOM     23  C   UNL     1       0.994  -5.213  23.087  0.00  0.00    +0.024 C 
ATOM     24  C   UNL     1       1.132  -6.461  23.907  0.00  0.00    +0.024 C 
ENDBRANCH  19  22
ENDBRANCH  16  18
ENDBRANCH  15  16
BRANCH  15  25
ATOM     25  C   UNL     1       7.539  -5.436  23.092  0.00  0.00    +0.030 C 
BRANCH  25  27
ATOM     26  C   UNL     1       6.042  -5.222  21.053  0.00  0.00    +0.004 C 
ATOM     27  C   UNL     1       7.201  -5.973  21.694  0.00  0.00    -0.001 C 
ENDBRANCH  25  27
ENDBRANCH  15  25
ENDBRANCH  11  15
ENDBRANCH   1  13
BRANCH   3  28
ATOM     28  C   UNL     1       5.022   1.430  25.962  0.00  0.00    +0.164 C 
BRANCH  28  29
ATOM     29  N   UNL     1       5.332   2.510  25.006  0.00  0.00    -0.302 N 
ATOM     30  H   UNL     1       6.245   2.490  24.568  0.00  0.00    +0.150 HD
ATOM     31  C   UNL     1       4.501   3.586  24.762  0.00  0.00    +0.234 C 
ATOM     32  O   UNL     1       3.426   3.728  25.355  0.00  0.00    -0.274 OA
BRANCH  31  33
ATOM     33  C   UNL     1       5.005   4.594  23.684  0.00  0.00    +0.162 C 
BRANCH  33  34
ATOM     34  C   UNL     1       6.526   4.357  23.430  0.00  0.00    +0.018 C 
ATOM     35  C   UNL     1       7.431   5.012  24.492  0.00  0.00    +0.006 C 
ATOM     36  C   UNL     1       7.494   6.533  24.382  0.00  0.00    +0.000 C 
ATOM     37  C   UNL     1       7.926   6.979  22.990  0.00  0.00    +0.000 C 
ATOM     38  C   UNL     1       7.087   6.331  21.892  0.00  0.00    +0.000 C 
ATOM     39  C   UNL     1       7.018   4.813  22.040  0.00  0.00    +0.006 C 
ENDBRANCH  33  34
BRANCH  33  40
ATOM     40  N   UNL     1       4.218   4.405  22.454  0.00  0.00    -0.298 N 
ATOM     41  H   UNL     1       4.553   3.788  21.718  0.00  0.00    +0.150 HD
ATOM     42  C   UNL     1       3.080   5.134  22.190  0.00  0.00    +0.264 C 
ATOM     43  O   UNL     1       2.601   5.934  22.986  0.00  0.00    -0.268 OA
BRANCH  42  44
ATOM     44  C   UNL     1       2.450   4.915  20.849  0.00  0.00    +0.143 A 
ATOM     45  C   UNL     1       2.125   6.011  20.059  0.00  0.00    +0.143 A 
ATOM     46  N   UNL     1       1.611   5.885  18.807  0.00  0.00    -0.259 NA
ATOM     47  C   UNL     1       1.436   4.614  18.381  0.00  0.00    +0.130 A 
ATOM     48  C   UNL     1       1.752   3.519  19.175  0.00  0.00    +0.131 A 
ATOM     49  N   UNL     1       2.263   3.632  20.426  0.00  0.00    -0.247 NA
ENDBRANCH  42  44
ENDBRANCH  33  40
ENDBRANCH  31  33
ENDBRANCH  28  29
BRANCH  28  50
ATOM     50  C   UNL     1       5.543   1.754  27.411  0.00  0.00    -0.011 C 
ATOM     51  C   UNL     1       6.262   0.530  28.014  0.00  0.00    +0.013 C 
ATOM     52  C   UNL     1       4.349   2.074  28.335  0.00  0.00    +0.013 C 
ATOM     53  C   UNL     1       6.510   2.958  27.459  0.00  0.00    +0.013 C 
ENDBRANCH  28  50
ENDBRANCH   3  28
TORSDOF 14
ENDMDL
MODEL 6
REMARK VINA RESULT:      -5.7      2.139      4.012
REMARK  Name = 
REMARK  18 active torsions:
REMARK  status: ('A' for Active; 'I' for Inactive)
REMARK    1  A    between atoms: C_1  and  C_2
REMARK    2  A    between atoms: C_2  and  C_3
REMARK    3  A    between atoms: C_3  and  C_4
REMARK    4  A    between atoms: C_4  and  C_5
REMARK    5  A    between atoms: C_4  and  N_13
REMARK    6  A    between atoms: C_5  and  C_7
REMARK    7  A    between atoms: N_9  and  C_10
REMARK    8  A    between atoms: C_14  and  C_16
REMARK    9  A    between atoms: C_26  and  C_28
REMARK   10  A    between atoms: C_28  and  C_29
REMARK   11  A    between atoms: C_28  and  N_33
REMARK   12  A    between atoms: C_29  and  C_30
REMARK   13  A    between atoms: C_29  and  C_31
REMARK   14  A    between atoms: C_29  and  C_32
REMARK   15  A    between atoms: C_34  and  C_36
REMARK   16  A    between atoms: C_36  and  C_37
REMARK   17  A    between atoms: C_36  and  N_43
REMARK   18  A    between atoms: C_44  and  C_46
REMARK                            x       y       z     vdW  Elec       q    Type
REMARK                         _______ _______ _______ _____ _____    ______ ____
ROOT
ATOM      1  C   UNL     1       7.630  -1.067  24.517  0.00  0.00    +0.165 C 
ATOM      2  N   UNL     1       6.824   0.162  24.699  0.00  0.00    -0.288 N 
ATOM      3  C   UNL     1       5.627   0.126  25.397  0.00  0.00    +0.237 C 
ATOM      4  O   UNL     1       5.062  -0.956  25.565  0.00  0.00    -0.274 OA
ATOM      5  C   UNL     1       7.683   1.323  24.543  0.00  0.00    +0.112 C 
ATOM      6  C   UNL     1       8.618   0.887  23.432  0.00  0.00    +0.012 C 
ATOM      7  C   UNL     1       9.967   1.576  23.393  0.00  0.00    +0.005 C 
ATOM      8  C   UNL     1      10.776   0.899  24.492  0.00  0.00    +0.001 C 
ATOM      9  C   UNL     1      10.188  -0.508  24.655  0.00  0.00    +0.006 C 
ATOM     10  C   UNL     1       8.914  -0.574  23.791  0.00  0.00    +0.023 C 
ENDROOT
BRANCH   1  13
ATOM     11  N   UNL     1       6.895  -3.469  24.438  0.00  0.00    -0.304 N 
ATOM     12  H   UNL     1       7.455  -3.595  25.276  0.00  0.00    +0.149 HD
ATOM     13  C   UNL     1       7.039  -2.281  23.754  0.00  0.00    +0.234 C 
ATOM     14  O   UNL     1       6.570  -2.128  22.623  0.00  0.00    -0.274 OA
BRANCH  11  15
ATOM     15  C   UNL     1       6.368  -4.666  23.757  0.00  0.00    +0.149 C 
BRANCH  15  16
ATOM     16  C   UNL     1       5.742  -5.609  24.784  0.00  0.00    +0.237 C 
ATOM     17  O   UNL     1       4.803  -6.369  24.552  0.00  0.00    -0.285 OA
BRANCH  16  18
ATOM     18  C   UNL     1       6.309  -5.544  26.209  0.00  0.00    +0.282 C 
ATOM     19  N   UNL     1       5.373  -5.210  27.165  0.00  0.00    -0.306 N 
ATOM     20  H   UNL     1       4.419  -5.065  26.844  0.00  0.00    +0.149 HD
ATOM     21  O   UNL     1       7.492  -5.775  26.422  0.00  0.00    -0.267 OA
BRANCH  19  22
ATOM     22  C   UNL     1       5.679  -5.129  28.558  0.00  0.00    +0.073 C 
ATOM     23  C   UNL     1       4.991  -6.024  29.554  0.00  0.00    +0.024 C 
ATOM     24  C   UNL     1       4.686  -4.555  29.529  0.00  0.00    +0.024 C 
ENDBRANCH  19  22
ENDBRANCH  16  18
ENDBRANCH  15  16
BRANCH  15  25
ATOM     25  C   UNL     1       7.489  -5.391  22.984  0.00  0.00    +0.030 C 
BRANCH  25  27
ATOM     26  C   UNL     1       6.152  -5.505  20.830  0.00  0.00    +0.004 C 
ATOM     27  C   UNL     1       6.963  -6.288  21.854  0.00  0.00    -0.001 C 
ENDBRANCH  25  27
ENDBRANCH  15  25
ENDBRANCH  11  15
ENDBRANCH   1  13
BRANCH   3  28
ATOM     28  C   UNL     1       5.092   1.443  26.050  0.00  0.00    +0.164 C 
BRANCH  28  29
ATOM     29  N   UNL     1       5.393   2.520  25.088  0.00  0.00    -0.302 N 
ATOM     30  H   UNL     1       6.297   2.491  24.631  0.00  0.00    +0.150 HD
ATOM     31  C   UNL     1       4.568   3.605  24.862  0.00  0.00    +0.234 C 
ATOM     32  O   UNL     1       3.507   3.758  25.477  0.00  0.00    -0.274 OA
BRANCH  31  33
ATOM     33  C   UNL     1       5.060   4.608  23.773  0.00  0.00    +0.162 C 
BRANCH  33  34
ATOM     34  C   UNL     1       6.582   4.382  23.516  0.00  0.00    +0.018 C 
ATOM     35  C   UNL     1       7.486   5.089  24.546  0.00  0.00    +0.006 C 
ATOM     36  C   UNL     1       7.528   6.605  24.378  0.00  0.00    +0.000 C 
ATOM     37  C   UNL     1       7.943   7.004  22.966  0.00  0.00    +0.000 C 
ATOM     38  C   UNL     1       7.104   6.303  21.901  0.00  0.00    +0.000 C 
ATOM     39  C   UNL     1       7.058   4.791  22.106  0.00  0.00    +0.006 C 
ENDBRANCH  33  34
BRANCH  33  40
ATOM     40  N   UNL     1       4.271   4.402  22.547  0.00  0.00    -0.298 N 
ATOM     41  H   UNL     1       4.593   3.756  21.831  0.00  0.00    +0.150 HD
ATOM     42  C   UNL     1       3.151   5.149  22.261  0.00  0.00    +0.264 C 
ATOM     43  O   UNL     1       2.689   5.982  23.032  0.00  0.00    -0.268 OA
BRANCH  42  44
ATOM     44  C   UNL     1       2.518   4.906  20.925  0.00  0.00    +0.143 A 
ATOM     45  C   UNL     1       2.247   3.604  20.523  0.00  0.00    +0.143 A 
ATOM     46  N   UNL     1       1.617   3.315  19.353  0.00  0.00    -0.259 NA
ATOM     47  C   UNL     1       1.271   4.386  18.605  0.00  0.00    +0.130 A 
ATOM     48  C   UNL     1       1.550   5.687  19.002  0.00  0.00    +0.131 A 
ATOM     49  N   UNL     1       2.180   5.988  20.165  0.00  0.00    -0.247 NA
ENDBRANCH  42  44
ENDBRANCH  33  40
ENDBRANCH  31  33
ENDBRANCH  28  29
BRANCH  28  50
ATOM     50  C   UNL     1       5.650   1.759  27.487  0.00  0.00    -0.011 C 
ATOM     51  C   UNL     1       6.416   0.543  28.050  0.00  0.00    +0.013 C 
ATOM     52  C   UNL     1       4.478   2.038  28.451  0.00  0.00    +0.013 C 
ATOM     53  C   UNL     1       6.590   2.985  27.523  0.00  0.00    +0.013 C 
ENDBRANCH  28  50
ENDBRANCH   3  28
TORSDOF 14
ENDMDL
MODEL 7
REMARK VINA RESULT:      -5.6      2.260      5.285
REMARK  Name = 
REMARK  18 active torsions:
REMARK  status: ('A' for Active; 'I' for Inactive)
REMARK    1  A    between atoms: C_1  and  C_2
REMARK    2  A    between atoms: C_2  and  C_3
REMARK    3  A    between atoms: C_3  and  C_4
REMARK    4  A    between atoms: C_4  and  C_5
REMARK    5  A    between atoms: C_4  and  N_13
REMARK    6  A    between atoms: C_5  and  C_7
REMARK    7  A    between atoms: N_9  and  C_10
REMARK    8  A    between atoms: C_14  and  C_16
REMARK    9  A    between atoms: C_26  and  C_28
REMARK   10  A    between atoms: C_28  and  C_29
REMARK   11  A    between atoms: C_28  and  N_33
REMARK   12  A    between atoms: C_29  and  C_30
REMARK   13  A    between atoms: C_29  and  C_31
REMARK   14  A    between atoms: C_29  and  C_32
REMARK   15  A    between atoms: C_34  and  C_36
REMARK   16  A    between atoms: C_36  and  C_37
REMARK   17  A    between atoms: C_36  and  N_43
REMARK   18  A    between atoms: C_44  and  C_46
REMARK                            x       y       z     vdW  Elec       q    Type
REMARK                         _______ _______ _______ _____ _____    ______ ____
ROOT
ATOM      1  C   UNL     1       7.876  -1.130  24.519  0.00  0.00    +0.165 C 
ATOM      2  N   UNL     1       6.980  -0.026  24.931  0.00  0.00    -0.288 N 
ATOM      3  C   UNL     1       5.915  -0.260  25.787  0.00  0.00    +0.237 C 
ATOM      4  O   UNL     1       5.503  -1.412  25.931  0.00  0.00    -0.274 OA
ATOM      5  C   UNL     1       7.674   1.240  24.764  0.00  0.00    +0.112 C 
ATOM      6  C   UNL     1       8.469   1.007  23.493  0.00  0.00    +0.012 C 
ATOM      7  C   UNL     1       9.714   1.854  23.326  0.00  0.00    +0.005 C 
ATOM      8  C   UNL     1      10.750   1.197  24.228  0.00  0.00    +0.001 C 
ATOM      9  C   UNL     1      10.349  -0.279  24.340  0.00  0.00    +0.006 C 
ATOM     10  C   UNL     1       8.972  -0.431  23.666  0.00  0.00    +0.023 C 
ENDROOT
BRANCH   1  13
ATOM     11  N   UNL     1       7.035  -3.497  24.440  0.00  0.00    -0.304 N 
ATOM     12  H   UNL     1       7.497  -3.617  25.337  0.00  0.00    +0.149 HD
ATOM     13  C   UNL     1       7.309  -2.344  23.738  0.00  0.00    +0.234 C 
ATOM     14  O   UNL     1       6.970  -2.213  22.558  0.00  0.00    -0.274 OA
BRANCH  11  15
ATOM     15  C   UNL     1       6.524  -4.694  23.746  0.00  0.00    +0.149 C 
BRANCH  15  16
ATOM     16  C   UNL     1       5.762  -5.576  24.734  0.00  0.00    +0.237 C 
ATOM     17  O   UNL     1       4.898  -6.393  24.418  0.00  0.00    -0.285 OA
BRANCH  16  18
ATOM     18  C   UNL     1       6.078  -5.370  26.223  0.00  0.00    +0.282 C 
ATOM     19  N   UNL     1       5.050  -4.791  26.935  0.00  0.00    -0.306 N 
ATOM     20  H   UNL     1       4.196  -4.582  26.423  0.00  0.00    +0.149 HD
ATOM     21  O   UNL     1       7.162  -5.707  26.682  0.00  0.00    -0.267 OA
BRANCH  19  22
ATOM     22  C   UNL     1       5.121  -4.543  28.340  0.00  0.00    +0.073 C 
ATOM     23  C   UNL     1       3.958  -4.864  29.240  0.00  0.00    +0.024 C 
ATOM     24  C   UNL     1       4.321  -3.435  28.964  0.00  0.00    +0.024 C 
ENDBRANCH  19  22
ENDBRANCH  16  18
ENDBRANCH  15  16
BRANCH  15  25
ATOM     25  C   UNL     1       7.681  -5.489  23.107  0.00  0.00    +0.030 C 
BRANCH  25  27
ATOM     26  C   UNL     1       6.161  -5.414  21.076  0.00  0.00    +0.004 C 
ATOM     27  C   UNL     1       7.299  -6.147  21.773  0.00  0.00    -0.001 C 
ENDBRANCH  25  27
ENDBRANCH  15  25
ENDBRANCH  11  15
ENDBRANCH   1  13
BRANCH   3  28
ATOM     28  C   UNL     1       5.348   0.928  26.632  0.00  0.00    +0.164 C 
BRANCH  28  29
ATOM     29  N   UNL     1       5.399   2.109  25.750  0.00  0.00    -0.302 N 
ATOM     30  H   UNL     1       6.281   2.605  25.693  0.00  0.00    +0.150 HD
ATOM     31  C   UNL     1       4.301   2.628  25.093  0.00  0.00    +0.234 C 
ATOM     32  O   UNL     1       3.173   2.137  25.217  0.00  0.00    -0.274 OA
BRANCH  31  33
ATOM     33  C   UNL     1       4.584   3.860  24.179  0.00  0.00    +0.162 C 
BRANCH  33  34
ATOM     34  C   UNL     1       3.402   4.872  24.298  0.00  0.00    +0.018 C 
ATOM     35  C   UNL     1       2.232   4.557  23.346  0.00  0.00    +0.006 C 
ATOM     36  C   UNL     1       2.542   4.859  21.883  0.00  0.00    +0.000 C 
ATOM     37  C   UNL     1       2.992   6.302  21.688  0.00  0.00    +0.000 C 
ATOM     38  C   UNL     1       4.128   6.682  22.634  0.00  0.00    +0.000 C 
ATOM     39  C   UNL     1       3.803   6.347  24.088  0.00  0.00    +0.006 C 
ENDBRANCH  33  34
BRANCH  33  40
ATOM     40  N   UNL     1       5.859   4.472  24.590  0.00  0.00    -0.298 N 
ATOM     41  H   UNL     1       5.955   4.892  25.511  0.00  0.00    +0.150 HD
ATOM     42  C   UNL     1       6.920   4.612  23.724  0.00  0.00    +0.264 C 
ATOM     43  O   UNL     1       6.907   4.177  22.577  0.00  0.00    -0.268 OA
BRANCH  42  44
ATOM     44  C   UNL     1       8.109   5.356  24.248  0.00  0.00    +0.143 A 
ATOM     45  C   UNL     1       8.209   5.612  25.611  0.00  0.00    +0.143 A 
ATOM     46  N   UNL     1       9.290   6.225  26.163  0.00  0.00    -0.259 NA
ATOM     47  C   UNL     1      10.264   6.570  25.293  0.00  0.00    +0.130 A 
ATOM     48  C   UNL     1      10.160   6.322  23.930  0.00  0.00    +0.131 A 
ATOM     49  N   UNL     1       9.087   5.714  23.367  0.00  0.00    -0.247 NA
ENDBRANCH  42  44
ENDBRANCH  33  40
ENDBRANCH  31  33
ENDBRANCH  28  29
BRANCH  28  50
ATOM     50  C   UNL     1       6.071   1.184  28.007  0.00  0.00    -0.011 C 
ATOM     51  C   UNL     1       5.108   0.916  29.183  0.00  0.00    +0.013 C 
ATOM     52  C   UNL     1       6.499   2.663  28.103  0.00  0.00    +0.013 C 
ATOM     53  C   UNL     1       7.334   0.316  28.205  0.00  0.00    +0.013 C 
ENDBRANCH  28  50
ENDBRANCH   3  28
TORSDOF 14
ENDMDL
MODEL 8
REMARK VINA RESULT:      -5.6      2.363      4.696
REMARK  Name = 
REMARK  18 active torsions:
REMARK  status: ('A' for Active; 'I' for Inactive)
REMARK    1  A    between atoms: C_1  and  C_2
REMARK    2  A    between atoms: C_2  and  C_3
REMARK    3  A    between atoms: C_3  and  C_4
REMARK    4  A    between atoms: C_4  and  C_5
REMARK    5  A    between atoms: C_4  and  N_13
REMARK    6  A    between atoms: C_5  and  C_7
REMARK    7  A    between atoms: N_9  and  C_10
REMARK    8  A    between atoms: C_14  and  C_16
REMARK    9  A    between atoms: C_26  and  C_28
REMARK   10  A    between atoms: C_28  and  C_29
REMARK   11  A    between atoms: C_28  and  N_33
REMARK   12  A    between atoms: C_29  and  C_30
REMARK   13  A    between atoms: C_29  and  C_31
REMARK   14  A    between atoms: C_29  and  C_32
REMARK   15  A    between atoms: C_34  and  C_36
REMARK   16  A    between atoms: C_36  and  C_37
REMARK   17  A    between atoms: C_36  and  N_43
REMARK   18  A    between atoms: C_44  and  C_46
REMARK                            x       y       z     vdW  Elec       q    Type
REMARK                         _______ _______ _______ _____ _____    ______ ____
ROOT
ATOM      1  C   UNL     1       8.462  -0.707  23.721  0.00  0.00    +0.165 C 
ATOM      2  N   UNL     1       7.364   0.240  24.021  0.00  0.00    -0.288 N 
ATOM      3  C   UNL     1       6.207  -0.195  24.648  0.00  0.00    +0.237 C 
ATOM      4  O   UNL     1       5.938  -1.397  24.645  0.00  0.00    -0.274 OA
ATOM      5  C   UNL     1       7.897   1.591  24.062  0.00  0.00    +0.112 C 
ATOM      6  C   UNL     1       8.929   1.565  22.951  0.00  0.00    +0.012 C 
ATOM      7  C   UNL     1      10.056   2.572  23.071  0.00  0.00    +0.005 C 
ATOM      8  C   UNL     1      10.995   1.976  24.110  0.00  0.00    +0.001 C 
ATOM      9  C   UNL     1      10.788   0.457  24.059  0.00  0.00    +0.006 C 
ATOM     10  C   UNL     1       9.587   0.192  23.131  0.00  0.00    +0.023 C 
ENDROOT
BRANCH   1  13
ATOM     11  N   UNL     1       7.602  -3.030  23.299  0.00  0.00    -0.304 N 
ATOM     12  H   UNL     1       7.628  -3.147  24.309  0.00  0.00    +0.149 HD
ATOM     13  C   UNL     1       8.216  -1.913  22.778  0.00  0.00    +0.234 C 
ATOM     14  O   UNL     1       8.423  -1.798  21.566  0.00  0.00    -0.274 OA
BRANCH  11  15
ATOM     15  C   UNL     1       7.370  -4.219  22.459  0.00  0.00    +0.149 C 
BRANCH  15  16
ATOM     16  C   UNL     1       5.958  -4.171  21.878  0.00  0.00    +0.237 C 
ATOM     17  O   UNL     1       5.678  -3.746  20.758  0.00  0.00    -0.285 OA
BRANCH  16  18
ATOM     18  C   UNL     1       4.822  -4.643  22.797  0.00  0.00    +0.282 C 
ATOM     19  N   UNL     1       4.509  -3.750  23.799  0.00  0.00    -0.306 N 
ATOM     20  H   UNL     1       5.032  -2.878  23.818  0.00  0.00    +0.149 HD
ATOM     21  O   UNL     1       4.278  -5.725  22.612  0.00  0.00    -0.267 OA
BRANCH  19  22
ATOM     22  C   UNL     1       3.460  -3.975  24.742  0.00  0.00    +0.073 C 
ATOM     23  C   UNL     1       3.496  -3.337  26.104  0.00  0.00    +0.024 C 
ATOM     24  C   UNL     1       3.695  -4.817  25.964  0.00  0.00    +0.024 C 
ENDBRANCH  19  22
ENDBRANCH  16  18
ENDBRANCH  15  16
BRANCH  15  25
ATOM     25  C   UNL     1       7.564  -5.512  23.277  0.00  0.00    +0.030 C 
BRANCH  25  27
ATOM     26  C   UNL     1       7.327  -5.275  25.793  0.00  0.00    +0.004 C 
ATOM     27  C   UNL     1       8.288  -5.281  24.611  0.00  0.00    -0.001 C 
ENDBRANCH  25  27
ENDBRANCH  15  25
ENDBRANCH  11  15
ENDBRANCH   1  13
BRANCH   3  28
ATOM     28  C   UNL     1       5.341   0.839  25.440  0.00  0.00    +0.164 C 
BRANCH  28  29
ATOM     29  N   UNL     1       5.504   2.124  24.734  0.00  0.00    -0.302 N 
ATOM     30  H   UNL     1       6.449   2.466  24.609  0.00  0.00    +0.150 HD
ATOM     31  C   UNL     1       4.450   2.925  24.337  0.00  0.00    +0.234 C 
ATOM     32  O   UNL     1       3.275   2.620  24.568  0.00  0.00    -0.274 OA
BRANCH  31  33
ATOM     33  C   UNL     1       4.845   4.225  23.571  0.00  0.00    +0.162 C 
BRANCH  33  34
ATOM     34  C   UNL     1       6.394   4.264  23.389  0.00  0.00    +0.018 C 
ATOM     35  C   UNL     1       7.132   4.911  24.577  0.00  0.00    +0.006 C 
ATOM     36  C   UNL     1       6.951   6.424  24.654  0.00  0.00    +0.000 C 
ATOM     37  C   UNL     1       7.364   7.107  23.356  0.00  0.00    +0.000 C 
ATOM     38  C   UNL     1       6.692   6.482  22.137  0.00  0.00    +0.000 C 
ATOM     39  C   UNL     1       6.866   4.965  22.098  0.00  0.00    +0.006 C 
ENDBRANCH  33  34
BRANCH  33  40
ATOM     40  N   UNL     1       4.150   4.240  22.273  0.00  0.00    -0.298 N 
ATOM     41  H   UNL     1       4.583   3.824  21.452  0.00  0.00    +0.150 HD
ATOM     42  C   UNL     1       2.963   4.911  22.083  0.00  0.00    +0.264 C 
ATOM     43  O   UNL     1       2.365   5.480  22.990  0.00  0.00    -0.268 OA
BRANCH  42  44
ATOM     44  C   UNL     1       2.433   4.934  20.682  0.00  0.00    +0.143 A 
ATOM     45  C   UNL     1       2.065   3.741  20.070  0.00  0.00    +0.143 A 
ATOM     46  N   UNL     1       1.518   3.695  18.827  0.00  0.00    -0.259 NA
ATOM     47  C   UNL     1       1.356   4.893  18.223  0.00  0.00    +0.130 A 
ATOM     48  C   UNL     1       1.732   6.084  18.830  0.00  0.00    +0.131 A 
ATOM     49  N   UNL     1       2.281   6.143  20.069  0.00  0.00    -0.247 NA
ENDBRANCH  42  44
ENDBRANCH  33  40
ENDBRANCH  31  33
ENDBRANCH  28  29
BRANCH  28  50
ATOM     50  C   UNL     1       5.669   0.961  26.974  0.00  0.00    -0.011 C 
ATOM     51  C   UNL     1       4.559   0.302  27.819  0.00  0.00    +0.013 C 
ATOM     52  C   UNL     1       5.721   2.448  27.380  0.00  0.00    +0.013 C 
ATOM     53  C   UNL     1       7.021   0.320  27.363  0.00  0.00    +0.013 C 
ENDBRANCH  28  50
ENDBRANCH   3  28
TORSDOF 14
ENDMDL
MODEL 9
REMARK VINA RESULT:      -5.5      3.045      8.800
REMARK  Name = 
REMARK  18 active torsions:
REMARK  status: ('A' for Active; 'I' for Inactive)
REMARK    1  A    between atoms: C_1  and  C_2
REMARK    2  A    between atoms: C_2  and  C_3
REMARK    3  A    between atoms: C_3  and  C_4
REMARK    4  A    between atoms: C_4  and  C_5
REMARK    5  A    between atoms: C_4  and  N_13
REMARK    6  A    between atoms: C_5  and  C_7
REMARK    7  A    between atoms: N_9  and  C_10
REMARK    8  A    between atoms: C_14  and  C_16
REMARK    9  A    between atoms: C_26  and  C_28
REMARK   10  A    between atoms: C_28  and  C_29
REMARK   11  A    between atoms: C_28  and  N_33
REMARK   12  A    between atoms: C_29  and  C_30
REMARK   13  A    between atoms: C_29  and  C_31
REMARK   14  A    between atoms: C_29  and  C_32
REMARK   15  A    between atoms: C_34  and  C_36
REMARK   16  A    between atoms: C_36  and  C_37
REMARK   17  A    between atoms: C_36  and  N_43
REMARK   18  A    between atoms: C_44  and  C_46
REMARK                            x       y       z     vdW  Elec       q    Type
REMARK                         _______ _______ _______ _____ _____    ______ ____
ROOT
ATOM      1  C   UNL     1       8.121  -3.097  23.432  0.00  0.00    +0.165 C 
ATOM      2  N   UNL     1       6.783  -3.336  24.019  0.00  0.00    -0.288 N 
ATOM      3  C   UNL     1       5.642  -3.246  23.237  0.00  0.00    +0.237 C 
ATOM      4  O   UNL     1       5.694  -2.641  22.165  0.00  0.00    -0.274 OA
ATOM      5  C   UNL     1       6.926  -4.132  25.226  0.00  0.00    +0.112 C 
ATOM      6  C   UNL     1       8.206  -3.580  25.826  0.00  0.00    +0.012 C 
ATOM      7  C   UNL     1       8.963  -4.517  26.747  0.00  0.00    +0.005 C 
ATOM      8  C   UNL     1       9.683  -5.478  25.810  0.00  0.00    +0.001 C 
ATOM      9  C   UNL     1       9.885  -4.723  24.490  0.00  0.00    +0.006 C 
ATOM     10  C   UNL     1       9.106  -3.399  24.598  0.00  0.00    +0.023 C 
ENDROOT
BRANCH   1  13
ATOM     11  N   UNL     1       8.080  -0.585  23.490  0.00  0.00    -0.304 N 
ATOM     12  H   UNL     1       7.334  -0.683  24.174  0.00  0.00    +0.149 HD
ATOM     13  C   UNL     1       8.465  -1.719  22.809  0.00  0.00    +0.234 C 
ATOM     14  O   UNL     1       9.199  -1.657  21.820  0.00  0.00    -0.274 OA
BRANCH  11  15
ATOM     15  C   UNL     1       8.351   0.753  22.932  0.00  0.00    +0.149 C 
BRANCH  15  16
ATOM     16  C   UNL     1       9.387   1.471  23.797  0.00  0.00    +0.237 C 
ATOM     17  O   UNL     1       9.764   1.082  24.901  0.00  0.00    -0.285 OA
BRANCH  16  18
ATOM     18  C   UNL     1       9.939   2.794  23.248  0.00  0.00    +0.282 C 
ATOM     19  N   UNL     1       9.656   3.886  24.041  0.00  0.00    -0.306 N 
ATOM     20  H   UNL     1       9.141   3.710  24.900  0.00  0.00    +0.149 HD
ATOM     21  O   UNL     1      10.566   2.821  22.197  0.00  0.00    -0.267 OA
BRANCH  19  22
ATOM     22  C   UNL     1      10.106   5.207  23.735  0.00  0.00    +0.073 C 
ATOM     23  C   UNL     1       9.845   6.350  24.678  0.00  0.00    +0.024 C 
ATOM     24  C   UNL     1       9.127   6.284  23.363  0.00  0.00    +0.024 C 
ENDBRANCH  19  22
ENDBRANCH  16  18
ENDBRANCH  15  16
BRANCH  15  25
ATOM     25  C   UNL     1       7.055   1.585  22.855  0.00  0.00    +0.030 C 
BRANCH  25  27
ATOM     26  C   UNL     1       6.052   2.787  24.853  0.00  0.00    +0.004 C 
ATOM     27  C   UNL     1       6.181   1.463  24.112  0.00  0.00    -0.001 C 
ENDBRANCH  25  27
ENDBRANCH  15  25
ENDBRANCH  11  15
ENDBRANCH   1  13
BRANCH   3  28
ATOM     28  C   UNL     1       4.355  -4.016  23.686  0.00  0.00    +0.164 C 
BRANCH  28  29
ATOM     29  N   UNL     1       4.182  -3.710  25.118  0.00  0.00    -0.302 N 
ATOM     30  H   UNL     1       4.977  -3.875  25.725  0.00  0.00    +0.150 HD
ATOM     31  C   UNL     1       2.984  -3.319  25.684  0.00  0.00    +0.234 C 
ATOM     32  O   UNL     1       1.950  -3.214  25.016  0.00  0.00    -0.274 OA
BRANCH  31  33
ATOM     33  C   UNL     1       3.032  -3.008  27.212  0.00  0.00    +0.162 C 
BRANCH  33  34
ATOM     34  C   UNL     1       3.338  -4.322  27.995  0.00  0.00    +0.018 C 
ATOM     35  C   UNL     1       2.342  -5.458  27.692  0.00  0.00    +0.006 C 
ATOM     36  C   UNL     1       0.962  -5.236  28.304  0.00  0.00    +0.000 C 
ATOM     37  C   UNL     1       1.043  -5.008  29.809  0.00  0.00    +0.000 C 
ATOM     38  C   UNL     1       2.046  -3.916  30.172  0.00  0.00    +0.000 C 
ATOM     39  C   UNL     1       3.410  -4.149  29.527  0.00  0.00    +0.006 C 
ENDBRANCH  33  34
BRANCH  33  40
ATOM     40  N   UNL     1       4.062  -1.984  27.455  0.00  0.00    -0.298 N 
ATOM     41  H   UNL     1       4.948  -2.237  27.885  0.00  0.00    +0.150 HD
ATOM     42  C   UNL     1       3.834  -0.644  27.233  0.00  0.00    +0.264 C 
ATOM     43  O   UNL     1       2.791  -0.216  26.751  0.00  0.00    -0.268 OA
BRANCH  42  44
ATOM     44  C   UNL     1       4.933   0.290  27.634  0.00  0.00    +0.143 A 
ATOM     45  C   UNL     1       4.616   1.511  28.216  0.00  0.00    +0.143 A 
ATOM     46  N   UNL     1       5.563   2.378  28.662  0.00  0.00    -0.259 NA
ATOM     47  C   UNL     1       6.841   1.970  28.498  0.00  0.00    +0.130 A 
ATOM     48  C   UNL     1       7.159   0.754  27.908  0.00  0.00    +0.131 A 
ATOM     49  N   UNL     1       6.223  -0.119  27.457  0.00  0.00    -0.247 NA
ENDBRANCH  42  44
ENDBRANCH  33  40
ENDBRANCH  31  33
ENDBRANCH  28  29
BRANCH  28  50
ATOM     50  C   UNL     1       4.364  -5.565  23.408  0.00  0.00    -0.011 C 
ATOM     51  C   UNL     1       5.318  -5.900  22.242  0.00  0.00    +0.013 C 
ATOM     52  C   UNL     1       2.955  -6.026  22.983  0.00  0.00    +0.013 C 
ATOM     53  C   UNL     1       4.783  -6.404  24.636  0.00  0.00    +0.013 C 
ENDBRANCH  28  50
ENDBRANCH   3  28
TORSDOF 14
ENDMDL
