MODEL 1
REMARK VINA RESULT:      -6.4      0.000      0.000
REMARK  Name = 
REMARK  6 active torsions:
REMARK  status: ('A' for Active; 'I' for Inactive)
REMARK    1  A    between atoms: C6_3  and  N6_23
REMARK    2  A    between atoms: N9_7  and  C1*_10
REMARK    3  A    between atoms: C2*_12  and  O2*_22
REMARK    4  A    between atoms: C3*_14  and  O3*_21
REMARK    5  A    between atoms: C4*_16  and  C5*_19
REMARK    6  A    between atoms: C5*_19  and  O5*_20
REMARK                            x       y       z     vdW  Elec       q    Type
REMARK                         _______ _______ _______ _____ _____    ______ ____
ROOT
ATOM      1  C2    A A   1      10.613   0.853  24.860  0.00  0.00    +0.225 A 
ATOM      2  N3    A A   1      10.259  -0.453  24.857  0.00  0.00    -0.216 NA
ATOM      3  C4    A A   1       9.778  -0.820  23.653  0.00  0.00    +0.167 A 
ATOM      4  N9    A A   1       9.291  -2.038  23.265  0.00  0.00    -0.286 N 
ATOM      5  C8    A A   1       8.906  -1.919  21.947  0.00  0.00    +0.203 A 
ATOM      6  N7    A A   1       9.117  -0.713  21.473  0.00  0.00    -0.231 NA
ATOM      7  C5    A A   1       9.660  -0.013  22.530  0.00  0.00    +0.147 A 
ATOM      8  C6    A A   1      10.088   1.321  22.652  0.00  0.00    +0.147 A 
ATOM      9  N1    A A   1      10.549   1.742  23.849  0.00  0.00    -0.219 NA
ENDROOT
BRANCH   4  10
ATOM     10  C1*   A A   1       9.243  -3.289  23.983  0.00  0.00    +0.253 C 
ATOM     11  O4*   A A   1       8.173  -4.090  23.435  0.00  0.00    -0.346 OA
ATOM     12  C4*   A A   1       7.869  -5.120  24.412  0.00  0.00    +0.177 C 
ATOM     13  C3*   A A   1       8.661  -4.783  25.688  0.00  0.00    +0.178 C 
ATOM     14  C2*   A A   1       9.017  -3.314  25.501  0.00  0.00    +0.195 C 
BRANCH  13  15
ATOM     15  O3*   A A   1       9.871  -5.555  25.701  0.00  0.00    -0.386 OA
ATOM     16  H3*   A A   1      10.158  -5.659  24.776  0.00  0.00    +0.210 HD
ENDBRANCH  13  15
BRANCH  14  17
ATOM     17  O2*   A A   1       7.902  -2.535  25.935  0.00  0.00    -0.385 OA
ATOM     18  H2*   A A   1       8.217  -1.608  26.001  0.00  0.00    +0.210 HD
ENDBRANCH  14  17
BRANCH  12  19
ATOM     19  C5*   A A   1       6.349  -5.191  24.601  0.00  0.00    +0.190 C 
BRANCH  19  20
ATOM     20  O5*   A A   1       5.687  -3.938  24.489  0.00  0.00    -0.392 OA
ATOM     21  H5*   A A   1       4.744  -4.069  24.706  0.00  0.00    +0.210 HD
ENDBRANCH  19  20
ENDBRANCH  12  19
ENDBRANCH   4  10
BRANCH   8  22
ATOM     22  N6    A A   1      10.038   2.232  21.605  0.00  0.00    -0.341 N 
ATOM     23  H61   A A   1      10.951   2.447  21.219  0.00  0.00    +0.144 HD
ATOM     24  H62   A A   1       9.292   2.022  20.954  0.00  0.00    +0.144 HD
ENDBRANCH   8  22
TORSDOF 6
ENDMDL
MODEL 2
REMARK VINA RESULT:      -6.4      3.163      5.828
REMARK  Name = 
REMARK  6 active torsions:
REMARK  status: ('A' for Active; 'I' for Inactive)
REMARK    1  A    between atoms: C6_3  and  N6_23
REMARK    2  A    between atoms: N9_7  and  C1*_10
REMARK    3  A    between atoms: C2*_12  and  O2*_22
REMARK    4  A    between atoms: C3*_14  and  O3*_21
REMARK    5  A    between atoms: C4*_16  and  C5*_19
REMARK    6  A    between atoms: C5*_19  and  O5*_20
REMARK                            x       y       z     vdW  Elec       q    Type
REMARK                         _______ _______ _______ _____ _____    ______ ____
ROOT
ATOM      1  C2    A A   1       5.889  -3.454  21.419  0.00  0.00    +0.225 A 
ATOM      2  N3    A A   1       6.829  -2.698  22.033  0.00  0.00    -0.216 NA
ATOM      3  C4    A A   1       7.578  -3.445  22.869  0.00  0.00    +0.167 A 
ATOM      4  N9    A A   1       8.598  -3.045  23.687  0.00  0.00    -0.286 N 
ATOM      5  C8    A A   1       9.043  -4.164  24.356  0.00  0.00    +0.203 A 
ATOM      6  N7    A A   1       8.378  -5.245  24.018  0.00  0.00    -0.231 NA
ATOM      7  C5    A A   1       7.456  -4.810  23.090  0.00  0.00    +0.147 A 
ATOM      8  C6    A A   1       6.457  -5.488  22.370  0.00  0.00    +0.147 A 
ATOM      9  N1    A A   1       5.662  -4.776  21.543  0.00  0.00    -0.219 NA
ENDROOT
BRANCH   4  10
ATOM     10  C1*   A A   1       9.228  -1.753  23.820  0.00  0.00    +0.253 C 
ATOM     11  O4*   A A   1       8.208  -0.734  23.717  0.00  0.00    -0.346 OA
ATOM     12  C4*   A A   1       8.885   0.517  23.428  0.00  0.00    +0.177 C 
ATOM     13  C3*   A A   1      10.360   0.181  23.144  0.00  0.00    +0.178 C 
ATOM     14  C2*   A A   1      10.327  -1.313  22.843  0.00  0.00    +0.195 C 
BRANCH  13  15
ATOM     15  O3*   A A   1      11.123   0.396  24.340  0.00  0.00    -0.386 OA
ATOM     16  H3*   A A   1      11.305   1.351  24.400  0.00  0.00    +0.210 HD
ENDBRANCH  13  15
BRANCH  14  17
ATOM     17  O2*   A A   1       9.980  -1.474  21.467  0.00  0.00    -0.385 OA
ATOM     18  H2*   A A   1       9.007  -1.598  21.437  0.00  0.00    +0.210 HD
ENDBRANCH  14  17
BRANCH  12  19
ATOM     19  C5*   A A   1       8.155   1.221  22.277  0.00  0.00    +0.190 C 
BRANCH  19  20
ATOM     20  O5*   A A   1       8.919   1.334  21.084  0.00  0.00    -0.392 OA
ATOM     21  H5*   A A   1       8.751   2.214  20.695  0.00  0.00    +0.210 HD
ENDBRANCH  19  20
ENDBRANCH  12  19
ENDBRANCH   4  10
BRANCH   8  22
ATOM     22  N6    A A   1       6.235  -6.855  22.486  0.00  0.00    -0.341 N 
ATOM     23  H61   A A   1       6.612  -7.249  23.341  0.00  0.00    +0.144 HD
ATOM     24  H62   A A   1       5.290  -7.109  22.230  0.00  0.00    +0.144 HD
ENDBRANCH   8  22
TORSDOF 6
ENDMDL
MODEL 3
REMARK VINA RESULT:      -6.2      2.193      3.003
REMARK  Name = 
REMARK  6 active torsions:
REMARK  status: ('A' for Active; 'I' for Inactive)
REMARK    1  A    between atoms: C6_3  and  N6_23
REMARK    2  A    between atoms: N9_7  and  C1*_10
REMARK    3  A    between atoms: C2*_12  and  O2*_22
REMARK    4  A    between atoms: C3*_14  and  O3*_21
REMARK    5  A    between atoms: C4*_16  and  C5*_19
REMARK    6  A    between atoms: C5*_19  and  O5*_20
REMARK                            x       y       z     vdW  Elec       q    Type
REMARK                         _______ _______ _______ _____ _____    ______ ____
ROOT
ATOM      1  C2    A A   1       6.800   1.563  23.343  0.00  0.00    +0.225 A 
ATOM      2  N3    A A   1       6.637   0.225  23.467  0.00  0.00    -0.216 NA
ATOM      3  C4    A A   1       7.642  -0.441  22.864  0.00  0.00    +0.167 A 
ATOM      4  N9    A A   1       7.817  -1.792  22.743  0.00  0.00    -0.286 N 
ATOM      5  C8    A A   1       8.983  -1.987  22.034  0.00  0.00    +0.203 A 
ATOM      6  N7    A A   1       9.559  -0.856  21.700  0.00  0.00    -0.231 NA
ATOM      7  C5    A A   1       8.730   0.121  22.210  0.00  0.00    +0.147 A 
ATOM      8  C6    A A   1       8.799   1.524  22.173  0.00  0.00    +0.147 A 
ATOM      9  N1    A A   1       7.799   2.235  22.738  0.00  0.00    -0.219 NA
ENDROOT
BRANCH   4  10
ATOM     10  C1*   A A   1       7.049  -2.880  23.299  0.00  0.00    +0.253 C 
ATOM     11  O4*   A A   1       7.761  -4.114  23.055  0.00  0.00    -0.346 OA
ATOM     12  C4*   A A   1       6.808  -5.195  23.227  0.00  0.00    +0.177 C 
ATOM     13  C3*   A A   1       5.417  -4.555  23.381  0.00  0.00    +0.178 C 
ATOM     14  C2*   A A   1       5.615  -3.150  22.826  0.00  0.00    +0.195 C 
BRANCH  13  15
ATOM     15  O3*   A A   1       5.101  -4.461  24.778  0.00  0.00    -0.386 OA
ATOM     16  H3*   A A   1       4.509  -3.695  24.890  0.00  0.00    +0.210 HD
ENDBRANCH  13  15
BRANCH  14  17
ATOM     17  O2*   A A   1       5.475  -3.218  21.406  0.00  0.00    -0.385 OA
ATOM     18  H2*   A A   1       6.258  -3.706  21.071  0.00  0.00    +0.210 HD
ENDBRANCH  14  17
BRANCH  12  19
ATOM     19  C5*   A A   1       6.940  -6.166  22.047  0.00  0.00    +0.190 C 
BRANCH  19  20
ATOM     20  O5*   A A   1       5.751  -6.323  21.284  0.00  0.00    -0.392 OA
ATOM     21  H5*   A A   1       5.158  -5.572  21.484  0.00  0.00    +0.210 HD
ENDBRANCH  19  20
ENDBRANCH  12  19
ENDBRANCH   4  10
BRANCH   8  22
ATOM     22  N6    A A   1       9.838   2.216  21.564  0.00  0.00    -0.341 N 
ATOM     23  H61   A A   1      10.484   2.632  22.227  0.00  0.00    +0.144 HD
ATOM     24  H62   A A   1      10.232   1.703  20.786  0.00  0.00    +0.144 HD
ENDBRANCH   8  22
TORSDOF 6
ENDMDL
MODEL 4
REMARK VINA RESULT:      -6.1      3.253      5.781
REMARK  Name = 
REMARK  6 active torsions:
REMARK  status: ('A' for Active; 'I' for Inactive)
REMARK    1  A    between atoms: C6_3  and  N6_23
REMARK    2  A    between atoms: N9_7  and  C1*_10
REMARK    3  A    between atoms: C2*_12  and  O2*_22
REMARK    4  A    between atoms: C3*_14  and  O3*_21
REMARK    5  A    between atoms: C4*_16  and  C5*_19
REMARK    6  A    between atoms: C5*_19  and  O5*_20
REMARK                            x       y       z     vdW  Elec       q    Type
REMARK                         _______ _______ _______ _____ _____    ______ ____
ROOT
ATOM      1  C2    A A   1       7.353  -3.922  26.745  0.00  0.00    +0.225 A 
ATOM      2  N3    A A   1       7.191  -2.796  26.011  0.00  0.00    -0.216 NA
ATOM      3  C4    A A   1       8.181  -2.664  25.106  0.00  0.00    +0.167 A 
ATOM      4  N9    A A   1       8.387  -1.652  24.210  0.00  0.00    -0.286 N 
ATOM      5  C8    A A   1       9.534  -1.957  23.510  0.00  0.00    +0.203 A 
ATOM      6  N7    A A   1      10.068  -3.092  23.899  0.00  0.00    -0.231 NA
ATOM      7  C5    A A   1       9.234  -3.545  24.899  0.00  0.00    +0.147 A 
ATOM      8  C6    A A   1       9.276  -4.693  25.708  0.00  0.00    +0.147 A 
ATOM      9  N1    A A   1       8.322  -4.854  26.651  0.00  0.00    -0.219 NA
ENDROOT
BRANCH   4  10
ATOM     10  C1*   A A   1       7.569  -0.502  23.905  0.00  0.00    +0.253 C 
ATOM     11  O4*   A A   1       8.071   0.109  22.696  0.00  0.00    -0.346 OA
ATOM     12  C4*   A A   1       7.532   1.456  22.646  0.00  0.00    +0.177 C 
ATOM     13  C3*   A A   1       6.842   1.720  23.995  0.00  0.00    +0.178 C 
ATOM     14  C2*   A A   1       7.435   0.652  24.906  0.00  0.00    +0.195 C 
BRANCH  13  15
ATOM     15  O3*   A A   1       5.435   1.479  23.853  0.00  0.00    -0.386 OA
ATOM     16  H3*   A A   1       5.258   0.583  24.194  0.00  0.00    +0.210 HD
ENDBRANCH  13  15
BRANCH  14  17
ATOM     17  O2*   A A   1       8.683   1.142  25.399  0.00  0.00    -0.385 OA
ATOM     18  H2*   A A   1       8.725   2.092  25.159  0.00  0.00    +0.210 HD
ENDBRANCH  14  17
BRANCH  12  19
ATOM     19  C5*   A A   1       8.666   2.431  22.303  0.00  0.00    +0.190 C 
BRANCH  19  20
ATOM     20  O5*   A A   1       9.608   1.925  21.368  0.00  0.00    -0.392 OA
ATOM     21  H5*   A A   1      10.190   2.659  21.090  0.00  0.00    +0.210 HD
ENDBRANCH  19  20
ENDBRANCH  12  19
ENDBRANCH   4  10
BRANCH   8  22
ATOM     22  N6    A A   1      10.265  -5.662  25.599  0.00  0.00    -0.341 N 
ATOM     23  H61   A A   1      10.675  -5.917  26.491  0.00  0.00    +0.144 HD
ATOM     24  H62   A A   1       9.995  -6.413  24.977  0.00  0.00    +0.144 HD
ENDBRANCH   8  22
TORSDOF 6
ENDMDL
MODEL 5
REMARK VINA RESULT:      -6.1      3.248      5.899
REMARK  Name = 
REMARK  6 active torsions:
REMARK  status: ('A' for Active; 'I' for Inactive)
REMARK    1  A    between atoms: C6_3  and  N6_23
REMARK    2  A    between atoms: N9_7  and  C1*_10
REMARK    3  A    between atoms: C2*_12  and  O2*_22
REMARK    4  A    between atoms: C3*_14  and  O3*_21
REMARK    5  A    between atoms: C4*_16  and  C5*_19
REMARK    6  A    between atoms: C5*_19  and  O5*_20
REMARK                            x       y       z     vdW  Elec       q    Type
REMARK                         _______ _______ _______ _____ _____    ______ ____
ROOT
ATOM      1  C2    A A   1       6.427  -5.078  25.943  0.00  0.00    +0.225 A 
ATOM      2  N3    A A   1       7.109  -3.970  25.572  0.00  0.00    -0.216 NA
ATOM      3  C4    A A   1       7.000  -3.757  24.246  0.00  0.00    +0.167 A 
ATOM      4  N9    A A   1       7.566  -2.768  23.491  0.00  0.00    -0.286 N 
ATOM      5  C8    A A   1       7.173  -2.976  22.187  0.00  0.00    +0.203 A 
ATOM      6  N7    A A   1       6.395  -4.027  22.063  0.00  0.00    -0.231 NA
ATOM      7  C5    A A   1       6.279  -4.527  23.343  0.00  0.00    +0.147 A 
ATOM      8  C6    A A   1       5.590  -5.639  23.857  0.00  0.00    +0.147 A 
ATOM      9  N1    A A   1       5.695  -5.910  25.176  0.00  0.00    -0.219 NA
ENDROOT
BRANCH   4  10
ATOM     10  C1*   A A   1       8.350  -1.626  23.898  0.00  0.00    +0.253 C 
ATOM     11  O4*   A A   1       8.138  -0.562  22.943  0.00  0.00    -0.346 OA
ATOM     12  C4*   A A   1       9.223   0.387  23.116  0.00  0.00    +0.177 C 
ATOM     13  C3*   A A   1      10.236  -0.252  24.082  0.00  0.00    +0.178 C 
ATOM     14  C2*   A A   1       9.874  -1.731  24.040  0.00  0.00    +0.195 C 
BRANCH  13  15
ATOM     15  O3*   A A   1       9.994   0.247  25.406  0.00  0.00    -0.386 OA
ATOM     16  H3*   A A   1      10.698  -0.104  25.981  0.00  0.00    +0.210 HD
ENDBRANCH  13  15
BRANCH  14  17
ATOM     17  O2*   A A   1      10.525  -2.308  22.907  0.00  0.00    -0.385 OA
ATOM     18  H2*   A A   1      11.460  -2.454  23.166  0.00  0.00    +0.210 HD
ENDBRANCH  14  17
BRANCH  12  19
ATOM     19  C5*   A A   1       9.791   0.749  21.738  0.00  0.00    +0.190 C 
BRANCH  19  20
ATOM     20  O5*   A A   1       9.823   2.144  21.468  0.00  0.00    -0.392 OA
ATOM     21  H5*   A A   1       9.092   2.354  20.854  0.00  0.00    +0.210 HD
ENDBRANCH  19  20
ENDBRANCH  12  19
ENDBRANCH   4  10
BRANCH   8  22
ATOM     22  N6    A A   1       4.822  -6.487  23.068  0.00  0.00    -0.341 N 
ATOM     23  H61   A A   1       4.642  -7.384  23.505  0.00  0.00    +0.144 HD
ATOM     24  H62   A A   1       4.038  -6.006  22.646  0.00  0.00    +0.144 HD
ENDBRANCH   8  22
TORSDOF 6
ENDMDL
MODEL 6
REMARK VINA RESULT:      -6.1      3.106      5.901
REMARK  Name = 
REMARK  6 active torsions:
REMARK  status: ('A' for Active; 'I' for Inactive)
REMARK    1  A    between atoms: C6_3  and  N6_23
REMARK    2  A    between atoms: N9_7  and  C1*_10
REMARK    3  A    between atoms: C2*_12  and  O2*_22
REMARK    4  A    between atoms: C3*_14  and  O3*_21
REMARK    5  A    between atoms: C4*_16  and  C5*_19
REMARK    6  A    between atoms: C5*_19  and  O5*_20
REMARK                            x       y       z     vdW  Elec       q    Type
REMARK                         _______ _______ _______ _____ _____    ______ ____
ROOT
ATOM      1  C2    A A   1       7.138  -5.198  21.763  0.00  0.00    +0.225 A 
ATOM      2  N3    A A   1       7.553  -4.099  22.435  0.00  0.00    -0.216 NA
ATOM      3  C4    A A   1       6.890  -3.967  23.601  0.00  0.00    +0.167 A 
ATOM      4  N9    A A   1       7.001  -2.977  24.537  0.00  0.00    -0.286 N 
ATOM      5  C8    A A   1       6.110  -3.271  25.546  0.00  0.00    +0.203 A 
ATOM      6  N7    A A   1       5.444  -4.379  25.316  0.00  0.00    -0.231 NA
ATOM      7  C5    A A   1       5.919  -4.825  24.100  0.00  0.00    +0.147 A 
ATOM      8  C6    A A   1       5.594  -5.947  23.319  0.00  0.00    +0.147 A 
ATOM      9  N1    A A   1       6.211  -6.106  22.129  0.00  0.00    -0.219 NA
ENDROOT
BRANCH   4  10
ATOM     10  C1*   A A   1       7.913  -1.860  24.601  0.00  0.00    +0.253 C 
ATOM     11  O4*   A A   1       7.822  -1.124  23.361  0.00  0.00    -0.346 OA
ATOM     12  C4*   A A   1       9.010  -0.294  23.272  0.00  0.00    +0.177 C 
ATOM     13  C3*   A A   1       9.945  -0.713  24.419  0.00  0.00    +0.178 C 
ATOM     14  C2*   A A   1       9.415  -2.085  24.819  0.00  0.00    +0.195 C 
BRANCH  13  15
ATOM     15  O3*   A A   1       9.765   0.191  25.519  0.00  0.00    -0.386 OA
ATOM     16  H3*   A A   1       9.514  -0.342  26.295  0.00  0.00    +0.210 HD
ENDBRANCH  13  15
BRANCH  14  17
ATOM     17  O2*   A A   1       9.991  -3.050  23.938  0.00  0.00    -0.385 OA
ATOM     18  H2*   A A   1       9.983  -2.650  23.042  0.00  0.00    +0.210 HD
ENDBRANCH  14  17
BRANCH  12  19
ATOM     19  C5*   A A   1       9.612  -0.438  21.868  0.00  0.00    +0.190 C 
BRANCH  19  20
ATOM     20  O5*   A A   1       9.673  -1.777  21.394  0.00  0.00    -0.392 OA
ATOM     21  H5*   A A   1       8.761  -2.121  21.330  0.00  0.00    +0.210 HD
ENDBRANCH  19  20
ENDBRANCH  12  19
ENDBRANCH   4  10
BRANCH   8  22
ATOM     22  N6    A A   1       4.651  -6.892  23.705  0.00  0.00    -0.341 N 
ATOM     23  H61   A A   1       3.791  -6.839  23.170  0.00  0.00    +0.144 HD
ATOM     24  H62   A A   1       5.062  -7.806  23.841  0.00  0.00    +0.144 HD
ENDBRANCH   8  22
TORSDOF 6
ENDMDL
MODEL 7
REMARK VINA RESULT:      -6.0      1.545      2.778
REMARK  Name = 
REMARK  6 active torsions:
REMARK  status: ('A' for Active; 'I' for Inactive)
REMARK    1  A    between atoms: C6_3  and  N6_23
REMARK    2  A    between atoms: N9_7  and  C1*_10
REMARK    3  A    between atoms: C2*_12  and  O2*_22
REMARK    4  A    between atoms: C3*_14  and  O3*_21
REMARK    5  A    between atoms: C4*_16  and  C5*_19
REMARK    6  A    between atoms: C5*_19  and  O5*_20
REMARK                            x       y       z     vdW  Elec       q    Type
REMARK                         _______ _______ _______ _____ _____    ______ ____
ROOT
ATOM      1  C2    A A   1       6.851   1.342  22.398  0.00  0.00    +0.225 A 
ATOM      2  N3    A A   1       6.871   0.195  23.115  0.00  0.00    -0.216 NA
ATOM      3  C4    A A   1       8.134  -0.234  23.306  0.00  0.00    +0.167 A 
ATOM      4  N9    A A   1       8.564  -1.362  23.949  0.00  0.00    -0.286 N 
ATOM      5  C8    A A   1       9.940  -1.373  23.872  0.00  0.00    +0.203 A 
ATOM      6  N7    A A   1      10.412  -0.330  23.228  0.00  0.00    -0.231 NA
ATOM      7  C5    A A   1       9.294   0.391  22.866  0.00  0.00    +0.147 A 
ATOM      8  C6    A A   1       9.141   1.592  22.152  0.00  0.00    +0.147 A 
ATOM      9  N1    A A   1       7.892   2.045  21.910  0.00  0.00    -0.219 NA
ENDROOT
BRANCH   4  10
ATOM     10  C1*   A A   1       7.815  -2.353  24.684  0.00  0.00    +0.253 C 
ATOM     11  O4*   A A   1       8.719  -3.040  25.577  0.00  0.00    -0.346 OA
ATOM     12  C4*   A A   1       8.066  -4.273  25.976  0.00  0.00    +0.177 C 
ATOM     13  C3*   A A   1       6.800  -4.417  25.114  0.00  0.00    +0.178 C 
ATOM     14  C2*   A A   1       7.060  -3.469  23.950  0.00  0.00    +0.195 C 
BRANCH  13  15
ATOM     15  O3*   A A   1       5.672  -3.936  25.860  0.00  0.00    -0.386 OA
ATOM     16  H3*   A A   1       5.123  -3.411  25.250  0.00  0.00    +0.210 HD
ENDBRANCH  13  15
BRANCH  14  17
ATOM     17  O2*   A A   1       7.849  -4.166  22.985  0.00  0.00    -0.385 OA
ATOM     18  H2*   A A   1       7.723  -3.700  22.131  0.00  0.00    +0.210 HD
ENDBRANCH  14  17
BRANCH  12  19
ATOM     19  C5*   A A   1       9.066  -5.429  25.844  0.00  0.00    +0.190 C 
BRANCH  19  20
ATOM     20  O5*   A A   1      10.018  -5.261  24.801  0.00  0.00    -0.392 OA
ATOM     21  H5*   A A   1       9.766  -4.473  24.281  0.00  0.00    +0.210 HD
ENDBRANCH  19  20
ENDBRANCH  12  19
ENDBRANCH   4  10
BRANCH   8  22
ATOM     22  N6    A A   1      10.216   2.326  21.666  0.00  0.00    -0.341 N 
ATOM     23  H61   A A   1      10.097   3.328  21.776  0.00  0.00    +0.144 HD
ATOM     24  H62   A A   1      11.104   1.927  21.940  0.00  0.00    +0.144 HD
ENDBRANCH   8  22
TORSDOF 6
ENDMDL
MODEL 8
REMARK VINA RESULT:      -6.0      1.959      3.350
REMARK  Name = 
REMARK  6 active torsions:
REMARK  status: ('A' for Active; 'I' for Inactive)
REMARK    1  A    between atoms: C6_3  and  N6_23
REMARK    2  A    between atoms: N9_7  and  C1*_10
REMARK    3  A    between atoms: C2*_12  and  O2*_22
REMARK    4  A    between atoms: C3*_14  and  O3*_21
REMARK    5  A    between atoms: C4*_16  and  C5*_19
REMARK    6  A    between atoms: C5*_19  and  O5*_20
REMARK                            x       y       z     vdW  Elec       q    Type
REMARK                         _______ _______ _______ _____ _____    ______ ____
ROOT
ATOM      1  C2    A A   1       9.759  -0.285  21.813  0.00  0.00    +0.225 A 
ATOM      2  N3    A A   1       8.914  -1.342  21.842  0.00  0.00    -0.216 NA
ATOM      3  C4    A A   1       8.677  -1.736  23.108  0.00  0.00    +0.167 A 
ATOM      4  N9    A A   1       7.910  -2.779  23.547  0.00  0.00    -0.286 N 
ATOM      5  C8    A A   1       7.987  -2.788  24.923  0.00  0.00    +0.203 A 
ATOM      6  N7    A A   1       8.747  -1.823  25.387  0.00  0.00    -0.231 NA
ATOM      7  C5    A A   1       9.188  -1.157  24.263  0.00  0.00    +0.147 A 
ATOM      8  C6    A A   1      10.035  -0.047  24.101  0.00  0.00    +0.147 A 
ATOM      9  N1    A A   1      10.325   0.366  22.848  0.00  0.00    -0.219 NA
ENDROOT
BRANCH   4  10
ATOM     10  C1*   A A   1       7.065  -3.685  22.806  0.00  0.00    +0.253 C 
ATOM     11  O4*   A A   1       5.918  -4.012  23.622  0.00  0.00    -0.346 OA
ATOM     12  C4*   A A   1       5.325  -5.211  23.060  0.00  0.00    +0.177 C 
ATOM     13  C3*   A A   1       6.289  -5.732  21.980  0.00  0.00    +0.178 C 
ATOM     14  C2*   A A   1       7.602  -5.037  22.318  0.00  0.00    +0.195 C 
BRANCH  13  15
ATOM     15  O3*   A A   1       5.840  -5.275  20.696  0.00  0.00    -0.386 OA
ATOM     16  H3*   A A   1       6.369  -4.489  20.467  0.00  0.00    +0.210 HD
ENDBRANCH  13  15
BRANCH  14  17
ATOM     17  O2*   A A   1       8.253  -5.803  23.332  0.00  0.00    -0.385 OA
ATOM     18  H2*   A A   1       7.654  -6.549  23.547  0.00  0.00    +0.210 HD
ENDBRANCH  14  17
BRANCH  12  19
ATOM     19  C5*   A A   1       5.037  -6.202  24.195  0.00  0.00    +0.190 C 
BRANCH  19  20
ATOM     20  O5*   A A   1       4.513  -7.450  23.762  0.00  0.00    -0.392 OA
ATOM     21  H5*   A A   1       3.538  -7.399  23.790  0.00  0.00    +0.210 HD
ENDBRANCH  19  20
ENDBRANCH  12  19
ENDBRANCH   4  10
BRANCH   8  22
ATOM     22  N6    A A   1      10.604   0.634  25.169  0.00  0.00    -0.341 N 
ATOM     23  H61   A A   1      10.856   0.026  25.941  0.00  0.00    +0.144 HD
ATOM     24  H62   A A   1      11.289   1.314  24.866  0.00  0.00    +0.144 HD
ENDBRANCH   8  22
TORSDOF 6
ENDMDL
MODEL 9
REMARK VINA RESULT:      -6.0      1.349      2.725
REMARK  Name = 
REMARK  6 active torsions:
REMARK  status: ('A' for Active; 'I' for Inactive)
REMARK    1  A    between atoms: C6_3  and  N6_23
REMARK    2  A    between atoms: N9_7  and  C1*_10
REMARK    3  A    between atoms: C2*_12  and  O2*_22
REMARK    4  A    between atoms: C3*_14  and  O3*_21
REMARK    5  A    between atoms: C4*_16  and  C5*_19
REMARK    6  A    between atoms: C5*_19  and  O5*_20
REMARK                            x       y       z     vdW  Elec       q    Type
REMARK                         _______ _______ _______ _____ _____    ______ ____
ROOT
ATOM      1  C2    A A   1       9.415   0.059  21.360  0.00  0.00    +0.225 A 
ATOM      2  N3    A A   1       8.814  -0.938  22.050  0.00  0.00    -0.216 NA
ATOM      3  C4    A A   1       8.917  -0.737  23.379  0.00  0.00    +0.167 A 
ATOM      4  N9    A A   1       8.470  -1.531  24.398  0.00  0.00    -0.286 N 
ATOM      5  C8    A A   1       8.822  -0.912  25.578  0.00  0.00    +0.203 A 
ATOM      6  N7    A A   1       9.460   0.219  25.377  0.00  0.00    -0.231 NA
ATOM      7  C5    A A   1       9.529   0.340  24.006  0.00  0.00    +0.147 A 
ATOM      8  C6    A A   1      10.095   1.325  23.178  0.00  0.00    +0.147 A 
ATOM      9  N1    A A   1      10.042   1.151  21.840  0.00  0.00    -0.219 NA
ENDROOT
BRANCH   4  10
ATOM     10  C1*   A A   1       7.684  -2.740  24.355  0.00  0.00    +0.253 C 
ATOM     11  O4*   A A   1       7.182  -3.008  25.684  0.00  0.00    -0.346 OA
ATOM     12  C4*   A A   1       6.774  -4.400  25.712  0.00  0.00    +0.177 C 
ATOM     13  C3*   A A   1       7.248  -5.039  24.395  0.00  0.00    +0.178 C 
ATOM     14  C2*   A A   1       8.307  -4.065  23.895  0.00  0.00    +0.195 C 
BRANCH  13  15
ATOM     15  O3*   A A   1       6.155  -5.054  23.466  0.00  0.00    -0.386 OA
ATOM     16  H3*   A A   1       5.842  -5.975  23.401  0.00  0.00    +0.210 HD
ENDBRANCH  13  15
BRANCH  14  17
ATOM     17  O2*   A A   1       9.538  -4.385  24.544  0.00  0.00    -0.385 OA
ATOM     18  H2*   A A   1      10.057  -4.924  23.910  0.00  0.00    +0.210 HD
ENDBRANCH  14  17
BRANCH  12  19
ATOM     19  C5*   A A   1       7.333  -5.055  26.981  0.00  0.00    +0.190 C 
BRANCH  19  20
ATOM     20  O5*   A A   1       8.351  -6.018  26.741  0.00  0.00    -0.392 OA
ATOM     21  H5*   A A   1       7.980  -6.720  26.171  0.00  0.00    +0.210 HD
ENDBRANCH  19  20
ENDBRANCH  12  19
ENDBRANCH   4  10
BRANCH   8  22
ATOM     22  N6    A A   1      10.725   2.460  23.672  0.00  0.00    -0.341 N 
ATOM     23  H61   A A   1      11.133   3.038  22.945  0.00  0.00    +0.144 HD
ATOM     24  H62   A A   1      10.174   2.922  24.384  0.00  0.00    +0.144 HD
ENDBRANCH   8  22
TORSDOF 6
ENDMDL
