MODEL 1
REMARK VINA RESULT:      -6.5      0.000      0.000
REMARK  Name = 
REMARK  16 active torsions:
REMARK  status: ('A' for Active; 'I' for Inactive)
REMARK    1  A    between atoms: C_1  and  C_2
REMARK    2  A    between atoms: C_3  and  C_9
REMARK    3  A    between atoms: C_7  and  O_8
REMARK    4  A    between atoms: N_11  and  C_12
REMARK    5  A    between atoms: C_12  and  C_14
REMARK    6  A    between atoms: C_12  and  C_22
REMARK    7  A    between atoms: C_14  and  S_15
REMARK    8  A    between atoms: S_15  and  C_16
REMARK    9  A    between atoms: C_22  and  C_24
REMARK   10  A    between atoms: C_22  and  O_45
REMARK   11  A    between atoms: C_24  and  N_25
REMARK   12  A    between atoms: C_36  and  C_38
REMARK   13  A    between atoms: N_40  and  C_41
REMARK   14  A    between atoms: C_41  and  C_42
REMARK   15  A    between atoms: C_41  and  C_43
REMARK   16  A    between atoms: C_41  and  C_44
REMARK                            x       y       z     vdW  Elec       q    Type
REMARK                         _______ _______ _______ _____ _____    ______ ____
ROOT
ATOM      1  C   UNL     1       5.270  -0.718  26.393  0.00  0.00    +0.113 C 
ENDROOT
BRANCH   1   3
ATOM      2  C   UNL     1       7.519  -0.051  25.275  0.00  0.00    +0.245 C 
ATOM      3  N   UNL     1       6.173  -0.392  25.253  0.00  0.00    -0.305 N 
ATOM      4  H   UNL     1       5.758  -0.570  24.360  0.00  0.00    +0.149 HD
ATOM      5  O   UNL     1       8.146   0.058  26.324  0.00  0.00    -0.270 OA
BRANCH   2  12
ATOM      6  C   UNL     1       9.691  -1.967  24.197  0.00  0.00    +0.048 C 
ATOM      7  C   UNL     1       9.146  -0.809  23.401  0.00  0.00    +0.003 A 
ATOM      8  C   UNL     1       9.604  -0.660  22.071  0.00  0.00    +0.120 A 
ATOM      9  C   UNL     1       9.261   0.440  21.291  0.00  0.00    +0.046 A 
ATOM     10  C   UNL     1       8.425   1.406  21.824  0.00  0.00    +0.004 A 
ATOM     11  C   UNL     1       7.889   1.238  23.107  0.00  0.00    +0.013 A 
ATOM     12  C   UNL     1       8.216   0.129  23.920  0.00  0.00    +0.043 A 
BRANCH   8  13
ATOM     13  O   UNL     1      10.413  -1.626  21.532  0.00  0.00    -0.506 OA
ATOM     14  H   UNL     1       9.986  -2.004  20.745  0.00  0.00    +0.292 HD
ENDBRANCH   8  13
ENDBRANCH   2  12
ENDBRANCH   1   3
BRANCH   1  15
ATOM     15  C   UNL     1       5.438  -2.123  27.060  0.00  0.00    +0.149 C 
BRANCH  15  16
ATOM     16  O   UNL     1       4.233  -2.505  27.762  0.00  0.00    -0.389 OA
ATOM     17  H   UNL     1       4.192  -3.481  27.754  0.00  0.00    +0.210 HD
ENDBRANCH  15  16
BRANCH  15  18
ATOM     18  C   UNL     1       5.718  -3.232  26.009  0.00  0.00    +0.118 C 
BRANCH  18  19
ATOM     19  N   UNL     1       4.489  -3.835  25.495  0.00  0.00    -0.289 NA
ATOM     20  C   UNL     1       4.384  -5.311  25.544  0.00  0.00    +0.143 C 
ATOM     21  C   UNL     1       5.187  -5.990  24.423  0.00  0.00    +0.032 C 
ATOM     22  C   UNL     1       4.896  -5.429  23.021  0.00  0.00    -0.005 C 
ATOM     23  C   UNL     1       5.005  -3.909  22.979  0.00  0.00    +0.006 C 
ATOM     24  C   UNL     1       6.444  -3.362  22.813  0.00  0.00    +0.005 C 
ATOM     25  C   UNL     1       7.599  -4.368  22.697  0.00  0.00    +0.000 C 
ATOM     26  C   UNL     1       7.264  -5.792  22.253  0.00  0.00    +0.000 C 
ATOM     27  C   UNL     1       5.796  -6.023  21.946  0.00  0.00    +0.004 C 
ATOM     28  C   UNL     1       4.162  -3.343  24.133  0.00  0.00    +0.089 C 
BRANCH  20  29
ATOM     29  C   UNL     1       4.753  -5.975  26.897  0.00  0.00    +0.231 C 
ATOM     30  N   UNL     1       4.302  -5.391  28.069  0.00  0.00    -0.309 N 
ATOM     31  H   UNL     1       3.866  -4.483  27.992  0.00  0.00    +0.149 HD
ATOM     32  O   UNL     1       5.354  -7.045  26.915  0.00  0.00    -0.274 OA
BRANCH  30  33
ATOM     33  C   UNL     1       4.603  -5.926  29.420  0.00  0.00    +0.026 C 
ATOM     34  C   UNL     1       3.648  -7.086  29.749  0.00  0.00    +0.031 C 
ATOM     35  C   UNL     1       4.393  -4.828  30.485  0.00  0.00    +0.031 C 
ATOM     36  C   UNL     1       6.067  -6.395  29.544  0.00  0.00    +0.031 C 
ENDBRANCH  30  33
ENDBRANCH  20  29
ENDBRANCH  18  19
ENDBRANCH  15  18
ENDBRANCH   1  15
BRANCH   1  37
ATOM     37  C   UNL     1       5.228   0.374  27.459  0.00  0.00    +0.099 C 
BRANCH  37  38
ATOM     38  S   UNL     1       4.065   1.684  26.931  0.00  0.00    -0.123 S 
BRANCH  38  39
ATOM     39  C   UNL     1       5.277   2.765  26.238  0.00  0.00    +0.008 A 
ATOM     40  C   UNL     1       6.428   3.061  26.969  0.00  0.00    +0.015 A 
ATOM     41  C   UNL     1       7.415   3.866  26.410  0.00  0.00    +0.001 A 
ATOM     42  C   UNL     1       7.246   4.376  25.122  0.00  0.00    +0.000 A 
ATOM     43  C   UNL     1       6.097   4.079  24.391  0.00  0.00    +0.001 A 
ATOM     44  C   UNL     1       5.109   3.270  24.947  0.00  0.00    +0.015 A 
ENDBRANCH  38  39
ENDBRANCH  37  38
ENDBRANCH   1  37
TORSDOF 12
ENDMDL
MODEL 2
REMARK VINA RESULT:      -6.5      2.402      6.802
REMARK  Name = 
REMARK  16 active torsions:
REMARK  status: ('A' for Active; 'I' for Inactive)
REMARK    1  A    between atoms: C_1  and  C_2
REMARK    2  A    between atoms: C_3  and  C_9
REMARK    3  A    between atoms: C_7  and  O_8
REMARK    4  A    between atoms: N_11  and  C_12
REMARK    5  A    between atoms: C_12  and  C_14
REMARK    6  A    between atoms: C_12  and  C_22
REMARK    7  A    between atoms: C_14  and  S_15
REMARK    8  A    between atoms: S_15  and  C_16
REMARK    9  A    between atoms: C_22  and  C_24
REMARK   10  A    between atoms: C_22  and  O_45
REMARK   11  A    between atoms: C_24  and  N_25
REMARK   12  A    between atoms: C_36  and  C_38
REMARK   13  A    between atoms: N_40  and  C_41
REMARK   14  A    between atoms: C_41  and  C_42
REMARK   15  A    between atoms: C_41  and  C_43
REMARK   16  A    between atoms: C_41  and  C_44
REMARK                            x       y       z     vdW  Elec       q    Type
REMARK                         _______ _______ _______ _____ _____    ______ ____
ROOT
ATOM      1  C   UNL     1       7.274  -3.835  24.204  0.00  0.00    +0.113 C 
ENDROOT
BRANCH   1   3
ATOM      2  C   UNL     1       9.360  -2.307  23.950  0.00  0.00    +0.245 C 
ATOM      3  N   UNL     1       7.997  -2.538  24.079  0.00  0.00    -0.305 N 
ATOM      4  H   UNL     1       7.384  -1.758  23.952  0.00  0.00    +0.149 HD
ATOM      5  O   UNL     1      10.179  -3.220  23.959  0.00  0.00    -0.270 OA
BRANCH   2  12
ATOM      6  C   UNL     1       9.189  -0.848  21.231  0.00  0.00    +0.048 C 
ATOM      7  C   UNL     1       9.636  -0.172  22.501  0.00  0.00    +0.003 A 
ATOM      8  C   UNL     1       9.906   1.215  22.441  0.00  0.00    +0.120 A 
ATOM      9  C   UNL     1      10.441   1.912  23.519  0.00  0.00    +0.046 A 
ATOM     10  C   UNL     1      10.692   1.231  24.699  0.00  0.00    +0.004 A 
ATOM     11  C   UNL     1      10.353  -0.123  24.812  0.00  0.00    +0.013 A 
ATOM     12  C   UNL     1       9.805  -0.855  23.734  0.00  0.00    +0.043 A 
BRANCH   8  13
ATOM     13  O   UNL     1       9.636   1.896  21.282  0.00  0.00    -0.506 OA
ATOM     14  H   UNL     1       9.600   2.849  21.468  0.00  0.00    +0.292 HD
ENDBRANCH   8  13
ENDBRANCH   2  12
ENDBRANCH   1   3
BRANCH   1  15
ATOM     15  C   UNL     1       6.725  -4.215  25.619  0.00  0.00    +0.149 C 
BRANCH  15  16
ATOM     16  O   UNL     1       7.771  -4.792  26.436  0.00  0.00    -0.389 OA
ATOM     17  H   UNL     1       7.574  -5.745  26.523  0.00  0.00    +0.210 HD
ENDBRANCH  15  16
BRANCH  15  18
ATOM     18  C   UNL     1       6.189  -2.974  26.383  0.00  0.00    +0.118 C 
BRANCH  18  19
ATOM     19  N   UNL     1       4.812  -2.646  26.016  0.00  0.00    -0.289 NA
ATOM     20  C   UNL     1       4.190  -1.480  26.683  0.00  0.00    +0.143 C 
ATOM     21  C   UNL     1       3.731  -1.805  28.114  0.00  0.00    +0.032 C 
ATOM     22  C   UNL     1       2.864  -3.070  28.219  0.00  0.00    -0.005 C 
ATOM     23  C   UNL     1       3.511  -4.266  27.528  0.00  0.00    +0.006 C 
ATOM     24  C   UNL     1       4.569  -5.015  28.375  0.00  0.00    +0.005 C 
ATOM     25  C   UNL     1       4.856  -4.511  29.797  0.00  0.00    +0.000 C 
ATOM     26  C   UNL     1       3.787  -3.660  30.483  0.00  0.00    +0.000 C 
ATOM     27  C   UNL     1       2.533  -3.445  29.657  0.00  0.00    +0.004 C 
ATOM     28  C   UNL     1       3.919  -3.829  26.112  0.00  0.00    +0.089 C 
BRANCH  20  29
ATOM     29  C   UNL     1       5.036  -0.181  26.710  0.00  0.00    +0.231 C 
ATOM     30  N   UNL     1       5.342   0.440  25.510  0.00  0.00    -0.309 N 
ATOM     31  H   UNL     1       5.111  -0.061  24.664  0.00  0.00    +0.149 HD
ATOM     32  O   UNL     1       5.346   0.332  27.782  0.00  0.00    -0.274 OA
BRANCH  30  33
ATOM     33  C   UNL     1       6.154   1.677  25.410  0.00  0.00    +0.026 C 
ATOM     34  C   UNL     1       5.303   2.896  25.802  0.00  0.00    +0.031 C 
ATOM     35  C   UNL     1       6.630   1.884  23.957  0.00  0.00    +0.031 C 
ATOM     36  C   UNL     1       7.420   1.611  26.290  0.00  0.00    +0.031 C 
ENDBRANCH  30  33
ENDBRANCH  20  29
ENDBRANCH  18  19
ENDBRANCH  15  18
ENDBRANCH   1  15
BRANCH   1  37
ATOM     37  C   UNL     1       6.189  -4.024  23.146  0.00  0.00    +0.099 C 
BRANCH  37  38
ATOM     38  S   UNL     1       6.123  -5.787  22.663  0.00  0.00    -0.123 S 
BRANCH  38  39
ATOM     39  C   UNL     1       4.594  -6.161  23.463  0.00  0.00    +0.008 A 
ATOM     40  C   UNL     1       3.415  -5.581  22.991  0.00  0.00    +0.015 A 
ATOM     41  C   UNL     1       2.198  -5.912  23.577  0.00  0.00    +0.001 A 
ATOM     42  C   UNL     1       2.163  -6.819  24.637  0.00  0.00    +0.000 A 
ATOM     43  C   UNL     1       3.340  -7.400  25.107  0.00  0.00    +0.001 A 
ATOM     44  C   UNL     1       4.559  -7.073  24.519  0.00  0.00    +0.015 A 
ENDBRANCH  38  39
ENDBRANCH  37  38
ENDBRANCH   1  37
TORSDOF 12
ENDMDL
MODEL 3
REMARK VINA RESULT:      -6.4      2.526      6.682
REMARK  Name = 
REMARK  16 active torsions:
REMARK  status: ('A' for Active; 'I' for Inactive)
REMARK    1  A    between atoms: C_1  and  C_2
REMARK    2  A    between atoms: C_3  and  C_9
REMARK    3  A    between atoms: C_7  and  O_8
REMARK    4  A    between atoms: N_11  and  C_12
REMARK    5  A    between atoms: C_12  and  C_14
REMARK    6  A    between atoms: C_12  and  C_22
REMARK    7  A    between atoms: C_14  and  S_15
REMARK    8  A    between atoms: S_15  and  C_16
REMARK    9  A    between atoms: C_22  and  C_24
REMARK   10  A    between atoms: C_22  and  O_45
REMARK   11  A    between atoms: C_24  and  N_25
REMARK   12  A    between atoms: C_36  and  C_38
REMARK   13  A    between atoms: N_40  and  C_41
REMARK   14  A    between atoms: C_41  and  C_42
REMARK   15  A    between atoms: C_41  and  C_43
REMARK   16  A    between atoms: C_41  and  C_44
REMARK                            x       y       z     vdW  Elec       q    Type
REMARK                         _______ _______ _______ _____ _____    ______ ____
ROOT
ATOM      1  C   UNL     1       9.557   0.182  25.317  0.00  0.00    +0.113 C 
ENDROOT
BRANCH   1   3
ATOM      2  C   UNL     1       9.989   2.429  24.084  0.00  0.00    +0.245 C 
ATOM      3  N   UNL     1       9.216   1.549  24.830  0.00  0.00    -0.305 N 
ATOM      4  H   UNL     1       8.254   1.786  24.969  0.00  0.00    +0.149 HD
ATOM      5  O   UNL     1      11.139   2.163  23.751  0.00  0.00    -0.270 OA
BRANCH   2  12
ATOM      6  C   UNL     1       7.562   2.552  22.175  0.00  0.00    +0.048 C 
ATOM      7  C   UNL     1       8.155   3.771  22.833  0.00  0.00    +0.003 A 
ATOM      8  C   UNL     1       7.505   5.009  22.618  0.00  0.00    +0.120 A 
ATOM      9  C   UNL     1       8.035   6.212  23.074  0.00  0.00    +0.046 A 
ATOM     10  C   UNL     1       9.224   6.194  23.784  0.00  0.00    +0.004 A 
ATOM     11  C   UNL     1       9.842   4.974  24.085  0.00  0.00    +0.013 A 
ATOM     12  C   UNL     1       9.324   3.737  23.638  0.00  0.00    +0.043 A 
BRANCH   8  13
ATOM     13  O   UNL     1       6.316   5.028  21.936  0.00  0.00    -0.506 OA
ATOM     14  H   UNL     1       6.177   4.168  21.505  0.00  0.00    +0.292 HD
ENDBRANCH   8  13
ENDBRANCH   2  12
ENDBRANCH   1   3
BRANCH   1  15
ATOM     15  C   UNL     1       8.578  -0.476  26.345  0.00  0.00    +0.149 C 
BRANCH  15  16
ATOM     16  O   UNL     1       9.148  -0.465  27.675  0.00  0.00    -0.389 OA
ATOM     17  H   UNL     1       8.782   0.314  28.137  0.00  0.00    +0.210 HD
ENDBRANCH  15  16
BRANCH  15  18
ATOM     18  C   UNL     1       7.227   0.286  26.426  0.00  0.00    +0.118 C 
BRANCH  18  19
ATOM     19  N   UNL     1       6.664   0.277  27.775  0.00  0.00    -0.289 NA
ATOM     20  C   UNL     1       5.201   0.082  27.899  0.00  0.00    +0.143 C 
ATOM     21  C   UNL     1       4.414   1.363  27.578  0.00  0.00    +0.032 C 
ATOM     22  C   UNL     1       4.905   2.604  28.340  0.00  0.00    -0.005 C 
ATOM     23  C   UNL     1       6.412   2.798  28.208  0.00  0.00    +0.006 C 
ATOM     24  C   UNL     1       6.867   3.509  26.912  0.00  0.00    +0.005 C 
ATOM     25  C   UNL     1       5.794   3.956  25.908  0.00  0.00    +0.000 C 
ATOM     26  C   UNL     1       4.367   4.141  26.423  0.00  0.00    +0.000 C 
ATOM     27  C   UNL     1       4.199   3.883  27.909  0.00  0.00    +0.004 C 
ATOM     28  C   UNL     1       7.091   1.463  28.559  0.00  0.00    +0.089 C 
BRANCH  20  29
ATOM     29  C   UNL     1       4.601  -1.094  27.086  0.00  0.00    +0.231 C 
ATOM     30  N   UNL     1       5.136  -2.360  27.252  0.00  0.00    -0.309 N 
ATOM     31  H   UNL     1       5.983  -2.432  27.797  0.00  0.00    +0.149 HD
ATOM     32  O   UNL     1       3.612  -0.914  26.381  0.00  0.00    -0.274 OA
BRANCH  30  33
ATOM     33  C   UNL     1       4.655  -3.557  26.519  0.00  0.00    +0.026 C 
ATOM     34  C   UNL     1       3.289  -3.997  27.074  0.00  0.00    +0.031 C 
ATOM     35  C   UNL     1       5.640  -4.730  26.711  0.00  0.00    +0.031 C 
ATOM     36  C   UNL     1       4.551  -3.303  25.000  0.00  0.00    +0.031 C 
ENDBRANCH  30  33
ENDBRANCH  20  29
ENDBRANCH  18  19
ENDBRANCH  15  18
ENDBRANCH   1  15
BRANCH   1  37
ATOM     37  C   UNL     1       9.880  -0.796  24.190  0.00  0.00    +0.099 C 
BRANCH  37  38
ATOM     38  S   UNL     1       8.470  -0.857  23.026  0.00  0.00    -0.123 S 
BRANCH  38  39
ATOM     39  C   UNL     1       8.133  -2.581  23.204  0.00  0.00    +0.008 A 
ATOM     40  C   UNL     1       7.292  -3.212  22.287  0.00  0.00    +0.015 A 
ATOM     41  C   UNL     1       7.064  -4.581  22.385  0.00  0.00    +0.001 A 
ATOM     42  C   UNL     1       7.677  -5.314  23.401  0.00  0.00    +0.000 A 
ATOM     43  C   UNL     1       8.519  -4.684  24.316  0.00  0.00    +0.001 A 
ATOM     44  C   UNL     1       8.752  -3.315  24.218  0.00  0.00    +0.015 A 
ENDBRANCH  38  39
ENDBRANCH  37  38
ENDBRANCH   1  37
TORSDOF 12
ENDMDL
MODEL 4
REMARK VINA RESULT:      -6.4      2.467      6.559
REMARK  Name = 
REMARK  16 active torsions:
REMARK  status: ('A' for Active; 'I' for Inactive)
REMARK    1  A    between atoms: C_1  and  C_2
REMARK    2  A    between atoms: C_3  and  C_9
REMARK    3  A    between atoms: C_7  and  O_8
REMARK    4  A    between atoms: N_11  and  C_12
REMARK    5  A    between atoms: C_12  and  C_14
REMARK    6  A    between atoms: C_12  and  C_22
REMARK    7  A    between atoms: C_14  and  S_15
REMARK    8  A    between atoms: S_15  and  C_16
REMARK    9  A    between atoms: C_22  and  C_24
REMARK   10  A    between atoms: C_22  and  O_45
REMARK   11  A    between atoms: C_24  and  N_25
REMARK   12  A    between atoms: C_36  and  C_38
REMARK   13  A    between atoms: N_40  and  C_41
REMARK   14  A    between atoms: C_41  and  C_42
REMARK   15  A    between atoms: C_41  and  C_43
REMARK   16  A    between atoms: C_41  and  C_44
REMARK                            x       y       z     vdW  Elec       q    Type
REMARK                         _______ _______ _______ _____ _____    ______ ____
ROOT
ATOM      1  C   UNL     1       6.788  -1.934  23.135  0.00  0.00    +0.113 C 
ENDROOT
BRANCH   1   3
ATOM      2  C   UNL     1       6.498  -4.413  23.858  0.00  0.00    +0.245 C 
ATOM      3  N   UNL     1       6.374  -3.043  24.041  0.00  0.00    -0.305 N 
ATOM      4  H   UNL     1       6.083  -2.724  24.944  0.00  0.00    +0.149 HD
ATOM      5  O   UNL     1       6.970  -4.893  22.832  0.00  0.00    -0.270 OA
BRANCH   2  12
ATOM      6  C   UNL     1       8.180  -4.814  26.419  0.00  0.00    +0.048 C 
ATOM      7  C   UNL     1       6.812  -5.418  26.229  0.00  0.00    +0.003 A 
ATOM      8  C   UNL     1       6.257  -6.129  27.319  0.00  0.00    +0.120 A 
ATOM      9  C   UNL     1       5.060  -6.829  27.211  0.00  0.00    +0.046 A 
ATOM     10  C   UNL     1       4.376  -6.806  26.007  0.00  0.00    +0.004 A 
ATOM     11  C   UNL     1       4.860  -6.039  24.941  0.00  0.00    +0.013 A 
ATOM     12  C   UNL     1       6.072  -5.316  25.023  0.00  0.00    +0.043 A 
BRANCH   8  13
ATOM     13  O   UNL     1       6.920  -6.133  28.519  0.00  0.00    -0.506 OA
ATOM     14  H   UNL     1       6.886  -5.245  28.910  0.00  0.00    +0.292 HD
ENDBRANCH   8  13
ENDBRANCH   2  12
ENDBRANCH   1   3
BRANCH   1  15
ATOM     15  C   UNL     1       6.718  -0.479  23.707  0.00  0.00    +0.149 C 
BRANCH  15  16
ATOM     16  O   UNL     1       6.323   0.457  22.677  0.00  0.00    -0.389 OA
ATOM     17  H   UNL     1       5.711  -0.015  22.079  0.00  0.00    +0.210 HD
ENDBRANCH  15  16
BRANCH  15  18
ATOM     18  C   UNL     1       5.676  -0.357  24.852  0.00  0.00    +0.118 C 
BRANCH  18  19
ATOM     19  N   UNL     1       6.148  -0.956  26.100  0.00  0.00    -0.289 NA
ATOM     20  C   UNL     1       5.224  -0.930  27.257  0.00  0.00    +0.143 C 
ATOM     21  C   UNL     1       5.178   0.449  27.935  0.00  0.00    +0.032 C 
ATOM     22  C   UNL     1       6.563   1.021  28.279  0.00  0.00    -0.005 C 
ATOM     23  C   UNL     1       7.508   0.990  27.083  0.00  0.00    +0.006 C 
ATOM     24  C   UNL     1       7.351   2.173  26.096  0.00  0.00    +0.005 C 
ATOM     25  C   UNL     1       6.297   3.247  26.406  0.00  0.00    +0.000 C 
ATOM     26  C   UNL     1       5.824   3.387  27.852  0.00  0.00    +0.000 C 
ATOM     27  C   UNL     1       6.500   2.440  28.827  0.00  0.00    +0.004 C 
ATOM     28  C   UNL     1       7.479  -0.430  26.494  0.00  0.00    +0.089 C 
BRANCH  20  29
ATOM     29  C   UNL     1       3.773  -1.402  26.980  0.00  0.00    +0.231 C 
ATOM     30  N   UNL     1       3.461  -2.738  27.165  0.00  0.00    -0.309 N 
ATOM     31  H   UNL     1       4.229  -3.369  27.344  0.00  0.00    +0.149 HD
ATOM     32  O   UNL     1       2.904  -0.585  26.692  0.00  0.00    -0.274 OA
BRANCH  30  33
ATOM     33  C   UNL     1       2.113  -3.308  26.919  0.00  0.00    +0.026 C 
ATOM     34  C   UNL     1       1.995  -4.685  27.593  0.00  0.00    +0.031 C 
ATOM     35  C   UNL     1       1.888  -3.505  25.405  0.00  0.00    +0.031 C 
ATOM     36  C   UNL     1       0.990  -2.376  27.420  0.00  0.00    +0.031 C 
ENDBRANCH  30  33
ENDBRANCH  20  29
ENDBRANCH  18  19
ENDBRANCH  15  18
ENDBRANCH   1  15
BRANCH   1  37
ATOM     37  C   UNL     1       8.138  -2.177  22.464  0.00  0.00    +0.099 C 
BRANCH  37  38
ATOM     38  S   UNL     1       9.463  -2.041  23.718  0.00  0.00    -0.123 S 
BRANCH  38  39
ATOM     39  C   UNL     1       9.891  -0.361  23.382  0.00  0.00    +0.008 A 
ATOM     40  C   UNL     1       9.745   0.136  22.086  0.00  0.00    +0.015 A 
ATOM     41  C   UNL     1      10.026   1.473  21.822  0.00  0.00    +0.001 A 
ATOM     42  C   UNL     1      10.453   2.308  22.854  0.00  0.00    +0.000 A 
ATOM     43  C   UNL     1      10.597   1.812  24.149  0.00  0.00    +0.001 A 
ATOM     44  C   UNL     1      10.313   0.475  24.417  0.00  0.00    +0.015 A 
ENDBRANCH  38  39
ENDBRANCH  37  38
ENDBRANCH   1  37
TORSDOF 12
ENDMDL
MODEL 5
REMARK VINA RESULT:      -6.3      2.583      5.863
REMARK  Name = 
REMARK  16 active torsions:
REMARK  status: ('A' for Active; 'I' for Inactive)
REMARK    1  A    between atoms: C_1  and  C_2
REMARK    2  A    between atoms: C_3  and  C_9
REMARK    3  A    between atoms: C_7  and  O_8
REMARK    4  A    between atoms: N_11  and  C_12
REMARK    5  A    between atoms: C_12  and  C_14
REMARK    6  A    between atoms: C_12  and  C_22
REMARK    7  A    between atoms: C_14  and  S_15
REMARK    8  A    between atoms: S_15  and  C_16
REMARK    9  A    between atoms: C_22  and  C_24
REMARK   10  A    between atoms: C_22  and  O_45
REMARK   11  A    between atoms: C_24  and  N_25
REMARK   12  A    between atoms: C_36  and  C_38
REMARK   13  A    between atoms: N_40  and  C_41
REMARK   14  A    between atoms: C_41  and  C_42
REMARK   15  A    between atoms: C_41  and  C_43
REMARK   16  A    between atoms: C_41  and  C_44
REMARK                            x       y       z     vdW  Elec       q    Type
REMARK                         _______ _______ _______ _____ _____    ______ ____
ROOT
ATOM      1  C   UNL     1       7.979  -3.556  26.414  0.00  0.00    +0.113 C 
ENDROOT
BRANCH   1   3
ATOM      2  C   UNL     1       7.366  -1.070  26.858  0.00  0.00    +0.245 C 
ATOM      3  N   UNL     1       7.071  -2.376  26.491  0.00  0.00    -0.305 N 
ATOM      4  H   UNL     1       6.166  -2.552  26.105  0.00  0.00    +0.149 HD
ATOM      5  O   UNL     1       8.489  -0.732  27.219  0.00  0.00    -0.270 OA
BRANCH   2  12
ATOM      6  C   UNL     1       6.750   0.508  24.274  0.00  0.00    +0.048 C 
ATOM      7  C   UNL     1       5.910   0.610  25.520  0.00  0.00    +0.003 A 
ATOM      8  C   UNL     1       4.742   1.407  25.456  0.00  0.00    +0.120 A 
ATOM      9  C   UNL     1       3.964   1.669  26.579  0.00  0.00    +0.046 A 
ATOM     10  C   UNL     1       4.328   1.110  27.793  0.00  0.00    +0.004 A 
ATOM     11  C   UNL     1       5.430   0.248  27.865  0.00  0.00    +0.013 A 
ATOM     12  C   UNL     1       6.236  -0.039  26.740  0.00  0.00    +0.043 A 
BRANCH   8  13
ATOM     13  O   UNL     1       4.367   1.942  24.252  0.00  0.00    -0.506 OA
ATOM     14  H   UNL     1       3.636   2.567  24.389  0.00  0.00    +0.292 HD
ENDBRANCH   8  13
ENDBRANCH   2  12
ENDBRANCH   1   3
BRANCH   1  15
ATOM     15  C   UNL     1       7.311  -4.967  26.321  0.00  0.00    +0.149 C 
BRANCH  15  16
ATOM     16  O   UNL     1       8.255  -6.005  26.674  0.00  0.00    -0.389 OA
ATOM     17  H   UNL     1       7.747  -6.833  26.775  0.00  0.00    +0.210 HD
ENDBRANCH  15  16
BRANCH  15  18
ATOM     18  C   UNL     1       6.107  -5.103  27.292  0.00  0.00    +0.118 C 
BRANCH  18  19
ATOM     19  N   UNL     1       5.794  -6.498  27.600  0.00  0.00    -0.289 NA
ATOM     20  C   UNL     1       4.492  -7.022  27.128  0.00  0.00    +0.143 C 
ATOM     21  C   UNL     1       3.324  -6.563  28.015  0.00  0.00    +0.032 C 
ATOM     22  C   UNL     1       3.546  -6.813  29.516  0.00  0.00    -0.005 C 
ATOM     23  C   UNL     1       4.889  -6.272  29.994  0.00  0.00    +0.006 C 
ATOM     24  C   UNL     1       4.902  -4.760  30.323  0.00  0.00    +0.005 C 
ATOM     25  C   UNL     1       3.599  -3.964  30.157  0.00  0.00    +0.000 C 
ATOM     26  C   UNL     1       2.282  -4.739  30.170  0.00  0.00    +0.000 C 
ATOM     27  C   UNL     1       2.437  -6.234  30.385  0.00  0.00    +0.004 C 
ATOM     28  C   UNL     1       5.976  -6.799  29.042  0.00  0.00    +0.089 C 
BRANCH  20  29
ATOM     29  C   UNL     1       4.139  -6.733  25.646  0.00  0.00    +0.231 C 
ATOM     30  N   UNL     1       3.142  -5.814  25.366  0.00  0.00    -0.309 N 
ATOM     31  H   UNL     1       2.599  -5.474  26.147  0.00  0.00    +0.149 HD
ATOM     32  O   UNL     1       4.798  -7.244  24.744  0.00  0.00    -0.274 OA
BRANCH  30  33
ATOM     33  C   UNL     1       2.708  -5.467  23.990  0.00  0.00    +0.026 C 
ATOM     34  C   UNL     1       3.828  -4.700  23.265  0.00  0.00    +0.031 C 
ATOM     35  C   UNL     1       1.467  -4.551  24.038  0.00  0.00    +0.031 C 
ATOM     36  C   UNL     1       2.311  -6.716  23.176  0.00  0.00    +0.031 C 
ENDBRANCH  30  33
ENDBRANCH  20  29
ENDBRANCH  18  19
ENDBRANCH  15  18
ENDBRANCH   1  15
BRANCH   1  37
ATOM     37  C   UNL     1       9.066  -3.411  25.351  0.00  0.00    +0.099 C 
BRANCH  37  38
ATOM     38  S   UNL     1       8.285  -3.363  23.698  0.00  0.00    -0.123 S 
BRANCH  38  39
ATOM     39  C   UNL     1       9.065  -1.877  23.148  0.00  0.00    +0.008 A 
ATOM     40  C   UNL     1       8.808  -1.406  21.860  0.00  0.00    +0.015 A 
ATOM     41  C   UNL     1       9.372  -0.207  21.436  0.00  0.00    +0.001 A 
ATOM     42  C   UNL     1      10.193   0.516  22.301  0.00  0.00    +0.000 A 
ATOM     43  C   UNL     1      10.448   0.047  23.588  0.00  0.00    +0.001 A 
ATOM     44  C   UNL     1       9.882  -1.151  24.016  0.00  0.00    +0.015 A 
ENDBRANCH  38  39
ENDBRANCH  37  38
ENDBRANCH   1  37
TORSDOF 12
ENDMDL
MODEL 6
REMARK VINA RESULT:      -6.3      2.347      4.148
REMARK  Name = 
REMARK  16 active torsions:
REMARK  status: ('A' for Active; 'I' for Inactive)
REMARK    1  A    between atoms: C_1  and  C_2
REMARK    2  A    between atoms: C_3  and  C_9
REMARK    3  A    between atoms: C_7  and  O_8
REMARK    4  A    between atoms: N_11  and  C_12
REMARK    5  A    between atoms: C_12  and  C_14
REMARK    6  A    between atoms: C_12  and  C_22
REMARK    7  A    between atoms: C_14  and  S_15
REMARK    8  A    between atoms: S_15  and  C_16
REMARK    9  A    between atoms: C_22  and  C_24
REMARK   10  A    between atoms: C_22  and  O_45
REMARK   11  A    between atoms: C_24  and  N_25
REMARK   12  A    between atoms: C_36  and  C_38
REMARK   13  A    between atoms: N_40  and  C_41
REMARK   14  A    between atoms: C_41  and  C_42
REMARK   15  A    between atoms: C_41  and  C_43
REMARK   16  A    between atoms: C_41  and  C_44
REMARK                            x       y       z     vdW  Elec       q    Type
REMARK                         _______ _______ _______ _____ _____    ______ ____
ROOT
ATOM      1  C   UNL     1       8.215  -0.131  26.298  0.00  0.00    +0.113 C 
ENDROOT
BRANCH   1   3
ATOM      2  C   UNL     1       7.173   2.186  25.749  0.00  0.00    +0.245 C 
ATOM      3  N   UNL     1       7.688   0.942  25.407  0.00  0.00    -0.305 N 
ATOM      4  H   UNL     1       7.854   0.764  24.438  0.00  0.00    +0.149 HD
ATOM      5  O   UNL     1       7.058   2.545  26.916  0.00  0.00    -0.270 OA
BRANCH   2  12
ATOM      6  C   UNL     1       8.921   4.574  24.858  0.00  0.00    +0.048 C 
ATOM      7  C   UNL     1       7.659   4.165  24.143  0.00  0.00    +0.003 A 
ATOM      8  C   UNL     1       7.322   4.869  22.963  0.00  0.00    +0.120 A 
ATOM      9  C   UNL     1       6.121   4.657  22.294  0.00  0.00    +0.046 A 
ATOM     10  C   UNL     1       5.239   3.709  22.784  0.00  0.00    +0.004 A 
ATOM     11  C   UNL     1       5.587   2.938  23.900  0.00  0.00    +0.013 A 
ATOM     12  C   UNL     1       6.802   3.128  24.597  0.00  0.00    +0.043 A 
BRANCH   8  13
ATOM     13  O   UNL     1       8.204   5.791  22.463  0.00  0.00    -0.506 OA
ATOM     14  H   UNL     1       7.725   6.425  21.903  0.00  0.00    +0.292 HD
ENDBRANCH   8  13
ENDBRANCH   2  12
ENDBRANCH   1   3
BRANCH   1  15
ATOM     15  C   UNL     1       7.181  -1.156  26.870  0.00  0.00    +0.149 C 
BRANCH  15  16
ATOM     16  O   UNL     1       5.941  -0.495  27.215  0.00  0.00    -0.389 OA
ATOM     17  H   UNL     1       5.552  -0.988  27.963  0.00  0.00    +0.210 HD
ENDBRANCH  15  16
BRANCH  15  18
ATOM     18  C   UNL     1       6.831  -2.262  25.837  0.00  0.00    +0.118 C 
BRANCH  18  19
ATOM     19  N   UNL     1       5.747  -1.863  24.940  0.00  0.00    -0.289 NA
ATOM     20  C   UNL     1       4.518  -2.688  24.951  0.00  0.00    +0.143 C 
ATOM     21  C   UNL     1       4.689  -3.998  24.164  0.00  0.00    +0.032 C 
ATOM     22  C   UNL     1       5.251  -3.803  22.746  0.00  0.00    -0.005 C 
ATOM     23  C   UNL     1       6.516  -2.952  22.743  0.00  0.00    +0.006 C 
ATOM     24  C   UNL     1       7.819  -3.719  23.070  0.00  0.00    +0.005 C 
ATOM     25  C   UNL     1       7.729  -5.227  23.348  0.00  0.00    +0.000 C 
ATOM     26  C   UNL     1       6.509  -5.980  22.817  0.00  0.00    +0.000 C 
ATOM     27  C   UNL     1       5.535  -5.119  22.034  0.00  0.00    +0.004 C 
ATOM     28  C   UNL     1       6.226  -1.674  23.548  0.00  0.00    +0.089 C 
BRANCH  20  29
ATOM     29  C   UNL     1       3.931  -3.016  26.348  0.00  0.00    +0.231 C 
ATOM     30  N   UNL     1       3.983  -4.324  26.802  0.00  0.00    -0.309 N 
ATOM     31  H   UNL     1       4.283  -5.027  26.142  0.00  0.00    +0.149 HD
ATOM     32  O   UNL     1       3.513  -2.115  27.069  0.00  0.00    -0.274 OA
BRANCH  30  33
ATOM     33  C   UNL     1       3.443  -4.760  28.113  0.00  0.00    +0.026 C 
ATOM     34  C   UNL     1       4.244  -4.109  29.254  0.00  0.00    +0.031 C 
ATOM     35  C   UNL     1       3.574  -6.290  28.260  0.00  0.00    +0.031 C 
ATOM     36  C   UNL     1       1.944  -4.423  28.262  0.00  0.00    +0.031 C 
ENDBRANCH  30  33
ENDBRANCH  20  29
ENDBRANCH  18  19
ENDBRANCH  15  18
ENDBRANCH   1  15
BRANCH   1  37
ATOM     37  C   UNL     1       9.420  -0.863  25.711  0.00  0.00    +0.099 C 
BRANCH  37  38
ATOM     38  S   UNL     1      10.606   0.365  25.054  0.00  0.00    -0.123 S 
BRANCH  38  39
ATOM     39  C   UNL     1      10.018   0.347  23.390  0.00  0.00    +0.008 A 
ATOM     40  C   UNL     1       9.889  -0.871  22.722  0.00  0.00    +0.015 A 
ATOM     41  C   UNL     1       9.373  -0.902  21.431  0.00  0.00    +0.001 A 
ATOM     42  C   UNL     1       8.990   0.287  20.809  0.00  0.00    +0.000 A 
ATOM     43  C   UNL     1       9.118   1.504  21.477  0.00  0.00    +0.001 A 
ATOM     44  C   UNL     1       9.630   1.537  22.771  0.00  0.00    +0.015 A 
ENDBRANCH  38  39
ENDBRANCH  37  38
ENDBRANCH   1  37
TORSDOF 12
ENDMDL
MODEL 7
REMARK VINA RESULT:      -6.2      2.619      4.877
REMARK  Name = 
REMARK  16 active torsions:
REMARK  status: ('A' for Active; 'I' for Inactive)
REMARK    1  A    between atoms: C_1  and  C_2
REMARK    2  A    between atoms: C_3  and  C_9
REMARK    3  A    between atoms: C_7  and  O_8
REMARK    4  A    between atoms: N_11  and  C_12
REMARK    5  A    between atoms: C_12  and  C_14
REMARK    6  A    between atoms: C_12  and  C_22
REMARK    7  A    between atoms: C_14  and  S_15
REMARK    8  A    between atoms: S_15  and  C_16
REMARK    9  A    between atoms: C_22  and  C_24
REMARK   10  A    between atoms: C_22  and  O_45
REMARK   11  A    between atoms: C_24  and  N_25
REMARK   12  A    between atoms: C_36  and  C_38
REMARK   13  A    between atoms: N_40  and  C_41
REMARK   14  A    between atoms: C_41  and  C_42
REMARK   15  A    between atoms: C_41  and  C_43
REMARK   16  A    between atoms: C_41  and  C_44
REMARK                            x       y       z     vdW  Elec       q    Type
REMARK                         _______ _______ _______ _____ _____    ______ ____
ROOT
ATOM      1  C   UNL     1       7.719  -3.449  26.300  0.00  0.00    +0.113 C 
ENDROOT
BRANCH   1   3
ATOM      2  C   UNL     1       7.375  -0.920  26.789  0.00  0.00    +0.245 C 
ATOM      3  N   UNL     1       6.944  -2.179  26.393  0.00  0.00    -0.305 N 
ATOM      4  H   UNL     1       6.030  -2.248  25.994  0.00  0.00    +0.149 HD
ATOM      5  O   UNL     1       8.524  -0.714  27.166  0.00  0.00    -0.270 OA
BRANCH   2  12
ATOM      6  C   UNL     1       6.491   0.338  24.108  0.00  0.00    +0.048 C 
ATOM      7  C   UNL     1       5.903   0.735  25.437  0.00  0.00    +0.003 A 
ATOM      8  C   UNL     1       4.841   1.669  25.427  0.00  0.00    +0.120 A 
ATOM      9  C   UNL     1       4.309   2.197  26.599  0.00  0.00    +0.046 A 
ATOM     10  C   UNL     1       4.818   1.774  27.816  0.00  0.00    +0.004 A 
ATOM     11  C   UNL     1       5.810   0.786  27.855  0.00  0.00    +0.013 A 
ATOM     12  C   UNL     1       6.366   0.230  26.681  0.00  0.00    +0.043 A 
BRANCH   8  13
ATOM     13  O   UNL     1       4.319   2.071  24.225  0.00  0.00    -0.506 OA
ATOM     14  H   UNL     1       3.547   1.524  24.008  0.00  0.00    +0.292 HD
ENDBRANCH   8  13
ENDBRANCH   2  12
ENDBRANCH   1   3
BRANCH   1  15
ATOM     15  C   UNL     1       6.925  -4.745  25.931  0.00  0.00    +0.149 C 
BRANCH  15  16
ATOM     16  O   UNL     1       7.295  -5.839  26.803  0.00  0.00    -0.389 OA
ATOM     17  H   UNL     1       7.030  -6.666  26.355  0.00  0.00    +0.210 HD
ENDBRANCH  15  16
BRANCH  15  18
ATOM     18  C   UNL     1       5.392  -4.548  26.081  0.00  0.00    +0.118 C 
BRANCH  18  19
ATOM     19  N   UNL     1       4.812  -3.823  24.951  0.00  0.00    -0.289 NA
ATOM     20  C   UNL     1       3.430  -3.315  25.108  0.00  0.00    +0.143 C 
ATOM     21  C   UNL     1       2.379  -4.425  24.938  0.00  0.00    +0.032 C 
ATOM     22  C   UNL     1       2.554  -5.258  23.658  0.00  0.00    -0.005 C 
ATOM     23  C   UNL     1       3.980  -5.777  23.503  0.00  0.00    +0.006 C 
ATOM     24  C   UNL     1       4.293  -7.069  24.295  0.00  0.00    +0.005 C 
ATOM     25  C   UNL     1       3.172  -7.704  25.131  0.00  0.00    +0.000 C 
ATOM     26  C   UNL     1       1.728  -7.358  24.770  0.00  0.00    +0.000 C 
ATOM     27  C   UNL     1       1.586  -6.431  23.576  0.00  0.00    +0.004 C 
ATOM     28  C   UNL     1       4.937  -4.586  23.684  0.00  0.00    +0.089 C 
BRANCH  20  29
ATOM     29  C   UNL     1       3.134  -2.541  26.418  0.00  0.00    +0.231 C 
ATOM     30  N   UNL     1       2.722  -3.252  27.533  0.00  0.00    -0.309 N 
ATOM     31  H   UNL     1       2.505  -4.229  27.400  0.00  0.00    +0.149 HD
ATOM     32  O   UNL     1       3.351  -1.334  26.484  0.00  0.00    -0.274 OA
BRANCH  30  33
ATOM     33  C   UNL     1       2.398  -2.620  28.836  0.00  0.00    +0.026 C 
ATOM     34  C   UNL     1       3.655  -1.959  29.426  0.00  0.00    +0.031 C 
ATOM     35  C   UNL     1       1.914  -3.689  29.839  0.00  0.00    +0.031 C 
ATOM     36  C   UNL     1       1.264  -1.581  28.708  0.00  0.00    +0.031 C 
ENDBRANCH  30  33
ENDBRANCH  20  29
ENDBRANCH  18  19
ENDBRANCH  15  18
ENDBRANCH   1  15
BRANCH   1  37
ATOM     37  C   UNL     1       8.972  -3.329  25.436  0.00  0.00    +0.099 C 
BRANCH  37  38
ATOM     38  S   UNL     1       8.503  -3.480  23.674  0.00  0.00    -0.123 S 
BRANCH  38  39
ATOM     39  C   UNL     1       9.115  -1.904  23.164  0.00  0.00    +0.008 A 
ATOM     40  C   UNL     1       9.894  -1.155  24.046  0.00  0.00    +0.015 A 
ATOM     41  C   UNL     1      10.429   0.062  23.635  0.00  0.00    +0.001 A 
ATOM     42  C   UNL     1      10.180   0.527  22.343  0.00  0.00    +0.000 A 
ATOM     43  C   UNL     1       9.403  -0.223  21.461  0.00  0.00    +0.001 A 
ATOM     44  C   UNL     1       8.870  -1.443  21.869  0.00  0.00    +0.015 A 
ENDBRANCH  38  39
ENDBRANCH  37  38
ENDBRANCH   1  37
TORSDOF 12
ENDMDL
MODEL 8
REMARK VINA RESULT:      -6.2      2.908      7.888
REMARK  Name = 
REMARK  16 active torsions:
REMARK  status: ('A' for Active; 'I' for Inactive)
REMARK    1  A    between atoms: C_1  and  C_2
REMARK    2  A    between atoms: C_3  and  C_9
REMARK    3  A    between atoms: C_7  and  O_8
REMARK    4  A    between atoms: N_11  and  C_12
REMARK    5  A    between atoms: C_12  and  C_14
REMARK    6  A    between atoms: C_12  and  C_22
REMARK    7  A    between atoms: C_14  and  S_15
REMARK    8  A    between atoms: S_15  and  C_16
REMARK    9  A    between atoms: C_22  and  C_24
REMARK   10  A    between atoms: C_22  and  O_45
REMARK   11  A    between atoms: C_24  and  N_25
REMARK   12  A    between atoms: C_36  and  C_38
REMARK   13  A    between atoms: N_40  and  C_41
REMARK   14  A    between atoms: C_41  and  C_42
REMARK   15  A    between atoms: C_41  and  C_43
REMARK   16  A    between atoms: C_41  and  C_44
REMARK                            x       y       z     vdW  Elec       q    Type
REMARK                         _______ _______ _______ _____ _____    ______ ____
ROOT
ATOM      1  C   UNL     1       7.663  -1.496  25.674  0.00  0.00    +0.113 C 
ENDROOT
BRANCH   1   3
ATOM      2  C   UNL     1       5.784  -2.639  24.289  0.00  0.00    +0.245 C 
ATOM      3  N   UNL     1       6.579  -2.486  25.417  0.00  0.00    -0.305 N 
ATOM      4  H   UNL     1       6.523  -3.197  26.118  0.00  0.00    +0.149 HD
ATOM      5  O   UNL     1       5.878  -1.892  23.320  0.00  0.00    -0.270 OA
BRANCH   2  12
ATOM      6  C   UNL     1       6.507  -5.431  23.180  0.00  0.00    +0.048 C 
ATOM      7  C   UNL     1       5.190  -5.125  23.844  0.00  0.00    +0.003 A 
ATOM      8  C   UNL     1       4.289  -6.200  24.032  0.00  0.00    +0.120 A 
ATOM      9  C   UNL     1       3.001  -6.008  24.520  0.00  0.00    +0.046 A 
ATOM     10  C   UNL     1       2.596  -4.728  24.857  0.00  0.00    +0.004 A 
ATOM     11  C   UNL     1       3.496  -3.660  24.762  0.00  0.00    +0.013 A 
ATOM     12  C   UNL     1       4.813  -3.826  24.274  0.00  0.00    +0.043 A 
BRANCH   8  13
ATOM     13  O   UNL     1       4.696  -7.472  23.721  0.00  0.00    -0.506 OA
ATOM     14  H   UNL     1       4.337  -8.095  24.374  0.00  0.00    +0.292 HD
ENDBRANCH   8  13
ENDBRANCH   2  12
ENDBRANCH   1   3
BRANCH   1  15
ATOM     15  C   UNL     1       7.557  -0.642  26.979  0.00  0.00    +0.149 C 
BRANCH  15  16
ATOM     16  O   UNL     1       8.871  -0.286  27.467  0.00  0.00    -0.389 OA
ATOM     17  H   UNL     1       9.116   0.559  27.043  0.00  0.00    +0.210 HD
ENDBRANCH  15  16
BRANCH  15  18
ATOM     18  C   UNL     1       6.789   0.687  26.740  0.00  0.00    +0.118 C 
BRANCH  18  19
ATOM     19  N   UNL     1       5.566   0.491  25.964  0.00  0.00    -0.289 NA
ATOM     20  C   UNL     1       5.053   1.652  25.200  0.00  0.00    +0.143 C 
ATOM     21  C   UNL     1       4.322   2.662  26.099  0.00  0.00    +0.032 C 
ATOM     22  C   UNL     1       3.246   2.032  26.998  0.00  0.00    -0.005 C 
ATOM     23  C   UNL     1       3.781   0.837  27.780  0.00  0.00    +0.006 C 
ATOM     24  C   UNL     1       4.545   1.196  29.077  0.00  0.00    +0.005 C 
ATOM     25  C   UNL     1       4.682   2.678  29.458  0.00  0.00    +0.000 C 
ATOM     26  C   UNL     1       3.678   3.665  28.862  0.00  0.00    +0.000 C 
ATOM     27  C   UNL     1       2.628   3.028  27.971  0.00  0.00    +0.004 C 
ATOM     28  C   UNL     1       4.481  -0.103  26.784  0.00  0.00    +0.089 C 
BRANCH  20  29
ATOM     29  C   UNL     1       6.093   2.410  24.335  0.00  0.00    +0.231 C 
ATOM     30  N   UNL     1       6.200   3.784  24.475  0.00  0.00    -0.309 N 
ATOM     31  H   UNL     1       5.500   4.243  25.040  0.00  0.00    +0.149 HD
ATOM     32  O   UNL     1       6.864   1.788  23.610  0.00  0.00    -0.274 OA
BRANCH  30  33
ATOM     33  C   UNL     1       7.147   4.617  23.693  0.00  0.00    +0.026 C 
ATOM     34  C   UNL     1       8.536   4.592  24.353  0.00  0.00    +0.031 C 
ATOM     35  C   UNL     1       6.666   6.083  23.665  0.00  0.00    +0.031 C 
ATOM     36  C   UNL     1       7.250   4.152  22.225  0.00  0.00    +0.031 C 
ENDBRANCH  30  33
ENDBRANCH  20  29
ENDBRANCH  18  19
ENDBRANCH  15  18
ENDBRANCH   1  15
BRANCH   1  37
ATOM     37  C   UNL     1       9.064  -2.089  25.539  0.00  0.00    +0.099 C 
BRANCH  37  38
ATOM     38  S   UNL     1       9.428  -2.373  23.769  0.00  0.00    -0.123 S 
BRANCH  38  39
ATOM     39  C   UNL     1       9.827  -0.699  23.372  0.00  0.00    +0.008 A 
ATOM     40  C   UNL     1       9.511  -0.202  22.108  0.00  0.00    +0.015 A 
ATOM     41  C   UNL     1       9.770   1.131  21.803  0.00  0.00    +0.001 A 
ATOM     42  C   UNL     1      10.347   1.961  22.765  0.00  0.00    +0.000 A 
ATOM     43  C   UNL     1      10.661   1.465  24.029  0.00  0.00    +0.001 A 
ATOM     44  C   UNL     1      10.400   0.132  24.337  0.00  0.00    +0.015 A 
ENDBRANCH  38  39
ENDBRANCH  37  38
ENDBRANCH   1  37
TORSDOF 12
ENDMDL
MODEL 9
REMARK VINA RESULT:      -6.1      2.481      7.937
REMARK  Name = 
REMARK  16 active torsions:
REMARK  status: ('A' for Active; 'I' for Inactive)
REMARK    1  A    between atoms: C_1  and  C_2
REMARK    2  A    between atoms: C_3  and  C_9
REMARK    3  A    between atoms: C_7  and  O_8
REMARK    4  A    between atoms: N_11  and  C_12
REMARK    5  A    between atoms: C_12  and  C_14
REMARK    6  A    between atoms: C_12  and  C_22
REMARK    7  A    between atoms: C_14  and  S_15
REMARK    8  A    between atoms: S_15  and  C_16
REMARK    9  A    between atoms: C_22  and  C_24
REMARK   10  A    between atoms: C_22  and  O_45
REMARK   11  A    between atoms: C_24  and  N_25
REMARK   12  A    between atoms: C_36  and  C_38
REMARK   13  A    between atoms: N_40  and  C_41
REMARK   14  A    between atoms: C_41  and  C_42
REMARK   15  A    between atoms: C_41  and  C_43
REMARK   16  A    between atoms: C_41  and  C_44
REMARK                            x       y       z     vdW  Elec       q    Type
REMARK                         _______ _______ _______ _____ _____    ______ ____
ROOT
ATOM      1  C   UNL     1       7.814  -1.639  25.811  0.00  0.00    +0.113 C 
ENDROOT
BRANCH   1   3
ATOM      2  C   UNL     1       7.022  -4.054  26.356  0.00  0.00    +0.245 C 
ATOM      3  N   UNL     1       6.915  -2.825  25.718  0.00  0.00    -0.305 N 
ATOM      4  H   UNL     1       6.069  -2.637  25.220  0.00  0.00    +0.149 HD
ATOM      5  O   UNL     1       7.963  -4.324  27.096  0.00  0.00    -0.270 OA
BRANCH   2  12
ATOM      6  C   UNL     1       6.372  -5.363  23.633  0.00  0.00    +0.048 C 
ATOM      7  C   UNL     1       5.650  -5.712  24.908  0.00  0.00    +0.003 A 
ATOM      8  C   UNL     1       4.688  -6.749  24.849  0.00  0.00    +0.120 A 
ATOM      9  C   UNL     1       3.878  -7.068  25.933  0.00  0.00    +0.046 A 
ATOM     10  C   UNL     1       4.035  -6.366  27.117  0.00  0.00    +0.004 A 
ATOM     11  C   UNL     1       5.037  -5.395  27.228  0.00  0.00    +0.013 A 
ATOM     12  C   UNL     1       5.878  -5.053  26.144  0.00  0.00    +0.043 A 
BRANCH   8  13
ATOM     13  O   UNL     1       4.548  -7.462  23.686  0.00  0.00    -0.506 OA
ATOM     14  H   UNL     1       4.535  -8.412  23.888  0.00  0.00    +0.292 HD
ENDBRANCH   8  13
ENDBRANCH   2  12
ENDBRANCH   1   3
BRANCH   1  15
ATOM     15  C   UNL     1       7.776  -0.815  27.140  0.00  0.00    +0.149 C 
BRANCH  15  16
ATOM     16  O   UNL     1       9.105  -0.383  27.513  0.00  0.00    -0.389 OA
ATOM     17  H   UNL     1       9.669  -0.473  26.721  0.00  0.00    +0.210 HD
ENDBRANCH  15  16
BRANCH  15  18
ATOM     18  C   UNL     1       6.907   0.465  27.002  0.00  0.00    +0.118 C 
BRANCH  18  19
ATOM     19  N   UNL     1       5.706   0.238  26.200  0.00  0.00    -0.289 NA
ATOM     20  C   UNL     1       5.151   1.398  25.464  0.00  0.00    +0.143 C 
ATOM     21  C   UNL     1       4.361   2.345  26.382  0.00  0.00    +0.032 C 
ATOM     22  C   UNL     1       3.302   1.638  27.244  0.00  0.00    -0.005 C 
ATOM     23  C   UNL     1       3.881   0.445  27.997  0.00  0.00    +0.006 C 
ATOM     24  C   UNL     1       4.608   0.797  29.317  0.00  0.00    +0.005 C 
ATOM     25  C   UNL     1       4.670   2.270  29.746  0.00  0.00    +0.000 C 
ATOM     26  C   UNL     1       3.631   3.229  29.165  0.00  0.00    +0.000 C 
ATOM     27  C   UNL     1       2.625   2.573  28.237  0.00  0.00    +0.004 C 
ATOM     28  C   UNL     1       4.637  -0.431  26.984  0.00  0.00    +0.089 C 
BRANCH  20  29
ATOM     29  C   UNL     1       6.168   2.230  24.640  0.00  0.00    +0.231 C 
ATOM     30  N   UNL     1       6.084   3.612  24.680  0.00  0.00    -0.309 N 
ATOM     31  H   UNL     1       5.278   4.009  25.141  0.00  0.00    +0.149 HD
ATOM     32  O   UNL     1       7.081   1.670  24.040  0.00  0.00    -0.274 OA
BRANCH  30  33
ATOM     33  C   UNL     1       6.991   4.511  23.924  0.00  0.00    +0.026 C 
ATOM     34  C   UNL     1       8.371   4.555  24.602  0.00  0.00    +0.031 C 
ATOM     35  C   UNL     1       6.427   5.947  23.913  0.00  0.00    +0.031 C 
ATOM     36  C   UNL     1       7.139   4.077  22.451  0.00  0.00    +0.031 C 
ENDBRANCH  30  33
ENDBRANCH  20  29
ENDBRANCH  18  19
ENDBRANCH  15  18
ENDBRANCH   1  15
BRANCH   1  37
ATOM     37  C   UNL     1       9.258  -1.946  25.417  0.00  0.00    +0.099 C 
BRANCH  37  38
ATOM     38  S   UNL     1       9.361  -2.115  23.599  0.00  0.00    -0.123 S 
BRANCH  38  39
ATOM     39  C   UNL     1       9.811  -0.441  23.264  0.00  0.00    +0.008 A 
ATOM     40  C   UNL     1       9.515   0.111  22.017  0.00  0.00    +0.015 A 
ATOM     41  C   UNL     1       9.815   1.445  21.761  0.00  0.00    +0.001 A 
ATOM     42  C   UNL     1      10.412   2.223  22.754  0.00  0.00    +0.000 A 
ATOM     43  C   UNL     1      10.706   1.673  24.000  0.00  0.00    +0.001 A 
ATOM     44  C   UNL     1      10.404   0.338  24.259  0.00  0.00    +0.015 A 
ENDBRANCH  38  39
ENDBRANCH  37  38
ENDBRANCH   1  37
TORSDOF 12
ENDMDL
