MODEL 1
REMARK VINA RESULT:      -7.1      0.000      0.000
REMARK  Name = 
REMARK  16 active torsions:
REMARK  status: ('A' for Active; 'I' for Inactive)
REMARK    1  A    between atoms: C_1  and  C_2
REMARK    2  A    between atoms: C_2  and  C_3
REMARK    3  A    between atoms: C_2  and  C_4
REMARK    4  A    between atoms: C_4  and  N_5
REMARK    5  A    between atoms: N_5  and  C_6
REMARK    6  A    between atoms: C_9  and  S_12
REMARK    7  A    between atoms: S_12  and  N_15
REMARK    8  A    between atoms: N_15  and  C_16
REMARK    9  A    between atoms: C_16  and  C_17
REMARK   10  A    between atoms: C_17  and  C_19
REMARK   11  A    between atoms: C_17  and  O_38
REMARK   12  A    between atoms: C_19  and  C_21
REMARK   13  A    between atoms: C_19  and  N_28
REMARK   14  A    between atoms: C_21  and  C_22
REMARK   15  A    between atoms: C_29  and  O_31
REMARK   16  A    between atoms: O_31  and  C_32
REMARK                            x       y       z     vdW  Elec       q    Type
REMARK                         _______ _______ _______ _____ _____    ______ ____
ROOT
ATOM      1  C   UNL     1       7.989  -0.788  25.127  0.00  0.00    +0.150 C 
ENDROOT
BRANCH   1   2
ATOM      2  O   UNL     1       8.200  -0.209  26.430  0.00  0.00    -0.389 OA
ATOM      3  H   UNL     1       7.434   0.352  26.647  0.00  0.00    +0.210 HD
ENDBRANCH   1   2
BRANCH   1   4
ATOM      4  C   UNL     1       6.473  -0.975  24.884  0.00  0.00    +0.139 C 
BRANCH   4   5
ATOM      5  N   UNL     1       5.917   0.168  24.144  0.00  0.00    -0.187 NA
ATOM      6  H   UNL     1       6.158   0.325  23.167  0.00  0.00    +0.148 HD
BRANCH   5   7
ATOM      7  S   UNL     1       5.469   1.543  24.999  0.00  0.00    +0.058 S 
ATOM      8  O   UNL     1       4.158   1.905  24.515  0.00  0.00    -0.153 OA
ATOM      9  O   UNL     1       5.739   1.296  26.397  0.00  0.00    -0.153 OA
BRANCH   7  13
ATOM     10  C   UNL     1       8.445   4.672  23.438  0.00  0.00    +0.027 A 
ATOM     11  C   UNL     1       8.544   4.168  24.746  0.00  0.00    +0.025 A 
ATOM     12  C   UNL     1       7.630   3.234  25.244  0.00  0.00    +0.030 A 
ATOM     13  C   UNL     1       6.618   2.762  24.411  0.00  0.00    +0.105 A 
ATOM     14  C   UNL     1       6.514   3.220  23.098  0.00  0.00    +0.030 A 
ATOM     15  C   UNL     1       7.437   4.155  22.614  0.00  0.00    +0.025 A 
BRANCH  10  16
ATOM     16  N   UNL     1       9.431   5.557  22.987  0.00  0.00    -0.344 N 
ATOM     17  H   UNL     1      10.056   5.109  22.321  0.00  0.00    +0.146 HD
BRANCH  16  18
ATOM     18  C   UNL     1      10.160   6.374  23.958  0.00  0.00    +0.104 C 
BRANCH  18  20
ATOM     19  C   UNL     1      12.257   5.374  22.927  0.00  0.00    +0.009 C 
ATOM     20  C   UNL     1      11.547   5.758  24.228  0.00  0.00    -0.000 C 
ATOM     21  C   UNL     1      12.417   6.733  25.024  0.00  0.00    +0.009 C 
ENDBRANCH  18  20
ENDBRANCH  16  18
ENDBRANCH  10  16
ENDBRANCH   7  13
ENDBRANCH   5   7
ENDBRANCH   4   5
ENDBRANCH   1   4
BRANCH   1  22
ATOM     22  C   UNL     1       8.792  -2.125  25.022  0.00  0.00    +0.110 C 
BRANCH  22  23
ATOM     23  N   UNL     1       7.950  -3.250  24.608  0.00  0.00    -0.275 N 
ATOM     24  H   UNL     1       7.330  -3.176  23.813  0.00  0.00    +0.152 HD
ATOM     25  C   UNL     1       7.927  -4.422  25.303  0.00  0.00    +0.401 C 
ATOM     26  O   UNL     1       8.616  -4.653  26.285  0.00  0.00    -0.226 OA
BRANCH  25  27
ATOM     27  O   UNL     1       6.984  -5.249  24.798  0.00  0.00    -0.445 OA
BRANCH  27  28
ATOM     28  C   UNL     1       6.590  -4.938  23.458  0.00  0.00    +0.206 C 
ATOM     29  C   UNL     1       5.113  -5.230  23.243  0.00  0.00    +0.204 C 
ATOM     30  O   UNL     1       4.943  -5.593  21.863  0.00  0.00    -0.376 OA
ATOM     31  C   UNL     1       6.242  -5.724  21.272  0.00  0.00    +0.163 C 
ATOM     32  C   UNL     1       7.226  -5.833  22.413  0.00  0.00    +0.075 C 
ENDBRANCH  27  28
ENDBRANCH  25  27
ENDBRANCH  22  23
BRANCH  22  33
ATOM     33  C   UNL     1      10.019  -1.981  24.082  0.00  0.00    +0.060 C 
BRANCH  33  34
ATOM     34  C   UNL     1      10.070  -0.643  23.363  0.00  0.00    -0.046 A 
ATOM     35  C   UNL     1       9.469  -0.484  22.105  0.00  0.00    +0.004 A 
ATOM     36  C   UNL     1       9.442   0.764  21.481  0.00  0.00    +0.000 A 
ATOM     37  C   UNL     1      10.036   1.864  22.093  0.00  0.00    +0.000 A 
ATOM     38  C   UNL     1      10.682   1.711  23.318  0.00  0.00    +0.000 A 
ATOM     39  C   UNL     1      10.704   0.463  23.948  0.00  0.00    +0.004 A 
ENDBRANCH  33  34
ENDBRANCH  22  33
ENDBRANCH   1  22
TORSDOF 14
ENDMDL
MODEL 2
REMARK VINA RESULT:      -7.0      2.860      5.875
REMARK  Name = 
REMARK  16 active torsions:
REMARK  status: ('A' for Active; 'I' for Inactive)
REMARK    1  A    between atoms: C_1  and  C_2
REMARK    2  A    between atoms: C_2  and  C_3
REMARK    3  A    between atoms: C_2  and  C_4
REMARK    4  A    between atoms: C_4  and  N_5
REMARK    5  A    between atoms: N_5  and  C_6
REMARK    6  A    between atoms: C_9  and  S_12
REMARK    7  A    between atoms: S_12  and  N_15
REMARK    8  A    between atoms: N_15  and  C_16
REMARK    9  A    between atoms: C_16  and  C_17
REMARK   10  A    between atoms: C_17  and  C_19
REMARK   11  A    between atoms: C_17  and  O_38
REMARK   12  A    between atoms: C_19  and  C_21
REMARK   13  A    between atoms: C_19  and  N_28
REMARK   14  A    between atoms: C_21  and  C_22
REMARK   15  A    between atoms: C_29  and  O_31
REMARK   16  A    between atoms: O_31  and  C_32
REMARK                            x       y       z     vdW  Elec       q    Type
REMARK                         _______ _______ _______ _____ _____    ______ ____
ROOT
ATOM      1  C   UNL     1       5.872  -2.972  24.149  0.00  0.00    +0.150 C 
ENDROOT
BRANCH   1   2
ATOM      2  O   UNL     1       5.552  -2.894  22.746  0.00  0.00    -0.389 OA
ATOM      3  H   UNL     1       6.378  -2.971  22.235  0.00  0.00    +0.210 HD
ENDBRANCH   1   2
BRANCH   1   4
ATOM      4  C   UNL     1       6.812  -1.805  24.530  0.00  0.00    +0.139 C 
BRANCH   4   5
ATOM      5  N   UNL     1       8.203  -2.269  24.645  0.00  0.00    -0.187 NA
ATOM      6  H   UNL     1       8.685  -2.257  25.541  0.00  0.00    +0.148 HD
BRANCH   5   7
ATOM      7  S   UNL     1       9.201  -2.171  23.297  0.00  0.00    +0.058 S 
ATOM      8  O   UNL     1      10.423  -2.853  23.654  0.00  0.00    -0.153 OA
ATOM      9  O   UNL     1       8.415  -2.543  22.142  0.00  0.00    -0.153 OA
BRANCH   7  13
ATOM     10  C   UNL     1      10.150   2.311  22.999  0.00  0.00    +0.027 A 
ATOM     11  C   UNL     1      10.325   1.613  24.205  0.00  0.00    +0.025 A 
ATOM     12  C   UNL     1      10.016   0.254  24.319  0.00  0.00    +0.030 A 
ATOM     13  C   UNL     1       9.559  -0.435  23.198  0.00  0.00    +0.105 A 
ATOM     14  C   UNL     1       9.405   0.224  21.978  0.00  0.00    +0.030 A 
ATOM     15  C   UNL     1       9.719   1.585  21.881  0.00  0.00    +0.025 A 
BRANCH  10  16
ATOM     16  N   UNL     1      10.539   3.654  22.942  0.00  0.00    -0.344 N 
ATOM     17  H   UNL     1      10.321   4.067  22.038  0.00  0.00    +0.146 HD
BRANCH  16  18
ATOM     18  C   UNL     1      11.871   4.037  23.412  0.00  0.00    +0.104 C 
BRANCH  18  20
ATOM     19  C   UNL     1      12.280   6.338  24.411  0.00  0.00    +0.009 C 
ATOM     20  C   UNL     1      12.123   5.529  23.120  0.00  0.00    -0.000 C 
ATOM     21  C   UNL     1      13.369   5.699  22.249  0.00  0.00    +0.009 C 
ENDBRANCH  18  20
ENDBRANCH  16  18
ENDBRANCH  10  16
ENDBRANCH   7  13
ENDBRANCH   5   7
ENDBRANCH   4   5
ENDBRANCH   1   4
BRANCH   1  22
ATOM     22  C   UNL     1       6.486  -4.375  24.460  0.00  0.00    +0.110 C 
BRANCH  22  23
ATOM     23  N   UNL     1       6.297  -4.770  25.858  0.00  0.00    -0.275 N 
ATOM     24  H   UNL     1       5.372  -4.857  26.257  0.00  0.00    +0.152 HD
ATOM     25  C   UNL     1       7.353  -4.985  26.691  0.00  0.00    +0.401 C 
ATOM     26  O   UNL     1       8.524  -4.912  26.351  0.00  0.00    -0.226 OA
BRANCH  25  27
ATOM     27  O   UNL     1       6.918  -5.212  27.952  0.00  0.00    -0.445 OA
BRANCH  27  28
ATOM     28  C   UNL     1       5.522  -5.510  28.044  0.00  0.00    +0.206 C 
ATOM     29  C   UNL     1       4.868  -4.713  29.163  0.00  0.00    +0.204 C 
ATOM     30  O   UNL     1       3.778  -5.500  29.671  0.00  0.00    -0.376 OA
ATOM     31  C   UNL     1       3.843  -6.797  29.065  0.00  0.00    +0.163 C 
ATOM     32  C   UNL     1       5.229  -6.932  28.480  0.00  0.00    +0.075 C 
ENDBRANCH  27  28
ENDBRANCH  25  27
ENDBRANCH  22  23
BRANCH  22  33
ATOM     33  C   UNL     1       5.935  -5.464  23.501  0.00  0.00    +0.060 C 
BRANCH  33  34
ATOM     34  C   UNL     1       4.571  -5.993  23.914  0.00  0.00    -0.046 A 
ATOM     35  C   UNL     1       4.462  -7.047  24.834  0.00  0.00    +0.004 A 
ATOM     36  C   UNL     1       3.211  -7.478  25.278  0.00  0.00    +0.000 A 
ATOM     37  C   UNL     1       2.052  -6.880  24.791  0.00  0.00    +0.000 A 
ATOM     38  C   UNL     1       2.144  -5.868  23.838  0.00  0.00    +0.000 A 
ATOM     39  C   UNL     1       3.396  -5.429  23.397  0.00  0.00    +0.004 A 
ENDBRANCH  33  34
ENDBRANCH  22  33
ENDBRANCH   1  22
TORSDOF 14
ENDMDL
MODEL 3
REMARK VINA RESULT:      -6.8      2.315      5.616
REMARK  Name = 
REMARK  16 active torsions:
REMARK  status: ('A' for Active; 'I' for Inactive)
REMARK    1  A    between atoms: C_1  and  C_2
REMARK    2  A    between atoms: C_2  and  C_3
REMARK    3  A    between atoms: C_2  and  C_4
REMARK    4  A    between atoms: C_4  and  N_5
REMARK    5  A    between atoms: N_5  and  C_6
REMARK    6  A    between atoms: C_9  and  S_12
REMARK    7  A    between atoms: S_12  and  N_15
REMARK    8  A    between atoms: N_15  and  C_16
REMARK    9  A    between atoms: C_16  and  C_17
REMARK   10  A    between atoms: C_17  and  C_19
REMARK   11  A    between atoms: C_17  and  O_38
REMARK   12  A    between atoms: C_19  and  C_21
REMARK   13  A    between atoms: C_19  and  N_28
REMARK   14  A    between atoms: C_21  and  C_22
REMARK   15  A    between atoms: C_29  and  O_31
REMARK   16  A    between atoms: O_31  and  C_32
REMARK                            x       y       z     vdW  Elec       q    Type
REMARK                         _______ _______ _______ _____ _____    ______ ____
ROOT
ATOM      1  C   UNL     1       8.867  -4.930  24.709  0.00  0.00    +0.150 C 
ENDROOT
BRANCH   1   2
ATOM      2  O   UNL     1       9.608  -5.780  25.606  0.00  0.00    -0.389 OA
ATOM      3  H   UNL     1       9.466  -5.467  26.518  0.00  0.00    +0.210 HD
ENDBRANCH   1   2
BRANCH   1   4
ATOM      4  C   UNL     1       9.280  -3.456  24.934  0.00  0.00    +0.139 C 
BRANCH   4   5
ATOM      5  N   UNL     1       9.703  -2.832  23.671  0.00  0.00    -0.187 NA
ATOM      6  H   UNL     1      10.679  -2.595  23.506  0.00  0.00    +0.148 HD
BRANCH   5   7
ATOM      7  S   UNL     1       8.591  -1.908  22.816  0.00  0.00    +0.058 S 
ATOM      8  O   UNL     1       8.726  -2.299  21.432  0.00  0.00    -0.153 OA
ATOM      9  O   UNL     1       7.331  -1.975  23.521  0.00  0.00    -0.153 OA
BRANCH   7  13
ATOM     10  C   UNL     1      10.294   2.339  23.196  0.00  0.00    +0.027 A 
ATOM     11  C   UNL     1      10.185   1.500  24.318  0.00  0.00    +0.025 A 
ATOM     12  C   UNL     1       9.646   0.213  24.223  0.00  0.00    +0.030 A 
ATOM     13  C   UNL     1       9.239  -0.263  22.979  0.00  0.00    +0.105 A 
ATOM     14  C   UNL     1       9.363   0.536  21.842  0.00  0.00    +0.030 A 
ATOM     15  C   UNL     1       9.905   1.822  21.954  0.00  0.00    +0.025 A 
BRANCH  10  16
ATOM     16  N   UNL     1      10.901   3.590  23.355  0.00  0.00    -0.344 N 
ATOM     17  H   UNL     1      11.769   3.518  23.880  0.00  0.00    +0.146 HD
BRANCH  16  18
ATOM     18  C   UNL     1      10.092   4.731  23.786  0.00  0.00    +0.104 C 
BRANCH  18  20
ATOM     19  C   UNL     1      10.770   6.728  25.206  0.00  0.00    +0.009 C 
ATOM     20  C   UNL     1      10.972   5.994  23.877  0.00  0.00    -0.000 C 
ATOM     21  C   UNL     1      12.447   5.629  23.707  0.00  0.00    +0.009 C 
ENDBRANCH  18  20
ENDBRANCH  16  18
ENDBRANCH  10  16
ENDBRANCH   7  13
ENDBRANCH   5   7
ENDBRANCH   4   5
ENDBRANCH   1   4
BRANCH   1  22
ATOM     22  C   UNL     1       7.337  -5.170  24.917  0.00  0.00    +0.110 C 
BRANCH  22  23
ATOM     23  N   UNL     1       6.701  -4.097  25.683  0.00  0.00    -0.275 N 
ATOM     24  H   UNL     1       6.287  -3.298  25.221  0.00  0.00    +0.152 HD
ATOM     25  C   UNL     1       6.685  -4.100  27.046  0.00  0.00    +0.401 C 
ATOM     26  O   UNL     1       7.151  -4.994  27.737  0.00  0.00    -0.226 OA
BRANCH  25  27
ATOM     27  O   UNL     1       6.156  -2.947  27.513  0.00  0.00    -0.445 OA
BRANCH  27  28
ATOM     28  C   UNL     1       6.130  -1.885  26.553  0.00  0.00    +0.206 C 
ATOM     29  C   UNL     1       7.137  -0.803  26.911  0.00  0.00    +0.204 C 
ATOM     30  O   UNL     1       6.616   0.446  26.428  0.00  0.00    -0.376 OA
ATOM     31  C   UNL     1       5.276   0.224  25.969  0.00  0.00    +0.163 C 
ATOM     32  C   UNL     1       4.834  -1.098  26.551  0.00  0.00    +0.075 C 
ENDBRANCH  27  28
ENDBRANCH  25  27
ENDBRANCH  22  23
BRANCH  22  33
ATOM     33  C   UNL     1       6.606  -5.389  23.565  0.00  0.00    +0.060 C 
BRANCH  33  34
ATOM     34  C   UNL     1       5.131  -5.716  23.727  0.00  0.00    -0.046 A 
ATOM     35  C   UNL     1       4.148  -4.853  23.217  0.00  0.00    +0.004 A 
ATOM     36  C   UNL     1       2.795  -5.192  23.290  0.00  0.00    +0.000 A 
ATOM     37  C   UNL     1       2.405  -6.384  23.893  0.00  0.00    +0.000 A 
ATOM     38  C   UNL     1       3.366  -7.226  24.449  0.00  0.00    +0.000 A 
ATOM     39  C   UNL     1       4.722  -6.892  24.372  0.00  0.00    +0.004 A 
ENDBRANCH  33  34
ENDBRANCH  22  33
ENDBRANCH   1  22
TORSDOF 14
ENDMDL
MODEL 4
REMARK VINA RESULT:      -6.8      2.686      5.524
REMARK  Name = 
REMARK  16 active torsions:
REMARK  status: ('A' for Active; 'I' for Inactive)
REMARK    1  A    between atoms: C_1  and  C_2
REMARK    2  A    between atoms: C_2  and  C_3
REMARK    3  A    between atoms: C_2  and  C_4
REMARK    4  A    between atoms: C_4  and  N_5
REMARK    5  A    between atoms: N_5  and  C_6
REMARK    6  A    between atoms: C_9  and  S_12
REMARK    7  A    between atoms: S_12  and  N_15
REMARK    8  A    between atoms: N_15  and  C_16
REMARK    9  A    between atoms: C_16  and  C_17
REMARK   10  A    between atoms: C_17  and  C_19
REMARK   11  A    between atoms: C_17  and  O_38
REMARK   12  A    between atoms: C_19  and  C_21
REMARK   13  A    between atoms: C_19  and  N_28
REMARK   14  A    between atoms: C_21  and  C_22
REMARK   15  A    between atoms: C_29  and  O_31
REMARK   16  A    between atoms: O_31  and  C_32
REMARK                            x       y       z     vdW  Elec       q    Type
REMARK                         _______ _______ _______ _____ _____    ______ ____
ROOT
ATOM      1  C   UNL     1       9.012  -5.035  24.538  0.00  0.00    +0.150 C 
ENDROOT
BRANCH   1   2
ATOM      2  O   UNL     1       9.809  -6.001  25.250  0.00  0.00    -0.389 OA
ATOM      3  H   UNL     1      10.730  -5.683  25.277  0.00  0.00    +0.210 HD
ENDBRANCH   1   2
BRANCH   1   4
ATOM      4  C   UNL     1       9.427  -3.607  24.963  0.00  0.00    +0.139 C 
BRANCH   4   5
ATOM      5  N   UNL     1       9.555  -2.728  23.792  0.00  0.00    -0.187 NA
ATOM      6  H   UNL     1      10.466  -2.392  23.488  0.00  0.00    +0.148 HD
BRANCH   5   7
ATOM      7  S   UNL     1       8.257  -1.747  23.373  0.00  0.00    +0.058 S 
ATOM      8  O   UNL     1       7.894  -2.117  22.025  0.00  0.00    -0.153 OA
ATOM      9  O   UNL     1       7.313  -1.779  24.467  0.00  0.00    -0.153 OA
BRANCH   7  13
ATOM     10  C   UNL     1      10.116   2.450  23.240  0.00  0.00    +0.027 A 
ATOM     11  C   UNL     1      10.038   1.655  22.084  0.00  0.00    +0.025 A 
ATOM     12  C   UNL     1       9.499   0.366  22.113  0.00  0.00    +0.030 A 
ATOM     13  C   UNL     1       8.990  -0.131  23.311  0.00  0.00    +0.105 A 
ATOM     14  C   UNL     1       9.024   0.647  24.469  0.00  0.00    +0.030 A 
ATOM     15  C   UNL     1       9.568   1.936  24.423  0.00  0.00    +0.025 A 
BRANCH  10  16
ATOM     16  N   UNL     1      10.611   3.753  23.122  0.00  0.00    -0.344 N 
ATOM     17  H   UNL     1      11.623   3.777  23.223  0.00  0.00    +0.146 HD
BRANCH  16  18
ATOM     18  C   UNL     1       9.962   4.837  23.860  0.00  0.00    +0.104 C 
BRANCH  18  20
ATOM     19  C   UNL     1      10.738   6.819  25.250  0.00  0.00    +0.009 C 
ATOM     20  C   UNL     1      10.898   6.060  23.930  0.00  0.00    -0.000 C 
ATOM     21  C   UNL     1      12.354   5.627  23.755  0.00  0.00    +0.009 C 
ENDBRANCH  18  20
ENDBRANCH  16  18
ENDBRANCH  10  16
ENDBRANCH   7  13
ENDBRANCH   5   7
ENDBRANCH   4   5
ENDBRANCH   1   4
BRANCH   1  22
ATOM     22  C   UNL     1       7.498  -5.330  24.791  0.00  0.00    +0.110 C 
BRANCH  22  23
ATOM     23  N   UNL     1       6.953  -4.542  25.899  0.00  0.00    -0.275 N 
ATOM     24  H   UNL     1       6.807  -3.544  25.810  0.00  0.00    +0.152 HD
ATOM     25  C   UNL     1       6.669  -5.103  27.107  0.00  0.00    +0.401 C 
ATOM     26  O   UNL     1       6.800  -6.290  27.361  0.00  0.00    -0.226 OA
BRANCH  25  27
ATOM     27  O   UNL     1       6.302  -4.150  27.993  0.00  0.00    -0.445 OA
BRANCH  27  28
ATOM     28  C   UNL     1       4.897  -4.112  28.263  0.00  0.00    +0.206 C 
ATOM     29  C   UNL     1       4.512  -5.159  29.297  0.00  0.00    +0.204 C 
ATOM     30  O   UNL     1       3.163  -5.567  29.014  0.00  0.00    -0.376 OA
ATOM     31  C   UNL     1       2.770  -4.977  27.768  0.00  0.00    +0.163 C 
ATOM     32  C   UNL     1       4.039  -4.527  27.084  0.00  0.00    +0.075 C 
ENDBRANCH  27  28
ENDBRANCH  25  27
ENDBRANCH  22  23
BRANCH  22  33
ATOM     33  C   UNL     1       6.654  -5.127  23.504  0.00  0.00    +0.060 C 
BRANCH  33  34
ATOM     34  C   UNL     1       5.205  -5.553  23.662  0.00  0.00    -0.046 A 
ATOM     35  C   UNL     1       4.884  -6.805  24.208  0.00  0.00    +0.004 A 
ATOM     36  C   UNL     1       3.554  -7.165  24.433  0.00  0.00    +0.000 A 
ATOM     37  C   UNL     1       2.526  -6.290  24.093  0.00  0.00    +0.000 A 
ATOM     38  C   UNL     1       2.828  -5.065  23.503  0.00  0.00    +0.000 A 
ATOM     39  C   UNL     1       4.159  -4.699  23.283  0.00  0.00    +0.004 A 
ENDBRANCH  33  34
ENDBRANCH  22  33
ENDBRANCH   1  22
TORSDOF 14
ENDMDL
MODEL 5
REMARK VINA RESULT:      -6.7      2.511      4.200
REMARK  Name = 
REMARK  16 active torsions:
REMARK  status: ('A' for Active; 'I' for Inactive)
REMARK    1  A    between atoms: C_1  and  C_2
REMARK    2  A    between atoms: C_2  and  C_3
REMARK    3  A    between atoms: C_2  and  C_4
REMARK    4  A    between atoms: C_4  and  N_5
REMARK    5  A    between atoms: N_5  and  C_6
REMARK    6  A    between atoms: C_9  and  S_12
REMARK    7  A    between atoms: S_12  and  N_15
REMARK    8  A    between atoms: N_15  and  C_16
REMARK    9  A    between atoms: C_16  and  C_17
REMARK   10  A    between atoms: C_17  and  C_19
REMARK   11  A    between atoms: C_17  and  O_38
REMARK   12  A    between atoms: C_19  and  C_21
REMARK   13  A    between atoms: C_19  and  N_28
REMARK   14  A    between atoms: C_21  and  C_22
REMARK   15  A    between atoms: C_29  and  O_31
REMARK   16  A    between atoms: O_31  and  C_32
REMARK                            x       y       z     vdW  Elec       q    Type
REMARK                         _______ _______ _______ _____ _____    ______ ____
ROOT
ATOM      1  C   UNL     1       8.016  -1.473  26.751  0.00  0.00    +0.150 C 
ENDROOT
BRANCH   1   2
ATOM      2  O   UNL     1       8.910  -0.493  27.314  0.00  0.00    -0.389 OA
ATOM      3  H   UNL     1       8.550  -0.201  28.171  0.00  0.00    +0.210 HD
ENDBRANCH   1   2
BRANCH   1   4
ATOM      4  C   UNL     1       8.786  -2.356  25.742  0.00  0.00    +0.139 C 
BRANCH   4   5
ATOM      5  N   UNL     1       8.240  -2.202  24.386  0.00  0.00    -0.187 NA
ATOM      6  H   UNL     1       7.312  -2.551  24.153  0.00  0.00    +0.148 HD
BRANCH   5   7
ATOM      7  S   UNL     1       9.307  -2.096  23.092  0.00  0.00    +0.058 S 
ATOM      8  O   UNL     1      10.500  -2.800  23.500  0.00  0.00    -0.153 OA
ATOM      9  O   UNL     1       8.577  -2.438  21.893  0.00  0.00    -0.153 OA
BRANCH   7  13
ATOM     10  C   UNL     1      10.278   2.391  23.002  0.00  0.00    +0.027 A 
ATOM     11  C   UNL     1       9.831   1.724  21.849  0.00  0.00    +0.025 A 
ATOM     12  C   UNL     1       9.555   0.353  21.854  0.00  0.00    +0.030 A 
ATOM     13  C   UNL     1       9.691  -0.364  23.041  0.00  0.00    +0.105 A 
ATOM     14  C   UNL     1      10.103   0.278  24.209  0.00  0.00    +0.030 A 
ATOM     15  C   UNL     1      10.375   1.651  24.187  0.00  0.00    +0.025 A 
BRANCH  10  16
ATOM     16  N   UNL     1      10.474   3.775  22.938  0.00  0.00    -0.344 N 
ATOM     17  H   UNL     1      10.265   4.138  22.011  0.00  0.00    +0.146 HD
BRANCH  16  18
ATOM     18  C   UNL     1      11.701   4.352  23.489  0.00  0.00    +0.104 C 
BRANCH  18  20
ATOM     19  C   UNL     1      10.063   6.278  23.747  0.00  0.00    +0.009 C 
ATOM     20  C   UNL     1      11.537   5.876  23.653  0.00  0.00    -0.000 C 
ATOM     21  C   UNL     1      12.286   6.361  24.896  0.00  0.00    +0.009 C 
ENDBRANCH  18  20
ENDBRANCH  16  18
ENDBRANCH  10  16
ENDBRANCH   7  13
ENDBRANCH   5   7
ENDBRANCH   4   5
ENDBRANCH   1   4
BRANCH   1  22
ATOM     22  C   UNL     1       6.791  -0.744  26.110  0.00  0.00    +0.110 C 
BRANCH  22  23
ATOM     23  N   UNL     1       5.524  -1.418  26.403  0.00  0.00    -0.275 N 
ATOM     24  H   UNL     1       5.110  -1.376  27.325  0.00  0.00    +0.152 HD
ATOM     25  C   UNL     1       4.877  -2.169  25.468  0.00  0.00    +0.401 C 
ATOM     26  O   UNL     1       5.261  -2.315  24.318  0.00  0.00    -0.226 OA
BRANCH  25  27
ATOM     27  O   UNL     1       3.806  -2.784  26.018  0.00  0.00    -0.445 OA
BRANCH  27  28
ATOM     28  C   UNL     1       3.585  -4.115  25.539  0.00  0.00    +0.206 C 
ATOM     29  C   UNL     1       2.193  -4.603  25.909  0.00  0.00    +0.204 C 
ATOM     30  O   UNL     1       2.266  -6.029  26.072  0.00  0.00    -0.376 OA
ATOM     31  C   UNL     1       3.645  -6.415  26.009  0.00  0.00    +0.163 C 
ATOM     32  C   UNL     1       4.456  -5.157  26.212  0.00  0.00    +0.075 C 
ENDBRANCH  27  28
ENDBRANCH  25  27
ENDBRANCH  22  23
BRANCH  22  33
ATOM     33  C   UNL     1       6.731   0.748  26.531  0.00  0.00    +0.060 C 
BRANCH  33  34
ATOM     34  C   UNL     1       6.728   1.706  25.351  0.00  0.00    -0.046 A 
ATOM     35  C   UNL     1       7.160   3.032  25.505  0.00  0.00    +0.004 A 
ATOM     36  C   UNL     1       7.238   3.888  24.406  0.00  0.00    +0.000 A 
ATOM     37  C   UNL     1       6.863   3.440  23.142  0.00  0.00    +0.000 A 
ATOM     38  C   UNL     1       6.384   2.142  22.983  0.00  0.00    +0.000 A 
ATOM     39  C   UNL     1       6.311   1.280  24.082  0.00  0.00    +0.004 A 
ENDBRANCH  33  34
ENDBRANCH  22  33
ENDBRANCH   1  22
TORSDOF 14
ENDMDL
MODEL 6
REMARK VINA RESULT:      -6.7      3.073      8.483
REMARK  Name = 
REMARK  16 active torsions:
REMARK  status: ('A' for Active; 'I' for Inactive)
REMARK    1  A    between atoms: C_1  and  C_2
REMARK    2  A    between atoms: C_2  and  C_3
REMARK    3  A    between atoms: C_2  and  C_4
REMARK    4  A    between atoms: C_4  and  N_5
REMARK    5  A    between atoms: N_5  and  C_6
REMARK    6  A    between atoms: C_9  and  S_12
REMARK    7  A    between atoms: S_12  and  N_15
REMARK    8  A    between atoms: N_15  and  C_16
REMARK    9  A    between atoms: C_16  and  C_17
REMARK   10  A    between atoms: C_17  and  C_19
REMARK   11  A    between atoms: C_17  and  O_38
REMARK   12  A    between atoms: C_19  and  C_21
REMARK   13  A    between atoms: C_19  and  N_28
REMARK   14  A    between atoms: C_21  and  C_22
REMARK   15  A    between atoms: C_29  and  O_31
REMARK   16  A    between atoms: O_31  and  C_32
REMARK                            x       y       z     vdW  Elec       q    Type
REMARK                         _______ _______ _______ _____ _____    ______ ____
ROOT
ATOM      1  C   UNL     1       8.624  -1.087  26.595  0.00  0.00    +0.150 C 
ENDROOT
BRANCH   1   2
ATOM      2  O   UNL     1       9.229  -0.403  27.710  0.00  0.00    -0.389 OA
ATOM      3  H   UNL     1       9.091   0.555  27.598  0.00  0.00    +0.210 HD
ENDBRANCH   1   2
BRANCH   1   4
ATOM      4  C   UNL     1       9.364  -0.706  25.291  0.00  0.00    +0.139 C 
BRANCH   4   5
ATOM      5  N   UNL     1       9.374  -1.833  24.346  0.00  0.00    -0.187 NA
ATOM      6  H   UNL     1      10.083  -2.560  24.407  0.00  0.00    +0.148 HD
BRANCH   5   7
ATOM      7  S   UNL     1       8.710  -1.610  22.819  0.00  0.00    +0.058 S 
ATOM      8  O   UNL     1       7.956  -0.380  22.886  0.00  0.00    -0.153 OA
ATOM      9  O   UNL     1       9.761  -1.823  21.850  0.00  0.00    -0.153 OA
BRANCH   7  13
ATOM     10  C   UNL     1       5.680  -5.047  22.522  0.00  0.00    +0.027 A 
ATOM     11  C   UNL     1       7.015  -5.289  22.885  0.00  0.00    +0.025 A 
ATOM     12  C   UNL     1       7.956  -4.257  22.955  0.00  0.00    +0.030 A 
ATOM     13  C   UNL     1       7.551  -2.949  22.695  0.00  0.00    +0.105 A 
ATOM     14  C   UNL     1       6.225  -2.674  22.363  0.00  0.00    +0.030 A 
ATOM     15  C   UNL     1       5.295  -3.719  22.297  0.00  0.00    +0.025 A 
BRANCH  10  16
ATOM     16  N   UNL     1       4.780  -6.119  22.534  0.00  0.00    -0.344 N 
ATOM     17  H   UNL     1       4.583  -6.449  21.592  0.00  0.00    +0.146 HD
BRANCH  16  18
ATOM     18  C   UNL     1       3.568  -6.029  23.349  0.00  0.00    +0.104 C 
BRANCH  18  20
ATOM     19  C   UNL     1       2.890  -4.949  25.547  0.00  0.00    +0.009 C 
ATOM     20  C   UNL     1       3.943  -5.794  24.825  0.00  0.00    -0.000 C 
ATOM     21  C   UNL     1       4.119  -7.129  25.550  0.00  0.00    +0.009 C 
ENDBRANCH  18  20
ENDBRANCH  16  18
ENDBRANCH  10  16
ENDBRANCH   7  13
ENDBRANCH   5   7
ENDBRANCH   4   5
ENDBRANCH   1   4
BRANCH   1  22
ATOM     22  C   UNL     1       7.099  -0.748  26.549  0.00  0.00    +0.110 C 
BRANCH  22  23
ATOM     23  N   UNL     1       6.829   0.527  25.881  0.00  0.00    -0.275 N 
ATOM     24  H   UNL     1       6.671   0.572  24.883  0.00  0.00    +0.152 HD
ATOM     25  C   UNL     1       6.831   1.708  26.562  0.00  0.00    +0.401 C 
ATOM     26  O   UNL     1       7.011   1.807  27.765  0.00  0.00    -0.226 OA
BRANCH  25  27
ATOM     27  O   UNL     1       6.683   2.744  25.705  0.00  0.00    -0.445 OA
BRANCH  27  28
ATOM     28  C   UNL     1       7.037   2.439  24.352  0.00  0.00    +0.206 C 
ATOM     29  C   UNL     1       8.235   3.263  23.905  0.00  0.00    +0.204 C 
ATOM     30  O   UNL     1       8.105   3.477  22.490  0.00  0.00    -0.376 OA
ATOM     31  C   UNL     1       6.816   3.000  22.082  0.00  0.00    +0.163 C 
ATOM     32  C   UNL     1       5.991   2.859  23.339  0.00  0.00    +0.075 C 
ENDBRANCH  27  28
ENDBRANCH  25  27
ENDBRANCH  22  23
BRANCH  22  33
ATOM     33  C   UNL     1       6.280  -1.895  25.898  0.00  0.00    +0.060 C 
BRANCH  33  34
ATOM     34  C   UNL     1       6.287  -3.176  26.714  0.00  0.00    -0.046 A 
ATOM     35  C   UNL     1       5.351  -3.376  27.740  0.00  0.00    +0.004 A 
ATOM     36  C   UNL     1       5.302  -4.586  28.435  0.00  0.00    +0.000 A 
ATOM     37  C   UNL     1       6.203  -5.603  28.130  0.00  0.00    +0.000 A 
ATOM     38  C   UNL     1       7.171  -5.400  27.149  0.00  0.00    +0.000 A 
ATOM     39  C   UNL     1       7.218  -4.191  26.448  0.00  0.00    +0.004 A 
ENDBRANCH  33  34
ENDBRANCH  22  33
ENDBRANCH   1  22
TORSDOF 14
ENDMDL
MODEL 7
REMARK VINA RESULT:      -6.6      2.184      5.867
REMARK  Name = 
REMARK  16 active torsions:
REMARK  status: ('A' for Active; 'I' for Inactive)
REMARK    1  A    between atoms: C_1  and  C_2
REMARK    2  A    between atoms: C_2  and  C_3
REMARK    3  A    between atoms: C_2  and  C_4
REMARK    4  A    between atoms: C_4  and  N_5
REMARK    5  A    between atoms: N_5  and  C_6
REMARK    6  A    between atoms: C_9  and  S_12
REMARK    7  A    between atoms: S_12  and  N_15
REMARK    8  A    between atoms: N_15  and  C_16
REMARK    9  A    between atoms: C_16  and  C_17
REMARK   10  A    between atoms: C_17  and  C_19
REMARK   11  A    between atoms: C_17  and  O_38
REMARK   12  A    between atoms: C_19  and  C_21
REMARK   13  A    between atoms: C_19  and  N_28
REMARK   14  A    between atoms: C_21  and  C_22
REMARK   15  A    between atoms: C_29  and  O_31
REMARK   16  A    between atoms: O_31  and  C_32
REMARK                            x       y       z     vdW  Elec       q    Type
REMARK                         _______ _______ _______ _____ _____    ______ ____
ROOT
ATOM      1  C   UNL     1       7.835  -4.591  25.705  0.00  0.00    +0.150 C 
ENDROOT
BRANCH   1   2
ATOM      2  O   UNL     1       8.272  -5.816  26.324  0.00  0.00    -0.389 OA
ATOM      3  H   UNL     1       7.705  -5.993  27.096  0.00  0.00    +0.210 HD
ENDBRANCH   1   2
BRANCH   1   4
ATOM      4  C   UNL     1       8.944  -3.521  25.836  0.00  0.00    +0.139 C 
BRANCH   4   5
ATOM      5  N   UNL     1       8.629  -2.337  25.024  0.00  0.00    -0.187 NA
ATOM      6  H   UNL     1       7.766  -1.817  25.170  0.00  0.00    +0.148 HD
BRANCH   5   7
ATOM      7  S   UNL     1       9.276  -2.223  23.477  0.00  0.00    +0.058 S 
ATOM      8  O   UNL     1      10.527  -2.945  23.514  0.00  0.00    -0.153 OA
ATOM      9  O   UNL     1       8.225  -2.542  22.538  0.00  0.00    -0.153 OA
BRANCH   7  13
ATOM     10  C   UNL     1      10.276   2.239  23.068  0.00  0.00    +0.027 A 
ATOM     11  C   UNL     1      10.356   1.591  24.312  0.00  0.00    +0.025 A 
ATOM     12  C   UNL     1      10.030   0.239  24.457  0.00  0.00    +0.030 A 
ATOM     13  C   UNL     1       9.653  -0.494  23.335  0.00  0.00    +0.105 A 
ATOM     14  C   UNL     1       9.595   0.115  22.081  0.00  0.00    +0.030 A 
ATOM     15  C   UNL     1       9.924   1.470  21.952  0.00  0.00    +0.025 A 
BRANCH  10  16
ATOM     16  N   UNL     1      10.677   3.577  22.986  0.00  0.00    -0.344 N 
ATOM     17  H   UNL     1      11.689   3.667  23.045  0.00  0.00    +0.146 HD
BRANCH  16  18
ATOM     18  C   UNL     1       9.990   4.584  23.797  0.00  0.00    +0.104 C 
BRANCH  18  20
ATOM     19  C   UNL     1      10.554   6.701  25.086  0.00  0.00    +0.009 C 
ATOM     20  C   UNL     1      10.803   5.893  23.808  0.00  0.00    -0.000 C 
ATOM     21  C   UNL     1      12.297   5.595  23.668  0.00  0.00    +0.009 C 
ENDBRANCH  18  20
ENDBRANCH  16  18
ENDBRANCH  10  16
ENDBRANCH   7  13
ENDBRANCH   5   7
ENDBRANCH   4   5
ENDBRANCH   1   4
BRANCH   1  22
ATOM     22  C   UNL     1       6.480  -4.145  26.345  0.00  0.00    +0.110 C 
BRANCH  22  23
ATOM     23  N   UNL     1       5.870  -3.020  25.634  0.00  0.00    -0.275 N 
ATOM     24  H   UNL     1       5.939  -2.936  24.628  0.00  0.00    +0.152 HD
ATOM     25  C   UNL     1       5.231  -2.014  26.296  0.00  0.00    +0.401 C 
ATOM     26  O   UNL     1       5.076  -1.978  27.506  0.00  0.00    -0.226 OA
BRANCH  25  27
ATOM     27  O   UNL     1       4.869  -1.039  25.432  0.00  0.00    -0.445 OA
BRANCH  27  28
ATOM     28  C   UNL     1       5.752   0.088  25.418  0.00  0.00    +0.206 C 
ATOM     29  C   UNL     1       5.010   1.365  25.780  0.00  0.00    +0.204 C 
ATOM     30  O   UNL     1       5.660   2.448  25.094  0.00  0.00    -0.376 OA
ATOM     31  C   UNL     1       6.628   1.892  24.195  0.00  0.00    +0.163 C 
ATOM     32  C   UNL     1       6.281   0.430  24.039  0.00  0.00    +0.075 C 
ENDBRANCH  27  28
ENDBRANCH  25  27
ENDBRANCH  22  23
BRANCH  22  33
ATOM     33  C   UNL     1       5.485  -5.331  26.456  0.00  0.00    +0.060 C 
BRANCH  33  34
ATOM     34  C   UNL     1       4.491  -5.390  25.309  0.00  0.00    -0.046 A 
ATOM     35  C   UNL     1       4.903  -5.780  24.026  0.00  0.00    +0.004 A 
ATOM     36  C   UNL     1       3.977  -5.917  22.990  0.00  0.00    +0.000 A 
ATOM     37  C   UNL     1       2.631  -5.643  23.216  0.00  0.00    +0.000 A 
ATOM     38  C   UNL     1       2.215  -5.204  24.472  0.00  0.00    +0.000 A 
ATOM     39  C   UNL     1       3.140  -5.073  25.512  0.00  0.00    +0.004 A 
ENDBRANCH  33  34
ENDBRANCH  22  33
ENDBRANCH   1  22
TORSDOF 14
ENDMDL
MODEL 8
REMARK VINA RESULT:      -6.6      2.679      8.570
REMARK  Name = 
REMARK  16 active torsions:
REMARK  status: ('A' for Active; 'I' for Inactive)
REMARK    1  A    between atoms: C_1  and  C_2
REMARK    2  A    between atoms: C_2  and  C_3
REMARK    3  A    between atoms: C_2  and  C_4
REMARK    4  A    between atoms: C_4  and  N_5
REMARK    5  A    between atoms: N_5  and  C_6
REMARK    6  A    between atoms: C_9  and  S_12
REMARK    7  A    between atoms: S_12  and  N_15
REMARK    8  A    between atoms: N_15  and  C_16
REMARK    9  A    between atoms: C_16  and  C_17
REMARK   10  A    between atoms: C_17  and  C_19
REMARK   11  A    between atoms: C_17  and  O_38
REMARK   12  A    between atoms: C_19  and  C_21
REMARK   13  A    between atoms: C_19  and  N_28
REMARK   14  A    between atoms: C_21  and  C_22
REMARK   15  A    between atoms: C_29  and  O_31
REMARK   16  A    between atoms: O_31  and  C_32
REMARK                            x       y       z     vdW  Elec       q    Type
REMARK                         _______ _______ _______ _____ _____    ______ ____
ROOT
ATOM      1  C   UNL     1      10.107  -1.105  22.874  0.00  0.00    +0.150 C 
ENDROOT
BRANCH   1   2
ATOM      2  O   UNL     1      10.771  -1.823  21.815  0.00  0.00    -0.389 OA
ATOM      3  H   UNL     1      11.472  -2.375  22.207  0.00  0.00    +0.210 HD
ENDBRANCH   1   2
BRANCH   1   4
ATOM      4  C   UNL     1       9.900  -2.044  24.085  0.00  0.00    +0.139 C 
BRANCH   4   5
ATOM      5  N   UNL     1       9.172  -3.259  23.688  0.00  0.00    -0.187 NA
ATOM      6  H   UNL     1       8.567  -3.261  22.870  0.00  0.00    +0.148 HD
BRANCH   5   7
ATOM      7  S   UNL     1       8.780  -4.387  24.870  0.00  0.00    +0.058 S 
ATOM      8  O   UNL     1       9.767  -5.436  24.765  0.00  0.00    -0.153 OA
ATOM      9  O   UNL     1       8.542  -3.668  26.101  0.00  0.00    -0.153 OA
BRANCH   7  13
ATOM     10  C   UNL     1       4.778  -6.105  23.414  0.00  0.00    +0.027 A 
ATOM     11  C   UNL     1       5.839  -5.881  22.519  0.00  0.00    +0.025 A 
ATOM     12  C   UNL     1       7.054  -5.335  22.943  0.00  0.00    +0.030 A 
ATOM     13  C   UNL     1       7.233  -5.039  24.292  0.00  0.00    +0.105 A 
ATOM     14  C   UNL     1       6.209  -5.279  25.209  0.00  0.00    +0.030 A 
ATOM     15  C   UNL     1       4.998  -5.827  24.769  0.00  0.00    +0.025 A 
BRANCH  10  16
ATOM     16  N   UNL     1       3.614  -6.712  22.930  0.00  0.00    -0.344 N 
ATOM     17  H   UNL     1       3.750  -7.083  21.993  0.00  0.00    +0.146 HD
BRANCH  16  18
ATOM     18  C   UNL     1       2.333  -6.016  23.064  0.00  0.00    +0.104 C 
BRANCH  18  20
ATOM     19  C   UNL     1       1.645  -8.389  23.660  0.00  0.00    +0.009 C 
ATOM     20  C   UNL     1       1.333  -6.900  23.834  0.00  0.00    -0.000 C 
ATOM     21  C   UNL     1       1.338  -6.541  25.321  0.00  0.00    +0.009 C 
ENDBRANCH  18  20
ENDBRANCH  16  18
ENDBRANCH  10  16
ENDBRANCH   7  13
ENDBRANCH   5   7
ENDBRANCH   4   5
ENDBRANCH   1   4
BRANCH   1  22
ATOM     22  C   UNL     1       8.768  -0.509  22.331  0.00  0.00    +0.110 C 
BRANCH  22  23
ATOM     23  N   UNL     1       7.833  -0.167  23.405  0.00  0.00    -0.275 N 
ATOM     24  H   UNL     1       8.030   0.586  24.051  0.00  0.00    +0.152 HD
ATOM     25  C   UNL     1       6.688  -0.877  23.611  0.00  0.00    +0.401 C 
ATOM     26  O   UNL     1       6.324  -1.812  22.916  0.00  0.00    -0.226 OA
BRANCH  25  27
ATOM     27  O   UNL     1       6.065  -0.447  24.732  0.00  0.00    -0.445 OA
BRANCH  27  28
ATOM     28  C   UNL     1       6.828   0.484  25.506  0.00  0.00    +0.206 C 
ATOM     29  C   UNL     1       6.869   0.072  26.969  0.00  0.00    +0.204 C 
ATOM     30  O   UNL     1       6.974   1.273  27.751  0.00  0.00    -0.376 OA
ATOM     31  C   UNL     1       6.810   2.394  26.873  0.00  0.00    +0.163 C 
ATOM     32  C   UNL     1       6.197   1.859  25.600  0.00  0.00    +0.075 C 
ENDBRANCH  27  28
ENDBRANCH  25  27
ENDBRANCH  22  23
BRANCH  22  33
ATOM     33  C   UNL     1       9.021   0.716  21.411  0.00  0.00    +0.060 C 
BRANCH  33  34
ATOM     34  C   UNL     1       8.978   2.042  22.151  0.00  0.00    -0.046 A 
ATOM     35  C   UNL     1       7.825   2.841  22.119  0.00  0.00    +0.004 A 
ATOM     36  C   UNL     1       7.752   4.018  22.867  0.00  0.00    +0.000 A 
ATOM     37  C   UNL     1       8.839   4.425  23.636  0.00  0.00    +0.000 A 
ATOM     38  C   UNL     1      10.008   3.669  23.637  0.00  0.00    +0.000 A 
ATOM     39  C   UNL     1      10.081   2.486  22.895  0.00  0.00    +0.004 A 
ENDBRANCH  33  34
ENDBRANCH  22  33
ENDBRANCH   1  22
TORSDOF 14
ENDMDL
MODEL 9
REMARK VINA RESULT:      -6.6      1.541      2.063
REMARK  Name = 
REMARK  16 active torsions:
REMARK  status: ('A' for Active; 'I' for Inactive)
REMARK    1  A    between atoms: C_1  and  C_2
REMARK    2  A    between atoms: C_2  and  C_3
REMARK    3  A    between atoms: C_2  and  C_4
REMARK    4  A    between atoms: C_4  and  N_5
REMARK    5  A    between atoms: N_5  and  C_6
REMARK    6  A    between atoms: C_9  and  S_12
REMARK    7  A    between atoms: S_12  and  N_15
REMARK    8  A    between atoms: N_15  and  C_16
REMARK    9  A    between atoms: C_16  and  C_17
REMARK   10  A    between atoms: C_17  and  C_19
REMARK   11  A    between atoms: C_17  and  O_38
REMARK   12  A    between atoms: C_19  and  C_21
REMARK   13  A    between atoms: C_19  and  N_28
REMARK   14  A    between atoms: C_21  and  C_22
REMARK   15  A    between atoms: C_29  and  O_31
REMARK   16  A    between atoms: O_31  and  C_32
REMARK                            x       y       z     vdW  Elec       q    Type
REMARK                         _______ _______ _______ _____ _____    ______ ____
ROOT
ATOM      1  C   UNL     1       8.737  -0.883  25.319  0.00  0.00    +0.150 C 
ENDROOT
BRANCH   1   2
ATOM      2  O   UNL     1       9.716  -0.256  26.171  0.00  0.00    -0.389 OA
ATOM      3  H   UNL     1      10.596  -0.601  25.938  0.00  0.00    +0.210 HD
ENDBRANCH   1   2
BRANCH   1   4
ATOM      4  C   UNL     1       7.600  -1.473  26.185  0.00  0.00    +0.139 C 
BRANCH   4   5
ATOM      5  N   UNL     1       6.842  -0.405  26.853  0.00  0.00    -0.187 NA
ATOM      6  H   UNL     1       6.851  -0.313  27.867  0.00  0.00    +0.148 HD
BRANCH   5   7
ATOM      7  S   UNL     1       5.476   0.212  26.094  0.00  0.00    +0.058 S 
ATOM      8  O   UNL     1       5.337  -0.526  24.860  0.00  0.00    -0.153 OA
ATOM      9  O   UNL     1       4.420   0.280  27.079  0.00  0.00    -0.153 OA
BRANCH   7  13
ATOM     10  C   UNL     1       6.765   4.499  25.074  0.00  0.00    +0.027 A 
ATOM     11  C   UNL     1       5.524   3.996  24.650  0.00  0.00    +0.025 A 
ATOM     12  C   UNL     1       5.128   2.685  24.931  0.00  0.00    +0.030 A 
ATOM     13  C   UNL     1       5.968   1.867  25.682  0.00  0.00    +0.105 A 
ATOM     14  C   UNL     1       7.193   2.348  26.144  0.00  0.00    +0.030 A 
ATOM     15  C   UNL     1       7.575   3.664  25.855  0.00  0.00    +0.025 A 
BRANCH  10  16
ATOM     16  N   UNL     1       7.068   5.840  24.811  0.00  0.00    -0.344 N 
ATOM     17  H   UNL     1       6.768   6.112  23.877  0.00  0.00    +0.146 HD
BRANCH  16  18
ATOM     18  C   UNL     1       8.401   6.350  25.130  0.00  0.00    +0.104 C 
BRANCH  18  20
ATOM     19  C   UNL     1      10.490   5.932  23.743  0.00  0.00    +0.009 C 
ATOM     20  C   UNL     1       9.160   6.686  23.831  0.00  0.00    -0.000 C 
ATOM     21  C   UNL     1       8.299   6.358  22.610  0.00  0.00    +0.009 C 
ENDBRANCH  18  20
ENDBRANCH  16  18
ENDBRANCH  10  16
ENDBRANCH   7  13
ENDBRANCH   5   7
ENDBRANCH   4   5
ENDBRANCH   1   4
BRANCH   1  22
ATOM     22  C   UNL     1       9.443  -1.956  24.428  0.00  0.00    +0.110 C 
BRANCH  22  23
ATOM     23  N   UNL     1       8.575  -3.099  24.138  0.00  0.00    -0.275 N 
ATOM     24  H   UNL     1       7.644  -2.969  23.765  0.00  0.00    +0.152 HD
ATOM     25  C   UNL     1       8.961  -4.379  24.405  0.00  0.00    +0.401 C 
ATOM     26  O   UNL     1      10.051  -4.687  24.860  0.00  0.00    -0.226 OA
BRANCH  25  27
ATOM     27  O   UNL     1       7.942  -5.236  24.168  0.00  0.00    -0.445 OA
BRANCH  27  28
ATOM     28  C   UNL     1       7.167  -4.918  23.007  0.00  0.00    +0.206 C 
ATOM     29  C   UNL     1       5.680  -5.064  23.288  0.00  0.00    +0.204 C 
ATOM     30  O   UNL     1       5.044  -5.440  22.056  0.00  0.00    -0.376 OA
ATOM     31  C   UNL     1       6.068  -5.715  21.091  0.00  0.00    +0.163 C 
ATOM     32  C   UNL     1       7.353  -5.895  21.864  0.00  0.00    +0.075 C 
ENDBRANCH  27  28
ENDBRANCH  25  27
ENDBRANCH  22  23
BRANCH  22  33
ATOM     33  C   UNL     1       9.992  -1.335  23.115  0.00  0.00    +0.060 C 
BRANCH  33  34
ATOM     34  C   UNL     1       9.400   0.029  22.803  0.00  0.00    -0.046 A 
ATOM     35  C   UNL     1       8.043   0.160  22.473  0.00  0.00    +0.004 A 
ATOM     36  C   UNL     1       7.478   1.420  22.268  0.00  0.00    +0.000 A 
ATOM     37  C   UNL     1       8.266   2.563  22.365  0.00  0.00    +0.000 A 
ATOM     38  C   UNL     1       9.626   2.445  22.641  0.00  0.00    +0.000 A 
ATOM     39  C   UNL     1      10.193   1.184  22.853  0.00  0.00    +0.004 A 
ENDBRANCH  33  34
ENDBRANCH  22  33
ENDBRANCH   1  22
TORSDOF 14
ENDMDL
