MODEL 1
REMARK VINA RESULT:      -6.4      0.000      0.000
REMARK  Name = 
REMARK  6 active torsions:
REMARK  status: ('A' for Active; 'I' for Inactive)
REMARK    1  A    between atoms: C_3  and  C_17
REMARK    2  A    between atoms: N_5  and  C1*_6
REMARK    3  A    between atoms: C2*_8  and  O2*_16
REMARK    4  A    between atoms: C3*_9  and  O3*_15
REMARK    5  A    between atoms: C4*_10  and  C5*_13
REMARK    6  A    between atoms: C5*_13  and  O5*_14
REMARK                            x       y       z     vdW  Elec       q    Type
REMARK                         _______ _______ _______ _____ _____    ______ ____
ROOT
ATOM      1  C1* UNL     1       8.916  -1.747  23.647  0.00  0.00    +0.270 C 
ATOM      2  O4* UNL     1       8.038  -0.652  23.303  0.00  0.00    -0.344 OA
ATOM      3  C4* UNL     1       8.885   0.510  23.088  0.00  0.00    +0.177 C 
ATOM      4  C3* UNL     1      10.342   0.036  23.265  0.00  0.00    +0.178 C 
ATOM      5  C2* UNL     1      10.244  -1.452  22.949  0.00  0.00    +0.196 C 
ENDROOT
BRANCH   1   7
ATOM      6  C   UNL     1       8.470  -4.154  24.132  0.00  0.00    +0.223 A 
ATOM      7  N   UNL     1       8.301  -3.029  23.385  0.00  0.00    -0.220 N 
ATOM      8  N   UNL     1       7.532  -3.273  22.304  0.00  0.00    -0.142 NA
ATOM      9  C   UNL     1       7.198  -4.568  22.490  0.00  0.00    +0.236 A 
ATOM     10  N   UNL     1       7.791  -5.142  23.609  0.00  0.00    -0.211 NA
BRANCH   9  11
ATOM     11  C   UNL     1       6.301  -5.353  21.618  0.00  0.00    +0.281 C 
ATOM     12  N   UNL     1       5.833  -6.509  22.204  0.00  0.00    -0.323 N 
ATOM     13  H   UNL     1       5.198  -7.100  21.691  0.00  0.00    +0.145 HD
ATOM     14  H   UNL     1       6.109  -6.738  23.151  0.00  0.00    +0.145 HD
ATOM     15  O   UNL     1       5.969  -5.050  20.479  0.00  0.00    -0.267 OA
ENDBRANCH   9  11
ENDBRANCH   1   7
BRANCH   4  16
ATOM     16  O3* UNL     1      10.786   0.189  24.622  0.00  0.00    -0.386 OA
ATOM     17  H3* UNL     1      11.301   1.009  24.718  0.00  0.00    +0.210 HD
ENDBRANCH   4  16
BRANCH   5  18
ATOM     18  O2* UNL     1      10.229  -1.611  21.528  0.00  0.00    -0.385 OA
ATOM     19  H2* UNL     1      10.509  -0.763  21.114  0.00  0.00    +0.210 HD
ENDBRANCH   5  18
BRANCH   3  20
ATOM     20  C5* UNL     1       8.630   1.129  21.706  0.00  0.00    +0.190 C 
BRANCH  20  21
ATOM     21  O5* UNL     1       9.654   2.055  21.343  0.00  0.00    -0.392 OA
ATOM     22  H5* UNL     1       9.325   2.623  20.628  0.00  0.00    +0.210 HD
ENDBRANCH  20  21
ENDBRANCH   3  20
TORSDOF 6
ENDMDL
MODEL 2
REMARK VINA RESULT:      -6.2      2.032      3.352
REMARK  Name = 
REMARK  6 active torsions:
REMARK  status: ('A' for Active; 'I' for Inactive)
REMARK    1  A    between atoms: C_3  and  C_17
REMARK    2  A    between atoms: N_5  and  C1*_6
REMARK    3  A    between atoms: C2*_8  and  O2*_16
REMARK    4  A    between atoms: C3*_9  and  O3*_15
REMARK    5  A    between atoms: C4*_10  and  C5*_13
REMARK    6  A    between atoms: C5*_13  and  O5*_14
REMARK                            x       y       z     vdW  Elec       q    Type
REMARK                         _______ _______ _______ _____ _____    ______ ____
ROOT
ATOM      1  C1* UNL     1       9.017  -1.266  22.610  0.00  0.00    +0.270 C 
ATOM      2  O4* UNL     1      10.306  -0.799  23.067  0.00  0.00    -0.344 OA
ATOM      3  C4* UNL     1      10.299   0.649  22.928  0.00  0.00    +0.177 C 
ATOM      4  C3* UNL     1       8.897   1.037  22.413  0.00  0.00    +0.178 C 
ATOM      5  C2* UNL     1       8.037  -0.126  22.891  0.00  0.00    +0.196 C 
ENDROOT
BRANCH   1   7
ATOM      6  C   UNL     1       7.807  -3.448  22.622  0.00  0.00    +0.223 A 
ATOM      7  N   UNL     1       8.695  -2.565  23.157  0.00  0.00    -0.220 N 
ATOM      8  N   UNL     1       9.198  -3.024  24.321  0.00  0.00    -0.142 NA
ATOM      9  C   UNL     1       8.623  -4.243  24.409  0.00  0.00    +0.236 A 
ATOM     10  N   UNL     1       7.736  -4.517  23.374  0.00  0.00    -0.211 NA
BRANCH   9  11
ATOM     11  C   UNL     1       8.869  -5.229  25.480  0.00  0.00    +0.281 C 
ATOM     12  N   UNL     1      10.199  -5.559  25.633  0.00  0.00    -0.323 N 
ATOM     13  H   UNL     1      10.466  -6.211  26.353  0.00  0.00    +0.145 HD
ATOM     14  H   UNL     1      10.895  -5.123  25.039  0.00  0.00    +0.145 HD
ATOM     15  O   UNL     1       8.014  -5.733  26.196  0.00  0.00    -0.267 OA
ENDBRANCH   9  11
ENDBRANCH   1   7
BRANCH   4  16
ATOM     16  O3* UNL     1       8.856   1.080  20.978  0.00  0.00    -0.386 OA
ATOM     17  H3* UNL     1       9.202   0.250  20.604  0.00  0.00    +0.210 HD
ENDBRANCH   4  16
BRANCH   5  18
ATOM     18  O2* UNL     1       7.727   0.080  24.272  0.00  0.00    -0.385 OA
ATOM     19  H2* UNL     1       7.465   1.020  24.398  0.00  0.00    +0.210 HD
ENDBRANCH   5  18
BRANCH   3  20
ATOM     20  C5* UNL     1      10.648   1.332  24.258  0.00  0.00    +0.190 C 
BRANCH  20  21
ATOM     21  O5* UNL     1      10.484   0.448  25.367  0.00  0.00    -0.392 OA
ATOM     22  H5* UNL     1       9.537   0.274  25.492  0.00  0.00    +0.210 HD
ENDBRANCH  20  21
ENDBRANCH   3  20
TORSDOF 6
ENDMDL
MODEL 3
REMARK VINA RESULT:      -6.0      4.869      7.847
REMARK  Name = 
REMARK  6 active torsions:
REMARK  status: ('A' for Active; 'I' for Inactive)
REMARK    1  A    between atoms: C_3  and  C_17
REMARK    2  A    between atoms: N_5  and  C1*_6
REMARK    3  A    between atoms: C2*_8  and  O2*_16
REMARK    4  A    between atoms: C3*_9  and  O3*_15
REMARK    5  A    between atoms: C4*_10  and  C5*_13
REMARK    6  A    between atoms: C5*_13  and  O5*_14
REMARK                            x       y       z     vdW  Elec       q    Type
REMARK                         _______ _______ _______ _____ _____    ______ ____
ROOT
ATOM      1  C1* UNL     1       8.829   2.229  23.591  0.00  0.00    +0.270 C 
ATOM      2  O4* UNL     1       9.555   1.087  24.099  0.00  0.00    -0.344 OA
ATOM      3  C4* UNL     1       8.995  -0.086  23.449  0.00  0.00    +0.177 C 
ATOM      4  C3* UNL     1       7.920   0.422  22.466  0.00  0.00    +0.178 C 
ATOM      5  C2* UNL     1       8.383   1.845  22.180  0.00  0.00    +0.196 C 
ENDROOT
BRANCH   1   7
ATOM      6  C   UNL     1       9.077   4.654  24.125  0.00  0.00    +0.223 A 
ATOM      7  N   UNL     1       9.586   3.452  23.736  0.00  0.00    -0.220 N 
ATOM      8  N   UNL     1      10.894   3.554  23.425  0.00  0.00    -0.142 NA
ATOM      9  C   UNL     1      11.147   4.848  23.719  0.00  0.00    +0.236 A 
ATOM     10  N   UNL     1      10.025   5.556  24.132  0.00  0.00    -0.211 NA
BRANCH   9  11
ATOM     11  C   UNL     1      12.467   5.504  23.621  0.00  0.00    +0.281 C 
ATOM     12  N   UNL     1      12.656   6.507  24.547  0.00  0.00    -0.323 N 
ATOM     13  H   UNL     1      13.535   6.999  24.568  0.00  0.00    +0.145 HD
ATOM     14  H   UNL     1      11.921   6.721  25.211  0.00  0.00    +0.145 HD
ATOM     15  O   UNL     1      13.346   5.220  22.818  0.00  0.00    -0.267 OA
ENDBRANCH   9  11
ENDBRANCH   1   7
BRANCH   4  16
ATOM     16  O3* UNL     1       6.624   0.475  23.083  0.00  0.00    -0.386 OA
ATOM     17  H3* UNL     1       6.450  -0.346  23.575  0.00  0.00    +0.210 HD
ENDBRANCH   4  16
BRANCH   5  18
ATOM     18  O2* UNL     1       9.430   1.792  21.207  0.00  0.00    -0.385 OA
ATOM     19  H2* UNL     1       9.100   1.308  20.417  0.00  0.00    +0.210 HD
ENDBRANCH   5  18
BRANCH   3  20
ATOM     20  C5* UNL     1      10.091  -0.905  22.752  0.00  0.00    +0.190 C 
BRANCH  20  21
ATOM     21  O5* UNL     1       9.773  -1.160  21.384  0.00  0.00    -0.392 OA
ATOM     22  H5* UNL     1       9.216  -0.438  21.051  0.00  0.00    +0.210 HD
ENDBRANCH  20  21
ENDBRANCH   3  20
TORSDOF 6
ENDMDL
MODEL 4
REMARK VINA RESULT:      -5.9      2.890      5.862
REMARK  Name = 
REMARK  6 active torsions:
REMARK  status: ('A' for Active; 'I' for Inactive)
REMARK    1  A    between atoms: C_3  and  C_17
REMARK    2  A    between atoms: N_5  and  C1*_6
REMARK    3  A    between atoms: C2*_8  and  O2*_16
REMARK    4  A    between atoms: C3*_9  and  O3*_15
REMARK    5  A    between atoms: C4*_10  and  C5*_13
REMARK    6  A    between atoms: C5*_13  and  O5*_14
REMARK                            x       y       z     vdW  Elec       q    Type
REMARK                         _______ _______ _______ _____ _____    ______ ____
ROOT
ATOM      1  C1* UNL     1       9.448  -3.063  24.499  0.00  0.00    +0.270 C 
ATOM      2  O4* UNL     1       8.765  -4.123  23.793  0.00  0.00    -0.344 OA
ATOM      3  C4* UNL     1       8.167  -4.980  24.803  0.00  0.00    +0.177 C 
ATOM      4  C3* UNL     1       8.481  -4.338  26.171  0.00  0.00    +0.178 C 
ATOM      5  C2* UNL     1       8.681  -2.872  25.807  0.00  0.00    +0.196 C 
ENDROOT
BRANCH   1   7
ATOM      6  C   UNL     1       9.636  -1.894  22.302  0.00  0.00    +0.223 A 
ATOM      7  N   UNL     1       9.634  -1.897  23.664  0.00  0.00    -0.220 N 
ATOM      8  N   UNL     1       9.903  -0.671  24.155  0.00  0.00    -0.142 NA
ATOM      9  C   UNL     1       9.990   0.066  23.026  0.00  0.00    +0.236 A 
ATOM     10  N   UNL     1       9.851  -0.681  21.861  0.00  0.00    -0.211 NA
BRANCH   9  11
ATOM     11  C   UNL     1      10.217   1.524  22.972  0.00  0.00    +0.281 C 
ATOM     12  N   UNL     1       9.994   2.073  21.728  0.00  0.00    -0.323 N 
ATOM     13  H   UNL     1      10.106   3.066  21.600  0.00  0.00    +0.145 HD
ATOM     14  H   UNL     1       9.695   1.478  20.964  0.00  0.00    +0.145 HD
ATOM     15  O   UNL     1      10.566   2.226  23.913  0.00  0.00    -0.267 OA
ENDBRANCH   9  11
ENDBRANCH   1   7
BRANCH   4  16
ATOM     16  O3* UNL     1       9.705  -4.845  26.724  0.00  0.00    -0.386 OA
ATOM     17  H3* UNL     1       9.815  -4.537  27.641  0.00  0.00    +0.210 HD
ENDBRANCH   4  16
BRANCH   5  18
ATOM     18  O2* UNL     1       7.394  -2.262  25.671  0.00  0.00    -0.385 OA
ATOM     19  H2* UNL     1       6.746  -2.773  26.207  0.00  0.00    +0.210 HD
ENDBRANCH   5  18
BRANCH   3  20
ATOM     20  C5* UNL     1       6.661  -5.148  24.562  0.00  0.00    +0.190 C 
BRANCH  20  21
ATOM     21  O5* UNL     1       6.151  -4.150  23.678  0.00  0.00    -0.392 OA
ATOM     22  H5* UNL     1       6.777  -3.409  23.647  0.00  0.00    +0.210 HD
ENDBRANCH  20  21
ENDBRANCH   3  20
TORSDOF 6
ENDMDL
MODEL 5
REMARK VINA RESULT:      -5.8      3.079      6.116
REMARK  Name = 
REMARK  6 active torsions:
REMARK  status: ('A' for Active; 'I' for Inactive)
REMARK    1  A    between atoms: C_3  and  C_17
REMARK    2  A    between atoms: N_5  and  C1*_6
REMARK    3  A    between atoms: C2*_8  and  O2*_16
REMARK    4  A    between atoms: C3*_9  and  O3*_15
REMARK    5  A    between atoms: C4*_10  and  C5*_13
REMARK    6  A    between atoms: C5*_13  and  O5*_14
REMARK                            x       y       z     vdW  Elec       q    Type
REMARK                         _______ _______ _______ _____ _____    ______ ____
ROOT
ATOM      1  C1* UNL     1       8.046  -2.041  24.409  0.00  0.00    +0.270 C 
ATOM      2  O4* UNL     1       8.019  -2.559  25.757  0.00  0.00    -0.344 OA
ATOM      3  C4* UNL     1       8.073  -4.008  25.648  0.00  0.00    +0.177 C 
ATOM      4  C3* UNL     1       8.195  -4.335  24.146  0.00  0.00    +0.178 C 
ATOM      5  C2* UNL     1       8.823  -3.066  23.583  0.00  0.00    +0.196 C 
ENDROOT
BRANCH   1   7
ATOM      6  C   UNL     1       8.240   0.279  25.307  0.00  0.00    +0.223 A 
ATOM      7  N   UNL     1       8.511  -0.672  24.371  0.00  0.00    -0.220 N 
ATOM      8  N   UNL     1       9.219  -0.159  23.345  0.00  0.00    -0.142 NA
ATOM      9  C   UNL     1       9.415   1.114  23.753  0.00  0.00    +0.236 A 
ATOM     10  N   UNL     1       8.793   1.414  24.961  0.00  0.00    -0.211 NA
BRANCH   9  11
ATOM     11  C   UNL     1      10.197   2.134  23.027  0.00  0.00    +0.281 C 
ATOM     12  N   UNL     1       9.994   2.119  21.664  0.00  0.00    -0.323 N 
ATOM     13  H   UNL     1      10.472   2.793  21.087  0.00  0.00    +0.145 HD
ATOM     14  H   UNL     1       9.347   1.452  21.261  0.00  0.00    +0.145 HD
ATOM     15  O   UNL     1      10.964   2.941  23.537  0.00  0.00    -0.267 OA
ENDBRANCH   9  11
ENDBRANCH   1   7
BRANCH   4  16
ATOM     16  O3* UNL     1       6.906  -4.518  23.538  0.00  0.00    -0.386 OA
ATOM     17  H3* UNL     1       6.389  -5.177  24.035  0.00  0.00    +0.210 HD
ENDBRANCH   4  16
BRANCH   5  18
ATOM     18  O2* UNL     1      10.230  -3.109  23.838  0.00  0.00    -0.385 OA
ATOM     19  H2* UNL     1      10.371  -3.152  24.811  0.00  0.00    +0.210 HD
ENDBRANCH   5  18
BRANCH   3  20
ATOM     20  C5* UNL     1       9.235  -4.580  26.473  0.00  0.00    +0.190 C 
BRANCH  20  21
ATOM     21  O5* UNL     1      10.005  -5.518  25.722  0.00  0.00    -0.392 OA
ATOM     22  H5* UNL     1      10.512  -5.039  25.047  0.00  0.00    +0.210 HD
ENDBRANCH  20  21
ENDBRANCH   3  20
TORSDOF 6
ENDMDL
MODEL 6
REMARK VINA RESULT:      -5.8      3.011      3.810
REMARK  Name = 
REMARK  6 active torsions:
REMARK  status: ('A' for Active; 'I' for Inactive)
REMARK    1  A    between atoms: C_3  and  C_17
REMARK    2  A    between atoms: N_5  and  C1*_6
REMARK    3  A    between atoms: C2*_8  and  O2*_16
REMARK    4  A    between atoms: C3*_9  and  O3*_15
REMARK    5  A    between atoms: C4*_10  and  C5*_13
REMARK    6  A    between atoms: C5*_13  and  O5*_14
REMARK                            x       y       z     vdW  Elec       q    Type
REMARK                         _______ _______ _______ _____ _____    ______ ____
ROOT
ATOM      1  C1* UNL     1       9.681   0.013  23.466  0.00  0.00    +0.270 C 
ATOM      2  O4* UNL     1       9.986   0.991  24.485  0.00  0.00    -0.344 OA
ATOM      3  C4* UNL     1       9.587   2.284  23.955  0.00  0.00    +0.177 C 
ATOM      4  C3* UNL     1       8.963   2.022  22.569  0.00  0.00    +0.178 C 
ATOM      5  C2* UNL     1       8.492   0.578  22.689  0.00  0.00    +0.196 C 
ENDROOT
BRANCH   1   7
ATOM      6  C   UNL     1      10.108  -2.445  23.526  0.00  0.00    +0.223 A 
ATOM      7  N   UNL     1       9.537  -1.314  24.023  0.00  0.00    -0.220 N 
ATOM      8  N   UNL     1       8.745  -1.591  25.079  0.00  0.00    -0.142 NA
ATOM      9  C   UNL     1       8.934  -2.921  25.224  0.00  0.00    +0.236 A 
ATOM     10  N   UNL     1       9.760  -3.476  24.253  0.00  0.00    -0.211 NA
BRANCH   9  11
ATOM     11  C   UNL     1       8.341  -3.757  26.287  0.00  0.00    +0.281 C 
ATOM     12  N   UNL     1       9.088  -4.874  26.592  0.00  0.00    -0.323 N 
ATOM     13  H   UNL     1       8.771  -5.495  27.320  0.00  0.00    +0.145 HD
ATOM     14  H   UNL     1       9.959  -5.044  26.103  0.00  0.00    +0.145 HD
ATOM     15  O   UNL     1       7.293  -3.524  26.875  0.00  0.00    -0.267 OA
ENDBRANCH   9  11
ENDBRANCH   1   7
BRANCH   4  16
ATOM     16  O3* UNL     1       9.945   2.099  21.524  0.00  0.00    -0.386 OA
ATOM     17  H3* UNL     1      10.521   2.873  21.658  0.00  0.00    +0.210 HD
ENDBRANCH   4  16
BRANCH   5  18
ATOM     18  O2* UNL     1       7.247   0.567  23.394  0.00  0.00    -0.385 OA
ATOM     19  H2* UNL     1       6.519   0.714  22.748  0.00  0.00    +0.210 HD
ENDBRANCH   5  18
BRANCH   3  20
ATOM     20  C5* UNL     1       8.621   2.997  24.911  0.00  0.00    +0.190 C 
BRANCH  20  21
ATOM     21  O5* UNL     1       8.103   2.109  25.901  0.00  0.00    -0.392 OA
ATOM     22  H5* UNL     1       7.808   2.628  26.666  0.00  0.00    +0.210 HD
ENDBRANCH  20  21
ENDBRANCH   3  20
TORSDOF 6
ENDMDL
MODEL 7
REMARK VINA RESULT:      -5.8      2.472      5.828
REMARK  Name = 
REMARK  6 active torsions:
REMARK  status: ('A' for Active; 'I' for Inactive)
REMARK    1  A    between atoms: C_3  and  C_17
REMARK    2  A    between atoms: N_5  and  C1*_6
REMARK    3  A    between atoms: C2*_8  and  O2*_16
REMARK    4  A    between atoms: C3*_9  and  O3*_15
REMARK    5  A    between atoms: C4*_10  and  C5*_13
REMARK    6  A    between atoms: C5*_13  and  O5*_14
REMARK                            x       y       z     vdW  Elec       q    Type
REMARK                         _______ _______ _______ _____ _____    ______ ____
ROOT
ATOM      1  C1* UNL     1       7.749  -3.149  23.517  0.00  0.00    +0.270 C 
ATOM      2  O4* UNL     1       8.262  -4.356  22.910  0.00  0.00    -0.344 OA
ATOM      3  C4* UNL     1       7.209  -5.354  23.012  0.00  0.00    +0.177 C 
ATOM      4  C3* UNL     1       6.000  -4.656  23.669  0.00  0.00    +0.178 C 
ATOM      5  C2* UNL     1       6.234  -3.192  23.317  0.00  0.00    +0.196 C 
ENDROOT
BRANCH   1   7
ATOM      6  C   UNL     1       9.798  -1.830  22.979  0.00  0.00    +0.223 A 
ATOM      7  N   UNL     1       8.446  -1.974  23.043  0.00  0.00    -0.220 N 
ATOM      8  N   UNL     1       7.817  -0.841  22.671  0.00  0.00    -0.142 NA
ATOM      9  C   UNL     1       8.856  -0.052  22.317  0.00  0.00    +0.236 A 
ATOM     10  N   UNL     1      10.098  -0.641  22.524  0.00  0.00    -0.211 NA
BRANCH   9  11
ATOM     11  C   UNL     1       8.743   1.312  21.765  0.00  0.00    +0.281 C 
ATOM     12  N   UNL     1       9.958   1.930  21.564  0.00  0.00    -0.323 N 
ATOM     13  H   UNL     1       9.981   2.858  21.173  0.00  0.00    +0.145 HD
ATOM     14  H   UNL     1      10.814   1.436  21.787  0.00  0.00    +0.145 HD
ATOM     15  O   UNL     1       7.696   1.886  21.491  0.00  0.00    -0.267 OA
ENDBRANCH   9  11
ENDBRANCH   1   7
BRANCH   4  16
ATOM     16  O3* UNL     1       6.021  -4.795  25.098  0.00  0.00    -0.386 OA
ATOM     17  H3* UNL     1       5.626  -5.646  25.361  0.00  0.00    +0.210 HD
ENDBRANCH   4  16
BRANCH   5  18
ATOM     18  O2* UNL     1       5.794  -2.975  21.974  0.00  0.00    -0.385 OA
ATOM     19  H2* UNL     1       6.452  -2.404  21.517  0.00  0.00    +0.210 HD
ENDBRANCH   5  18
BRANCH   3  20
ATOM     20  C5* UNL     1       6.874  -5.944  21.635  0.00  0.00    +0.190 C 
BRANCH  20  21
ATOM     21  O5* UNL     1       5.465  -6.041  21.430  0.00  0.00    -0.392 OA
ATOM     22  H5* UNL     1       5.205  -5.420  20.731  0.00  0.00    +0.210 HD
ENDBRANCH  20  21
ENDBRANCH   3  20
TORSDOF 6
ENDMDL
MODEL 8
REMARK VINA RESULT:      -5.7      1.469      2.557
REMARK  Name = 
REMARK  6 active torsions:
REMARK  status: ('A' for Active; 'I' for Inactive)
REMARK    1  A    between atoms: C_3  and  C_17
REMARK    2  A    between atoms: N_5  and  C1*_6
REMARK    3  A    between atoms: C2*_8  and  O2*_16
REMARK    4  A    between atoms: C3*_9  and  O3*_15
REMARK    5  A    between atoms: C4*_10  and  C5*_13
REMARK    6  A    between atoms: C5*_13  and  O5*_14
REMARK                            x       y       z     vdW  Elec       q    Type
REMARK                         _______ _______ _______ _____ _____    ______ ____
ROOT
ATOM      1  C1* UNL     1       8.950  -0.918  22.417  0.00  0.00    +0.270 C 
ATOM      2  O4* UNL     1      10.235  -0.434  22.867  0.00  0.00    -0.344 OA
ATOM      3  C4* UNL     1      10.185   1.017  22.791  0.00  0.00    +0.177 C 
ATOM      4  C3* UNL     1       8.763   1.387  22.321  0.00  0.00    +0.178 C 
ATOM      5  C2* UNL     1       7.946   0.181  22.766  0.00  0.00    +0.196 C 
ENDROOT
BRANCH   1   7
ATOM      6  C   UNL     1       9.383  -2.890  23.883  0.00  0.00    +0.223 A 
ATOM      7  N   UNL     1       8.675  -2.248  22.914  0.00  0.00    -0.220 N 
ATOM      8  N   UNL     1       7.710  -3.042  22.408  0.00  0.00    -0.142 NA
ATOM      9  C   UNL     1       7.835  -4.149  23.172  0.00  0.00    +0.236 A 
ATOM     10  N   UNL     1       8.886  -4.084  24.080  0.00  0.00    -0.211 NA
BRANCH   9  11
ATOM     11  C   UNL     1       6.972  -5.344  23.090  0.00  0.00    +0.281 C 
ATOM     12  N   UNL     1       7.170  -6.092  21.949  0.00  0.00    -0.323 N 
ATOM     13  H   UNL     1       6.638  -6.937  21.815  0.00  0.00    +0.145 HD
ATOM     14  H   UNL     1       7.864  -5.799  21.272  0.00  0.00    +0.145 HD
ATOM     15  O   UNL     1       6.148  -5.688  23.928  0.00  0.00    -0.267 OA
ENDBRANCH   9  11
ENDBRANCH   1   7
BRANCH   4  16
ATOM     16  O3* UNL     1       8.689   1.490  20.891  0.00  0.00    -0.386 OA
ATOM     17  H3* UNL     1       9.554   1.285  20.492  0.00  0.00    +0.210 HD
ENDBRANCH   4  16
BRANCH   5  18
ATOM     18  O2* UNL     1       7.660   0.320  24.161  0.00  0.00    -0.385 OA
ATOM     19  H2* UNL     1       8.038   1.172  24.475  0.00  0.00    +0.210 HD
ENDBRANCH   5  18
BRANCH   3  20
ATOM     20  C5* UNL     1      10.545   1.653  24.141  0.00  0.00    +0.190 C 
BRANCH  20  21
ATOM     21  O5* UNL     1      10.460   0.710  25.210  0.00  0.00    -0.392 OA
ATOM     22  H5* UNL     1      10.275   1.187  26.035  0.00  0.00    +0.210 HD
ENDBRANCH  20  21
ENDBRANCH   3  20
TORSDOF 6
ENDMDL
MODEL 9
REMARK VINA RESULT:      -5.4      1.820      2.173
REMARK  Name = 
REMARK  6 active torsions:
REMARK  status: ('A' for Active; 'I' for Inactive)
REMARK    1  A    between atoms: C_3  and  C_17
REMARK    2  A    between atoms: N_5  and  C1*_6
REMARK    3  A    between atoms: C2*_8  and  O2*_16
REMARK    4  A    between atoms: C3*_9  and  O3*_15
REMARK    5  A    between atoms: C4*_10  and  C5*_13
REMARK    6  A    between atoms: C5*_13  and  O5*_14
REMARK                            x       y       z     vdW  Elec       q    Type
REMARK                         _______ _______ _______ _____ _____    ______ ____
ROOT
ATOM      1  C1* UNL     1       9.281   0.148  23.433  0.00  0.00    +0.270 C 
ATOM      2  O4* UNL     1       8.210   1.009  23.879  0.00  0.00    -0.344 OA
ATOM      3  C4* UNL     1       8.600   2.368  23.540  0.00  0.00    +0.177 C 
ATOM      4  C3* UNL     1       9.953   2.271  22.806  0.00  0.00    +0.178 C 
ATOM      5  C2* UNL     1       9.919   0.858  22.239  0.00  0.00    +0.196 C 
ENDROOT
BRANCH   1   7
ATOM      6  C   UNL     1       9.449  -2.328  23.697  0.00  0.00    +0.223 A 
ATOM      7  N   UNL     1       8.827  -1.210  23.231  0.00  0.00    -0.220 N 
ATOM      8  N   UNL     1       7.752  -1.527  22.480  0.00  0.00    -0.142 NA
ATOM      9  C   UNL     1       7.728  -2.873  22.587  0.00  0.00    +0.236 A 
ATOM     10  N   UNL     1       8.789  -3.394  23.320  0.00  0.00    -0.211 NA
BRANCH   9  11
ATOM     11  C   UNL     1       6.704  -3.758  21.997  0.00  0.00    +0.281 C 
ATOM     12  N   UNL     1       7.101  -5.075  21.899  0.00  0.00    -0.323 N 
ATOM     13  H   UNL     1       6.460  -5.756  21.526  0.00  0.00    +0.145 HD
ATOM     14  H   UNL     1       8.020  -5.347  22.227  0.00  0.00    +0.145 HD
ATOM     15  O   UNL     1       5.593  -3.410  21.619  0.00  0.00    -0.267 OA
ENDBRANCH   9  11
ENDBRANCH   1   7
BRANCH   4  16
ATOM     16  O3* UNL     1      11.057   2.375  23.717  0.00  0.00    -0.386 OA
ATOM     17  H3* UNL     1      10.771   2.790  24.550  0.00  0.00    +0.210 HD
ENDBRANCH   4  16
BRANCH   5  18
ATOM     18  O2* UNL     1       9.126   0.868  21.047  0.00  0.00    -0.385 OA
ATOM     19  H2* UNL     1       8.177   0.815  21.302  0.00  0.00    +0.210 HD
ENDBRANCH   5  18
BRANCH   3  20
ATOM     20  C5* UNL     1       7.518   3.058  22.696  0.00  0.00    +0.190 C 
BRANCH  20  21
ATOM     21  O5* UNL     1       6.605   2.116  22.134  0.00  0.00    -0.392 OA
ATOM     22  H5* UNL     1       5.698   2.412  22.314  0.00  0.00    +0.210 HD
ENDBRANCH  20  21
ENDBRANCH   3  20
TORSDOF 6
ENDMDL
