MODEL 1
REMARK VINA RESULT:      -5.9      0.000      0.000
REMARK  Name = 
REMARK  3 active torsions:
REMARK  status: ('A' for Active; 'I' for Inactive)
REMARK    1  A    between atoms: C_3  and  N_10
REMARK    2  A    between atoms: C_6  and  C_8
REMARK    3  A    between atoms: C_8  and  O_9
REMARK                            x       y       z     vdW  Elec       q    Type
REMARK                         _______ _______ _______ _____ _____    ______ ____
ROOT
ATOM      1  N   UNL     1       8.568  -3.499  23.650  0.00  0.00    -0.273 N 
ATOM      2  C   UNL     1       7.827  -3.106  22.527  0.00  0.00    +0.352 A 
ATOM      3  O   UNL     1       6.814  -3.719  22.192  0.00  0.00    -0.244 OA
ATOM      4  N   UNL     1       8.261  -2.022  21.799  0.00  0.00    -0.178 NA
ATOM      5  C   UNL     1       9.359  -1.420  22.124  0.00  0.00    +0.123 A 
ATOM      6  N   UNL     1       9.751  -0.356  21.360  0.00  0.00    -0.343 N 
ATOM      7  H   UNL     1       9.000   0.010  20.784  0.00  0.00    +0.144 HD
ATOM      8  H   UNL     1      10.314   0.361  21.800  0.00  0.00    +0.144 HD
ATOM      9  C   UNL     1      10.190  -1.824  23.273  0.00  0.00    +0.061 A 
ATOM     10  C   UNL     1       9.733  -2.850  23.989  0.00  0.00    +0.096 A 
ENDROOT
BRANCH   1  14
ATOM     11  C   UNL     1       8.944  -4.629  26.601  0.00  0.00    +0.038 C 
ATOM     12  C   UNL     1       7.461  -4.298  26.612  0.00  0.00    +0.146 C 
ATOM     13  O   UNL     1       6.993  -4.337  25.246  0.00  0.00    -0.351 OA
ATOM     14  C   UNL     1       8.092  -4.673  24.378  0.00  0.00    +0.224 C 
ATOM     15  C   UNL     1       9.154  -5.305  25.268  0.00  0.00    +0.057 C 
BRANCH  12  16
ATOM     16  C   UNL     1       6.628  -5.259  27.460  0.00  0.00    +0.187 C 
BRANCH  16  17
ATOM     17  O   UNL     1       7.481  -6.213  28.093  0.00  0.00    -0.392 OA
ATOM     18  H   UNL     1       7.845  -6.762  27.372  0.00  0.00    +0.210 HD
ENDBRANCH  16  17
ENDBRANCH  12  16
ENDBRANCH   1  14
TORSDOF 3
ENDMDL
MODEL 2
REMARK VINA RESULT:      -5.9      2.540      3.509
REMARK  Name = 
REMARK  3 active torsions:
REMARK  status: ('A' for Active; 'I' for Inactive)
REMARK    1  A    between atoms: C_3  and  N_10
REMARK    2  A    between atoms: C_6  and  C_8
REMARK    3  A    between atoms: C_8  and  O_9
REMARK                            x       y       z     vdW  Elec       q    Type
REMARK                         _______ _______ _______ _____ _____    ______ ____
ROOT
ATOM      1  N   UNL     1       9.715  -1.069  23.762  0.00  0.00    -0.273 N 
ATOM      2  C   UNL     1      10.148   0.139  24.328  0.00  0.00    +0.352 A 
ATOM      3  O   UNL     1      10.383   0.223  25.533  0.00  0.00    -0.244 OA
ATOM      4  N   UNL     1      10.297   1.233  23.507  0.00  0.00    -0.178 NA
ATOM      5  C   UNL     1       9.990   1.150  22.253  0.00  0.00    +0.123 A 
ATOM      6  N   UNL     1      10.146   2.270  21.484  0.00  0.00    -0.343 N 
ATOM      7  H   UNL     1      10.737   2.968  21.925  0.00  0.00    +0.144 HD
ATOM      8  H   UNL     1      10.330   2.145  20.497  0.00  0.00    +0.144 HD
ATOM      9  C   UNL     1       9.494  -0.089  21.624  0.00  0.00    +0.061 A 
ATOM     10  C   UNL     1       9.395  -1.148  22.426  0.00  0.00    +0.096 A 
ENDROOT
BRANCH   1  14
ATOM     11  C   UNL     1       7.349  -3.097  24.406  0.00  0.00    +0.038 C 
ATOM     12  C   UNL     1       8.370  -4.040  23.791  0.00  0.00    +0.146 C 
ATOM     13  O   UNL     1       9.676  -3.452  23.977  0.00  0.00    -0.351 OA
ATOM     14  C   UNL     1       9.538  -2.199  24.672  0.00  0.00    +0.224 C 
ATOM     15  C   UNL     1       8.168  -2.233  25.335  0.00  0.00    +0.057 C 
BRANCH  12  16
ATOM     16  C   UNL     1       8.352  -5.441  24.401  0.00  0.00    +0.187 C 
BRANCH  16  17
ATOM     17  O   UNL     1       9.680  -5.838  24.742  0.00  0.00    -0.392 OA
ATOM     18  H   UNL     1      10.186  -5.010  24.848  0.00  0.00    +0.210 HD
ENDBRANCH  16  17
ENDBRANCH  12  16
ENDBRANCH   1  14
TORSDOF 3
ENDMDL
MODEL 3
REMARK VINA RESULT:      -5.7      2.715      5.534
REMARK  Name = 
REMARK  3 active torsions:
REMARK  status: ('A' for Active; 'I' for Inactive)
REMARK    1  A    between atoms: C_3  and  N_10
REMARK    2  A    between atoms: C_6  and  C_8
REMARK    3  A    between atoms: C_8  and  O_9
REMARK                            x       y       z     vdW  Elec       q    Type
REMARK                         _______ _______ _______ _____ _____    ______ ____
ROOT
ATOM      1  N   UNL     1       8.074  -2.905  23.171  0.00  0.00    -0.273 N 
ATOM      2  C   UNL     1       8.433  -4.144  23.720  0.00  0.00    +0.352 A 
ATOM      3  O   UNL     1       9.407  -4.246  24.465  0.00  0.00    -0.244 OA
ATOM      4  N   UNL     1       7.677  -5.248  23.401  0.00  0.00    -0.178 NA
ATOM      5  C   UNL     1       6.690  -5.141  22.571  0.00  0.00    +0.123 A 
ATOM      6  N   UNL     1       5.978  -6.272  22.279  0.00  0.00    -0.343 N 
ATOM      7  H   UNL     1       6.134  -7.017  22.951  0.00  0.00    +0.144 HD
ATOM      8  H   UNL     1       5.009  -6.165  22.008  0.00  0.00    +0.144 HD
ATOM      9  C   UNL     1       6.302  -3.866  21.939  0.00  0.00    +0.061 A 
ATOM     10  C   UNL     1       7.021  -2.801  22.290  0.00  0.00    +0.096 A 
ENDROOT
BRANCH   1  14
ATOM     11  C   UNL     1       9.615  -0.672  21.507  0.00  0.00    +0.038 C 
ATOM     12  C   UNL     1       8.573   0.174  22.219  0.00  0.00    +0.146 C 
ATOM     13  O   UNL     1       8.185  -0.527  23.421  0.00  0.00    -0.351 OA
ATOM     14  C   UNL     1       8.921  -1.763  23.507  0.00  0.00    +0.224 C 
ATOM     15  C   UNL     1      10.120  -1.605  22.582  0.00  0.00    +0.057 C 
BRANCH  12  16
ATOM     16  C   UNL     1       9.071   1.572  22.586  0.00  0.00    +0.187 C 
BRANCH  16  17
ATOM     17  O   UNL     1       9.887   2.089  21.536  0.00  0.00    -0.392 OA
ATOM     18  H   UNL     1      10.553   2.655  21.971  0.00  0.00    +0.210 HD
ENDBRANCH  16  17
ENDBRANCH  12  16
ENDBRANCH   1  14
TORSDOF 3
ENDMDL
MODEL 4
REMARK VINA RESULT:      -5.6      3.464      5.903
REMARK  Name = 
REMARK  3 active torsions:
REMARK  status: ('A' for Active; 'I' for Inactive)
REMARK    1  A    between atoms: C_3  and  N_10
REMARK    2  A    between atoms: C_6  and  C_8
REMARK    3  A    between atoms: C_8  and  O_9
REMARK                            x       y       z     vdW  Elec       q    Type
REMARK                         _______ _______ _______ _____ _____    ______ ____
ROOT
ATOM      1  N   UNL     1       8.959  -1.529  24.258  0.00  0.00    -0.273 N 
ATOM      2  C   UNL     1       9.758  -2.581  23.788  0.00  0.00    +0.352 A 
ATOM      3  O   UNL     1      10.366  -2.484  22.723  0.00  0.00    -0.244 OA
ATOM      4  N   UNL     1       9.842  -3.730  24.540  0.00  0.00    -0.178 NA
ATOM      5  C   UNL     1       9.152  -3.845  25.629  0.00  0.00    +0.123 A 
ATOM      6  N   UNL     1       9.263  -5.012  26.332  0.00  0.00    -0.343 N 
ATOM      7  H   UNL     1      10.078  -5.554  26.064  0.00  0.00    +0.144 HD
ATOM      8  H   UNL     1       9.106  -4.980  27.332  0.00  0.00    +0.144 HD
ATOM      9  C   UNL     1       8.268  -2.780  26.139  0.00  0.00    +0.061 A 
ATOM     10  C   UNL     1       8.231  -1.660  25.419  0.00  0.00    +0.096 A 
ENDROOT
BRANCH   1  14
ATOM     11  C   UNL     1       8.844   1.607  24.789  0.00  0.00    +0.038 C 
ATOM     12  C   UNL     1      10.189   1.486  24.092  0.00  0.00    +0.146 C 
ATOM     13  O   UNL     1      10.155   0.295  23.275  0.00  0.00    -0.351 OA
ATOM     14  C   UNL     1       8.870  -0.339  23.415  0.00  0.00    +0.224 C 
ATOM     15  C   UNL     1       7.932   0.726  23.968  0.00  0.00    +0.057 C 
BRANCH  12  16
ATOM     16  C   UNL     1      10.533   2.692  23.217  0.00  0.00    +0.187 C 
BRANCH  16  17
ATOM     17  O   UNL     1      10.325   2.369  21.842  0.00  0.00    -0.392 OA
ATOM     18  H   UNL     1       9.357   2.369  21.713  0.00  0.00    +0.210 HD
ENDBRANCH  16  17
ENDBRANCH  12  16
ENDBRANCH   1  14
TORSDOF 3
ENDMDL
MODEL 5
REMARK VINA RESULT:      -5.6      2.888      3.865
REMARK  Name = 
REMARK  3 active torsions:
REMARK  status: ('A' for Active; 'I' for Inactive)
REMARK    1  A    between atoms: C_3  and  N_10
REMARK    2  A    between atoms: C_6  and  C_8
REMARK    3  A    between atoms: C_8  and  O_9
REMARK                            x       y       z     vdW  Elec       q    Type
REMARK                         _______ _______ _______ _____ _____    ______ ____
ROOT
ATOM      1  N   UNL     1       8.337  -1.441  22.813  0.00  0.00    -0.273 N 
ATOM      2  C   UNL     1       9.698  -1.318  22.501  0.00  0.00    +0.352 A 
ATOM      3  O   UNL     1      10.459  -2.278  22.607  0.00  0.00    -0.244 OA
ATOM      4  N   UNL     1      10.168  -0.095  22.082  0.00  0.00    -0.178 NA
ATOM      5  C   UNL     1       9.371   0.924  22.030  0.00  0.00    +0.123 A 
ATOM      6  N   UNL     1       9.893   2.119  21.617  0.00  0.00    -0.343 N 
ATOM      7  H   UNL     1      10.783   2.014  21.142  0.00  0.00    +0.144 HD
ATOM      8  H   UNL     1       9.268   2.779  21.172  0.00  0.00    +0.144 HD
ATOM      9  C   UNL     1       7.942   0.849  22.387  0.00  0.00    +0.061 A 
ATOM     10  C   UNL     1       7.497  -0.352  22.752  0.00  0.00    +0.096 A 
ENDROOT
BRANCH   1  14
ATOM     11  C   UNL     1       5.547  -2.973  22.876  0.00  0.00    +0.038 C 
ATOM     12  C   UNL     1       6.327  -3.844  21.904  0.00  0.00    +0.146 C 
ATOM     13  O   UNL     1       7.732  -3.672  22.192  0.00  0.00    -0.351 OA
ATOM     14  C   UNL     1       7.883  -2.747  23.286  0.00  0.00    +0.224 C 
ATOM     15  C   UNL     1       6.532  -2.701  23.988  0.00  0.00    +0.057 C 
BRANCH  12  16
ATOM     16  C   UNL     1       5.969  -5.327  21.993  0.00  0.00    +0.187 C 
BRANCH  16  17
ATOM     17  O   UNL     1       7.146  -6.121  21.839  0.00  0.00    -0.392 OA
ATOM     18  H   UNL     1       7.829  -5.692  22.390  0.00  0.00    +0.210 HD
ENDBRANCH  16  17
ENDBRANCH  12  16
ENDBRANCH   1  14
TORSDOF 3
ENDMDL
MODEL 6
REMARK VINA RESULT:      -5.5      2.345      3.022
REMARK  Name = 
REMARK  3 active torsions:
REMARK  status: ('A' for Active; 'I' for Inactive)
REMARK    1  A    between atoms: C_3  and  N_10
REMARK    2  A    between atoms: C_6  and  C_8
REMARK    3  A    between atoms: C_8  and  O_9
REMARK                            x       y       z     vdW  Elec       q    Type
REMARK                         _______ _______ _______ _____ _____    ______ ____
ROOT
ATOM      1  N   UNL     1       9.184  -1.168  23.763  0.00  0.00    -0.273 N 
ATOM      2  C   UNL     1       9.953  -1.105  22.592  0.00  0.00    +0.352 A 
ATOM      3  O   UNL     1      10.881  -1.890  22.404  0.00  0.00    -0.244 OA
ATOM      4  N   UNL     1       9.653  -0.138  21.661  0.00  0.00    -0.178 NA
ATOM      5  C   UNL     1       8.713   0.720  21.895  0.00  0.00    +0.123 A 
ATOM      6  N   UNL     1       8.464   1.667  20.940  0.00  0.00    -0.343 N 
ATOM      7  H   UNL     1       8.863   1.428  20.038  0.00  0.00    +0.144 HD
ATOM      8  H   UNL     1       7.527   2.048  20.884  0.00  0.00    +0.144 HD
ATOM      9  C   UNL     1       7.906   0.715  23.129  0.00  0.00    +0.061 A 
ATOM     10  C   UNL     1       8.184  -0.252  24.002  0.00  0.00    +0.096 A 
ENDROOT
BRANCH   1  14
ATOM     11  C   UNL     1       7.625  -3.448  25.344  0.00  0.00    +0.038 C 
ATOM     12  C   UNL     1       8.533  -4.287  24.459  0.00  0.00    +0.146 C 
ATOM     13  O   UNL     1       9.683  -3.481  24.123  0.00  0.00    -0.351 OA
ATOM     14  C   UNL     1       9.554  -2.187  24.742  0.00  0.00    +0.224 C 
ATOM     15  C   UNL     1       8.531  -2.355  25.858  0.00  0.00    +0.057 C 
BRANCH  12  16
ATOM     16  C   UNL     1       8.999  -5.584  25.120  0.00  0.00    +0.187 C 
BRANCH  16  17
ATOM     17  O   UNL     1      10.407  -5.535  25.346  0.00  0.00    -0.392 OA
ATOM     18  H   UNL     1      10.579  -6.151  26.084  0.00  0.00    +0.210 HD
ENDBRANCH  16  17
ENDBRANCH  12  16
ENDBRANCH   1  14
TORSDOF 3
ENDMDL
MODEL 7
REMARK VINA RESULT:      -5.5      2.920      5.789
REMARK  Name = 
REMARK  3 active torsions:
REMARK  status: ('A' for Active; 'I' for Inactive)
REMARK    1  A    between atoms: C_3  and  N_10
REMARK    2  A    between atoms: C_6  and  C_8
REMARK    3  A    between atoms: C_8  and  O_9
REMARK                            x       y       z     vdW  Elec       q    Type
REMARK                         _______ _______ _______ _____ _____    ______ ____
ROOT
ATOM      1  N   UNL     1       8.882  -1.859  25.068  0.00  0.00    -0.273 N 
ATOM      2  C   UNL     1       8.148  -2.121  26.233  0.00  0.00    +0.352 A 
ATOM      3  O   UNL     1       7.648  -1.204  26.883  0.00  0.00    -0.244 OA
ATOM      4  N   UNL     1       8.005  -3.427  26.640  0.00  0.00    -0.178 NA
ATOM      5  C   UNL     1       8.584  -4.379  25.982  0.00  0.00    +0.123 A 
ATOM      6  N   UNL     1       8.419  -5.658  26.437  0.00  0.00    -0.343 N 
ATOM      7  H   UNL     1       7.642  -5.746  27.084  0.00  0.00    +0.144 HD
ATOM      8  H   UNL     1       8.475  -6.411  25.763  0.00  0.00    +0.144 HD
ATOM      9  C   UNL     1       9.398  -4.145  24.775  0.00  0.00    +0.061 A 
ATOM     10  C   UNL     1       9.492  -2.879  24.373  0.00  0.00    +0.096 A 
ENDROOT
BRANCH   1  14
ATOM     11  C   UNL     1      10.129  -0.326  22.573  0.00  0.00    +0.038 C 
ATOM     12  C   UNL     1       8.659   0.027  22.416  0.00  0.00    +0.146 C 
ATOM     13  O   UNL     1       8.044  -0.067  23.721  0.00  0.00    -0.351 OA
ATOM     14  C   UNL     1       9.039  -0.457  24.686  0.00  0.00    +0.224 C 
ATOM     15  C   UNL     1      10.388  -0.150  24.050  0.00  0.00    +0.057 C 
BRANCH  12  16
ATOM     16  C   UNL     1       8.425   1.426  21.846  0.00  0.00    +0.187 C 
BRANCH  16  17
ATOM     17  O   UNL     1       9.658   1.971  21.376  0.00  0.00    -0.392 OA
ATOM     18  H   UNL     1       9.592   1.974  20.401  0.00  0.00    +0.210 HD
ENDBRANCH  16  17
ENDBRANCH  12  16
ENDBRANCH   1  14
TORSDOF 3
ENDMDL
MODEL 8
REMARK VINA RESULT:      -5.4      1.938      2.382
REMARK  Name = 
REMARK  3 active torsions:
REMARK  status: ('A' for Active; 'I' for Inactive)
REMARK    1  A    between atoms: C_3  and  N_10
REMARK    2  A    between atoms: C_6  and  C_8
REMARK    3  A    between atoms: C_8  and  O_9
REMARK                            x       y       z     vdW  Elec       q    Type
REMARK                         _______ _______ _______ _____ _____    ______ ____
ROOT
ATOM      1  N   UNL     1       8.019  -1.461  23.212  0.00  0.00    -0.273 N 
ATOM      2  C   UNL     1       7.385  -0.215  23.307  0.00  0.00    +0.352 A 
ATOM      3  O   UNL     1       6.322  -0.092  23.914  0.00  0.00    -0.244 OA
ATOM      4  N   UNL     1       7.973   0.870  22.699  0.00  0.00    -0.178 NA
ATOM      5  C   UNL     1       9.061   0.719  22.014  0.00  0.00    +0.123 A 
ATOM      6  N   UNL     1       9.597   1.828  21.420  0.00  0.00    -0.343 N 
ATOM      7  H   UNL     1       9.231   2.694  21.804  0.00  0.00    +0.144 HD
ATOM      8  H   UNL     1      10.597   1.844  21.262  0.00  0.00    +0.144 HD
ATOM      9  C   UNL     1       9.740  -0.580  21.854  0.00  0.00    +0.061 A 
ATOM     10  C   UNL     1       9.177  -1.611  22.483  0.00  0.00    +0.096 A 
ENDROOT
BRANCH   1  14
ATOM     11  C   UNL     1       8.962  -4.230  24.467  0.00  0.00    +0.038 C 
ATOM     12  C   UNL     1       8.444  -3.518  25.707  0.00  0.00    +0.146 C 
ATOM     13  O   UNL     1       7.472  -2.541  25.277  0.00  0.00    -0.351 OA
ATOM     14  C   UNL     1       7.347  -2.595  23.843  0.00  0.00    +0.224 C 
ATOM     15  C   UNL     1       7.911  -3.945  23.421  0.00  0.00    +0.057 C 
BRANCH  12  16
ATOM     16  C   UNL     1       7.801  -4.459  26.726  0.00  0.00    +0.187 C 
BRANCH  16  17
ATOM     17  O   UNL     1       8.350  -5.770  26.591  0.00  0.00    -0.392 OA
ATOM     18  H   UNL     1       8.802  -5.780  25.725  0.00  0.00    +0.210 HD
ENDBRANCH  16  17
ENDBRANCH  12  16
ENDBRANCH   1  14
TORSDOF 3
ENDMDL
MODEL 9
REMARK VINA RESULT:      -5.4      2.597      5.347
REMARK  Name = 
REMARK  3 active torsions:
REMARK  status: ('A' for Active; 'I' for Inactive)
REMARK    1  A    between atoms: C_3  and  N_10
REMARK    2  A    between atoms: C_6  and  C_8
REMARK    3  A    between atoms: C_8  and  O_9
REMARK                            x       y       z     vdW  Elec       q    Type
REMARK                         _______ _______ _______ _____ _____    ______ ____
ROOT
ATOM      1  N   UNL     1       8.350  -2.922  23.192  0.00  0.00    -0.273 N 
ATOM      2  C   UNL     1       7.812  -4.207  23.035  0.00  0.00    +0.352 A 
ATOM      3  O   UNL     1       6.931  -4.425  22.205  0.00  0.00    -0.244 OA
ATOM      4  N   UNL     1       8.284  -5.220  23.837  0.00  0.00    -0.178 NA
ATOM      5  C   UNL     1       9.168  -4.968  24.748  0.00  0.00    +0.123 A 
ATOM      6  N   UNL     1       9.595  -6.009  25.526  0.00  0.00    -0.343 N 
ATOM      7  H   UNL     1       9.369  -6.914  25.126  0.00  0.00    +0.144 HD
ATOM      8  H   UNL     1      10.528  -5.957  25.916  0.00  0.00    +0.144 HD
ATOM      9  C   UNL     1       9.732  -3.624  24.974  0.00  0.00    +0.061 A 
ATOM     10  C   UNL     1       9.292  -2.665  24.162  0.00  0.00    +0.096 A 
ENDROOT
BRANCH   1  14
ATOM     11  C   UNL     1       7.468   0.103  23.642  0.00  0.00    +0.038 C 
ATOM     12  C   UNL     1       8.660   0.290  22.718  0.00  0.00    +0.146 C 
ATOM     13  O   UNL     1       8.819  -0.927  21.956  0.00  0.00    -0.351 OA
ATOM     14  C   UNL     1       7.799  -1.867  22.345  0.00  0.00    +0.224 C 
ATOM     15  C   UNL     1       6.710  -1.049  23.026  0.00  0.00    +0.057 C 
BRANCH  12  16
ATOM     16  C   UNL     1       8.509   1.472  21.760  0.00  0.00    +0.187 C 
BRANCH  16  17
ATOM     17  O   UNL     1       9.796   1.990  21.423  0.00  0.00    -0.392 OA
ATOM     18  H   UNL     1      10.442   1.403  21.861  0.00  0.00    +0.210 HD
ENDBRANCH  16  17
ENDBRANCH  12  16
ENDBRANCH   1  14
TORSDOF 3
ENDMDL
