MODEL 1
REMARK VINA RESULT:      -6.4      0.000      0.000
REMARK  Name = 
REMARK  24 active torsions:
REMARK  status: ('A' for Active; 'I' for Inactive)
REMARK    1  A    between atoms: C_1  and  C_2
REMARK    2  A    between atoms: C_2  and  C_3
REMARK    3  A    between atoms: C_2  and  C_4
REMARK    4  A    between atoms: C_6  and  C_9
REMARK    5  A    between atoms: C_9  and  N_10
REMARK    6  A    between atoms: N_10  and  C_11
REMARK    7  A    between atoms: N_14  and  C_15
REMARK    8  A    between atoms: C_15  and  C_16
REMARK    9  A    between atoms: C_15  and  C_19
REMARK   10  A    between atoms: C_16  and  C_17
REMARK   11  A    between atoms: C_16  and  C_18
REMARK   12  A    between atoms: N_21  and  C_22
REMARK   13  A    between atoms: C_22  and  C_24
REMARK   14  A    between atoms: C_22  and  C_31
REMARK   15  A    between atoms: C_24  and  C_25
REMARK   16  A    between atoms: C_31  and  C_32
REMARK   17  A    between atoms: C_32  and  C_34
REMARK   18  A    between atoms: C_32  and  O_53
REMARK   19  A    between atoms: C_34  and  C_36
REMARK   20  A    between atoms: C_34  and  N_43
REMARK   21  A    between atoms: C_36  and  C_37
REMARK   22  A    between atoms: C_44  and  O_46
REMARK   23  A    between atoms: O_46  and  C_47
REMARK   24  A    between atoms: C_47  and  C_48
REMARK                            x       y       z     vdW  Elec       q    Type
REMARK                         _______ _______ _______ _____ _____    ______ ____
ROOT
ATOM      1  C   UNL     1       9.326  -2.411  24.297  0.00  0.00    +0.080 C 
ENDROOT
BRANCH   1   3
ATOM      2  C   UNL     1       8.239  -4.711  24.018  0.00  0.00    +0.234 C 
ATOM      3  N   UNL     1       8.275  -3.339  23.861  0.00  0.00    -0.311 N 
ATOM      4  H   UNL     1       7.340  -2.970  23.957  0.00  0.00    +0.149 HD
ATOM      5  O   UNL     1       9.175  -5.414  24.380  0.00  0.00    -0.274 OA
BRANCH   2   6
ATOM      6  C   UNL     1       6.949  -5.345  23.431  0.00  0.00    +0.163 C 
BRANCH   6   9
ATOM      7  N   UNL     1       4.351  -5.304  26.117  0.00  0.00    -0.283 N 
ATOM      8  C   UNL     1       5.585  -5.570  25.540  0.00  0.00    +0.303 C 
ATOM      9  N   UNL     1       5.746  -5.053  24.263  0.00  0.00    -0.288 N 
ATOM     10  H   UNL     1       4.892  -5.077  23.732  0.00  0.00    +0.151 HD
ATOM     11  O   UNL     1       6.517  -6.090  26.139  0.00  0.00    -0.253 OA
ATOM     12  C   UNL     1       3.170  -4.916  25.364  0.00  0.00    +0.134 C 
BRANCH   7  13
ATOM     13  C   UNL     1       4.148  -5.638  27.537  0.00  0.00    +0.164 C 
BRANCH  13  17
ATOM     14  C   UNL     1       3.930  -2.242  28.897  0.00  0.00    +0.081 A 
ATOM     15  S   UNL     1       3.022  -2.854  30.225  0.00  0.00    -0.080 S 
ATOM     16  C   UNL     1       3.173  -4.437  29.594  0.00  0.00    +0.071 A 
ATOM     17  C   UNL     1       3.911  -4.433  28.423  0.00  0.00    +0.066 A 
ATOM     18  N   UNL     1       4.332  -3.155  28.031  0.00  0.00    -0.247 NA
BRANCH  14  20
ATOM     19  C   UNL     1       3.664  -0.190  27.486  0.00  0.00    +0.014 C 
ATOM     20  C   UNL     1       4.193  -0.755  28.803  0.00  0.00    +0.038 C 
ATOM     21  C   UNL     1       3.593   0.000  29.987  0.00  0.00    +0.014 C 
ENDBRANCH  14  20
ENDBRANCH  13  17
ENDBRANCH   7  13
ENDBRANCH   6   9
BRANCH   6  22
ATOM     22  C   UNL     1       6.767  -4.750  21.988  0.00  0.00    +0.012 C 
ATOM     23  C   UNL     1       5.806  -3.560  21.942  0.00  0.00    +0.009 C 
ATOM     24  C   UNL     1       6.303  -5.791  20.953  0.00  0.00    +0.009 C 
ENDBRANCH   6  22
ENDBRANCH   2   6
ENDBRANCH   1   3
BRANCH   1  25
ATOM     25  C   UNL     1       8.750  -1.369  25.306  0.00  0.00    +0.055 C 
BRANCH  25  26
ATOM     26  C   UNL     1       7.227  -1.073  25.238  0.00  0.00    +0.137 C 
BRANCH  26  27
ATOM     27  O   UNL     1       6.543  -2.038  26.051  0.00  0.00    -0.390 OA
ATOM     28  H   UNL     1       5.811  -1.594  26.531  0.00  0.00    +0.210 HD
ENDBRANCH  26  27
BRANCH  26  29
ATOM     29  C   UNL     1       6.830   0.376  25.632  0.00  0.00    +0.109 C 
BRANCH  29  30
ATOM     30  N   UNL     1       6.714   1.249  24.464  0.00  0.00    -0.275 N 
ATOM     31  H   UNL     1       7.521   1.419  23.890  0.00  0.00    +0.152 HD
ATOM     32  C   UNL     1       5.576   1.813  24.004  0.00  0.00    +0.401 C 
ATOM     33  O   UNL     1       4.500   1.800  24.598  0.00  0.00    -0.226 OA
BRANCH  32  34
ATOM     34  O   UNL     1       5.825   2.406  22.815  0.00  0.00    -0.445 OA
BRANCH  34  35
ATOM     35  C   UNL     1       5.306   3.736  22.681  0.00  0.00    +0.278 C 
BRANCH  35  36
ATOM     36  C   UNL     1       6.390   4.707  22.996  0.00  0.00    +0.046 A 
ATOM     37  S   UNL     1       6.684   5.250  24.598  0.00  0.00    -0.077 S 
ATOM     38  C   UNL     1       7.966   6.228  24.012  0.00  0.00    +0.156 A 
ATOM     39  N   UNL     1       8.186   6.184  22.717  0.00  0.00    -0.255 NA
ATOM     40  C   UNL     1       7.292   5.307  22.139  0.00  0.00    +0.125 A 
ENDBRANCH  35  36
ENDBRANCH  34  35
ENDBRANCH  32  34
ENDBRANCH  29  30
BRANCH  29  41
ATOM     41  C   UNL     1       7.699   0.996  26.755  0.00  0.00    +0.060 C 
BRANCH  41  42
ATOM     42  C   UNL     1       6.942   1.685  27.885  0.00  0.00    -0.046 A 
ATOM     43  C   UNL     1       7.233   1.334  29.209  0.00  0.00    +0.004 A 
ATOM     44  C   UNL     1       6.612   1.979  30.283  0.00  0.00    +0.000 A 
ATOM     45  C   UNL     1       5.698   3.005  30.050  0.00  0.00    +0.000 A 
ATOM     46  C   UNL     1       5.382   3.357  28.746  0.00  0.00    +0.000 A 
ATOM     47  C   UNL     1       5.977   2.684  27.682  0.00  0.00    +0.004 A 
ENDBRANCH  41  42
ENDBRANCH  29  41
ENDBRANCH  26  29
ENDBRANCH  25  26
ENDBRANCH   1  25
BRANCH   1  48
ATOM     48  C   UNL     1      10.080  -1.745  23.115  0.00  0.00    +0.057 C 
BRANCH  48  49
ATOM     49  C   UNL     1       9.975  -0.246  23.093  0.00  0.00    -0.046 A 
ATOM     50  C   UNL     1      10.672   0.519  24.042  0.00  0.00    +0.004 A 
ATOM     51  C   UNL     1      10.729   1.899  23.915  0.00  0.00    +0.000 A 
ATOM     52  C   UNL     1      10.065   2.530  22.860  0.00  0.00    +0.000 A 
ATOM     53  C   UNL     1       9.312   1.782  21.959  0.00  0.00    +0.000 A 
ATOM     54  C   UNL     1       9.262   0.395  22.076  0.00  0.00    +0.004 A 
ENDBRANCH  48  49
ENDBRANCH   1  48
TORSDOF 19
ENDMDL
MODEL 2
REMARK VINA RESULT:      -6.3      2.871      9.488
REMARK  Name = 
REMARK  24 active torsions:
REMARK  status: ('A' for Active; 'I' for Inactive)
REMARK    1  A    between atoms: C_1  and  C_2
REMARK    2  A    between atoms: C_2  and  C_3
REMARK    3  A    between atoms: C_2  and  C_4
REMARK    4  A    between atoms: C_6  and  C_9
REMARK    5  A    between atoms: C_9  and  N_10
REMARK    6  A    between atoms: N_10  and  C_11
REMARK    7  A    between atoms: N_14  and  C_15
REMARK    8  A    between atoms: C_15  and  C_16
REMARK    9  A    between atoms: C_15  and  C_19
REMARK   10  A    between atoms: C_16  and  C_17
REMARK   11  A    between atoms: C_16  and  C_18
REMARK   12  A    between atoms: N_21  and  C_22
REMARK   13  A    between atoms: C_22  and  C_24
REMARK   14  A    between atoms: C_22  and  C_31
REMARK   15  A    between atoms: C_24  and  C_25
REMARK   16  A    between atoms: C_31  and  C_32
REMARK   17  A    between atoms: C_32  and  C_34
REMARK   18  A    between atoms: C_32  and  O_53
REMARK   19  A    between atoms: C_34  and  C_36
REMARK   20  A    between atoms: C_34  and  N_43
REMARK   21  A    between atoms: C_36  and  C_37
REMARK   22  A    between atoms: C_44  and  O_46
REMARK   23  A    between atoms: O_46  and  C_47
REMARK   24  A    between atoms: C_47  and  C_48
REMARK                            x       y       z     vdW  Elec       q    Type
REMARK                         _______ _______ _______ _____ _____    ______ ____
ROOT
ATOM      1  C   UNL     1       6.143  -0.538  26.404  0.00  0.00    +0.080 C 
ENDROOT
BRANCH   1   3
ATOM      2  C   UNL     1       5.039   1.746  26.066  0.00  0.00    +0.234 C 
ATOM      3  N   UNL     1       5.954   0.896  26.657  0.00  0.00    -0.311 N 
ATOM      4  H   UNL     1       6.072   1.158  27.625  0.00  0.00    +0.149 HD
ATOM      5  O   UNL     1       4.354   1.488  25.084  0.00  0.00    -0.274 OA
BRANCH   2   6
ATOM      6  C   UNL     1       5.139   3.198  26.607  0.00  0.00    +0.163 C 
BRANCH   6   9
ATOM      7  N   UNL     1       7.270   5.731  24.873  0.00  0.00    -0.283 N 
ATOM      8  C   UNL     1       6.926   4.807  25.850  0.00  0.00    +0.303 C 
ATOM      9  N   UNL     1       5.739   4.132  25.611  0.00  0.00    -0.288 N 
ATOM     10  H   UNL     1       5.053   4.716  25.163  0.00  0.00    +0.151 HD
ATOM     11  O   UNL     1       7.661   4.495  26.777  0.00  0.00    -0.253 OA
ATOM     12  C   UNL     1       6.329   6.288  23.915  0.00  0.00    +0.134 C 
BRANCH   7  13
ATOM     13  C   UNL     1       8.601   6.360  24.930  0.00  0.00    +0.164 C 
BRANCH  13  17
ATOM     14  C   UNL     1      10.551   3.627  23.462  0.00  0.00    +0.081 A 
ATOM     15  S   UNL     1      11.911   4.678  23.364  0.00  0.00    -0.080 S 
ATOM     16  C   UNL     1      10.994   5.926  24.090  0.00  0.00    +0.071 A 
ATOM     17  C   UNL     1       9.715   5.490  24.386  0.00  0.00    +0.066 A 
ATOM     18  N   UNL     1       9.474   4.163  24.008  0.00  0.00    -0.247 NA
BRANCH  14  20
ATOM     19  C   UNL     1      10.707   1.204  24.076  0.00  0.00    +0.014 C 
ATOM     20  C   UNL     1      10.666   2.215  22.932  0.00  0.00    +0.038 C 
ATOM     21  C   UNL     1       9.531   1.880  21.966  0.00  0.00    +0.014 C 
ENDBRANCH  14  20
ENDBRANCH  13  17
ENDBRANCH   7  13
ENDBRANCH   6   9
BRANCH   6  22
ATOM     22  C   UNL     1       3.677   3.652  26.961  0.00  0.00    +0.012 C 
ATOM     23  C   UNL     1       3.105   4.673  25.975  0.00  0.00    +0.009 C 
ATOM     24  C   UNL     1       3.542   4.222  28.385  0.00  0.00    +0.009 C 
ENDBRANCH   6  22
ENDBRANCH   2   6
ENDBRANCH   1   3
BRANCH   1  25
ATOM     25  C   UNL     1       5.304  -1.385  27.411  0.00  0.00    +0.055 C 
BRANCH  25  26
ATOM     26  C   UNL     1       3.944  -1.946  26.916  0.00  0.00    +0.137 C 
BRANCH  26  27
ATOM     27  O   UNL     1       3.099  -0.839  26.567  0.00  0.00    -0.390 OA
ATOM     28  H   UNL     1       3.553  -0.284  25.898  0.00  0.00    +0.210 HD
ENDBRANCH  26  27
BRANCH  26  29
ATOM     29  C   UNL     1       4.049  -2.962  25.745  0.00  0.00    +0.109 C 
BRANCH  29  30
ATOM     30  N   UNL     1       2.825  -3.744  25.587  0.00  0.00    -0.275 N 
ATOM     31  H   UNL     1       2.236  -3.589  24.787  0.00  0.00    +0.152 HD
ATOM     32  C   UNL     1       2.417  -4.753  26.389  0.00  0.00    +0.401 C 
ATOM     33  O   UNL     1       2.942  -5.050  27.460  0.00  0.00    -0.226 OA
BRANCH  32  34
ATOM     34  O   UNL     1       1.337  -5.349  25.836  0.00  0.00    -0.445 OA
BRANCH  34  35
ATOM     35  C   UNL     1       1.526  -6.722  25.466  0.00  0.00    +0.278 C 
BRANCH  35  36
ATOM     36  C   UNL     1       1.123  -6.894  24.043  0.00  0.00    +0.046 A 
ATOM     37  S   UNL     1       1.058  -8.440  23.300  0.00  0.00    -0.077 S 
ATOM     38  C   UNL     1       0.559  -7.696  21.837  0.00  0.00    +0.156 A 
ATOM     39  N   UNL     1       0.443  -6.386  21.861  0.00  0.00    -0.255 NA
ATOM     40  C   UNL     1       0.756  -5.931  23.124  0.00  0.00    +0.125 A 
ENDBRANCH  35  36
ENDBRANCH  34  35
ENDBRANCH  32  34
ENDBRANCH  29  30
BRANCH  29  41
ATOM     41  C   UNL     1       5.322  -3.846  25.776  0.00  0.00    +0.060 C 
BRANCH  41  42
ATOM     42  C   UNL     1       5.896  -4.242  24.421  0.00  0.00    -0.046 A 
ATOM     43  C   UNL     1       5.308  -3.729  23.258  0.00  0.00    +0.004 A 
ATOM     44  C   UNL     1       5.833  -4.012  21.994  0.00  0.00    +0.000 A 
ATOM     45  C   UNL     1       6.975  -4.802  21.872  0.00  0.00    +0.000 A 
ATOM     46  C   UNL     1       7.564  -5.335  23.008  0.00  0.00    +0.000 A 
ATOM     47  C   UNL     1       7.012  -5.078  24.261  0.00  0.00    +0.004 A 
ENDBRANCH  41  42
ENDBRANCH  29  41
ENDBRANCH  26  29
ENDBRANCH  25  26
ENDBRANCH   1  25
BRANCH   1  48
ATOM     48  C   UNL     1       7.637  -0.958  26.368  0.00  0.00    +0.057 C 
BRANCH  48  49
ATOM     49  C   UNL     1       8.117  -1.383  25.009  0.00  0.00    -0.046 A 
ATOM     50  C   UNL     1       7.466  -0.912  23.856  0.00  0.00    +0.004 A 
ATOM     51  C   UNL     1       8.014  -1.149  22.605  0.00  0.00    +0.000 A 
ATOM     52  C   UNL     1       9.196  -1.884  22.488  0.00  0.00    +0.000 A 
ATOM     53  C   UNL     1       9.804  -2.416  23.621  0.00  0.00    +0.000 A 
ATOM     54  C   UNL     1       9.265  -2.170  24.882  0.00  0.00    +0.004 A 
ENDBRANCH  48  49
ENDBRANCH   1  48
TORSDOF 19
ENDMDL
MODEL 3
REMARK VINA RESULT:      -6.2      2.594      6.964
REMARK  Name = 
REMARK  24 active torsions:
REMARK  status: ('A' for Active; 'I' for Inactive)
REMARK    1  A    between atoms: C_1  and  C_2
REMARK    2  A    between atoms: C_2  and  C_3
REMARK    3  A    between atoms: C_2  and  C_4
REMARK    4  A    between atoms: C_6  and  C_9
REMARK    5  A    between atoms: C_9  and  N_10
REMARK    6  A    between atoms: N_10  and  C_11
REMARK    7  A    between atoms: N_14  and  C_15
REMARK    8  A    between atoms: C_15  and  C_16
REMARK    9  A    between atoms: C_15  and  C_19
REMARK   10  A    between atoms: C_16  and  C_17
REMARK   11  A    between atoms: C_16  and  C_18
REMARK   12  A    between atoms: N_21  and  C_22
REMARK   13  A    between atoms: C_22  and  C_24
REMARK   14  A    between atoms: C_22  and  C_31
REMARK   15  A    between atoms: C_24  and  C_25
REMARK   16  A    between atoms: C_31  and  C_32
REMARK   17  A    between atoms: C_32  and  C_34
REMARK   18  A    between atoms: C_32  and  O_53
REMARK   19  A    between atoms: C_34  and  C_36
REMARK   20  A    between atoms: C_34  and  N_43
REMARK   21  A    between atoms: C_36  and  C_37
REMARK   22  A    between atoms: C_44  and  O_46
REMARK   23  A    between atoms: O_46  and  C_47
REMARK   24  A    between atoms: C_47  and  C_48
REMARK                            x       y       z     vdW  Elec       q    Type
REMARK                         _______ _______ _______ _____ _____    ______ ____
ROOT
ATOM      1  C   UNL     1       9.330   1.175  23.366  0.00  0.00    +0.080 C 
ENDROOT
BRANCH   1   3
ATOM      2  C   UNL     1       6.836   1.749  23.354  0.00  0.00    +0.234 C 
ATOM      3  N   UNL     1       8.044   1.523  23.984  0.00  0.00    -0.311 N 
ATOM      4  H   UNL     1       7.876   1.057  24.865  0.00  0.00    +0.149 HD
ATOM      5  O   UNL     1       6.674   1.888  22.148  0.00  0.00    -0.274 OA
BRANCH   2   6
ATOM      6  C   UNL     1       5.695   2.083  24.353  0.00  0.00    +0.163 C 
BRANCH   6   9
ATOM      7  N   UNL     1       4.975   0.333  27.576  0.00  0.00    -0.283 N 
ATOM      8  C   UNL     1       4.685   0.959  26.371  0.00  0.00    +0.303 C 
ATOM      9  N   UNL     1       5.797   1.290  25.612  0.00  0.00    -0.288 N 
ATOM     10  H   UNL     1       6.578   1.567  26.183  0.00  0.00    +0.151 HD
ATOM     11  O   UNL     1       3.550   1.088  25.930  0.00  0.00    -0.253 OA
ATOM     12  C   UNL     1       6.275   0.385  28.224  0.00  0.00    +0.134 C 
BRANCH   7  13
ATOM     13  C   UNL     1       3.867  -0.232  28.364  0.00  0.00    +0.164 C 
BRANCH  13  17
ATOM     14  C   UNL     1       3.563  -3.858  28.799  0.00  0.00    +0.081 A 
ATOM     15  S   UNL     1       2.880  -3.969  27.222  0.00  0.00    -0.080 S 
ATOM     16  C   UNL     1       3.071  -2.280  27.025  0.00  0.00    +0.071 A 
ATOM     17  C   UNL     1       3.653  -1.715  28.146  0.00  0.00    +0.066 A 
ATOM     18  N   UNL     1       3.921  -2.640  29.164  0.00  0.00    -0.247 NA
BRANCH  14  20
ATOM     19  C   UNL     1       3.510  -6.362  28.783  0.00  0.00    +0.014 C 
ATOM     20  C   UNL     1       3.697  -5.110  29.638  0.00  0.00    +0.038 C 
ATOM     21  C   UNL     1       5.038  -5.159  30.368  0.00  0.00    +0.014 C 
ENDBRANCH  14  20
ENDBRANCH  13  17
ENDBRANCH   7  13
ENDBRANCH   6   9
BRANCH   6  22
ATOM     22  C   UNL     1       5.802   3.618  24.668  0.00  0.00    +0.012 C 
ATOM     23  C   UNL     1       6.332   3.911  26.074  0.00  0.00    +0.009 C 
ATOM     24  C   UNL     1       4.475   4.374  24.481  0.00  0.00    +0.009 C 
ENDBRANCH   6  22
ENDBRANCH   2   6
ENDBRANCH   1   3
BRANCH   1  25
ATOM     25  C   UNL     1       9.517  -0.374  23.328  0.00  0.00    +0.055 C 
BRANCH  25  26
ATOM     26  C   UNL     1       8.720  -1.164  22.255  0.00  0.00    +0.137 C 
BRANCH  26  27
ATOM     27  O   UNL     1       9.393  -1.020  20.996  0.00  0.00    -0.390 OA
ATOM     28  H   UNL     1       8.734  -0.815  20.299  0.00  0.00    +0.210 HD
ENDBRANCH  26  27
BRANCH  26  29
ATOM     29  C   UNL     1       8.483  -2.661  22.596  0.00  0.00    +0.109 C 
BRANCH  29  30
ATOM     30  N   UNL     1       7.061  -2.997  22.626  0.00  0.00    -0.275 N 
ATOM     31  H   UNL     1       6.406  -2.350  23.030  0.00  0.00    +0.152 HD
ATOM     32  C   UNL     1       6.491  -4.093  22.077  0.00  0.00    +0.401 C 
ATOM     33  O   UNL     1       7.114  -5.044  21.609  0.00  0.00    -0.226 OA
BRANCH  32  34
ATOM     34  O   UNL     1       5.146  -3.977  22.152  0.00  0.00    -0.445 OA
BRANCH  34  35
ATOM     35  C   UNL     1       4.612  -3.976  23.483  0.00  0.00    +0.278 C 
BRANCH  35  36
ATOM     36  C   UNL     1       3.771  -5.192  23.661  0.00  0.00    +0.046 A 
ATOM     37  S   UNL     1       4.403  -6.641  24.332  0.00  0.00    -0.077 S 
ATOM     38  C   UNL     1       2.864  -7.377  24.145  0.00  0.00    +0.156 A 
ATOM     39  N   UNL     1       1.922  -6.628  23.617  0.00  0.00    -0.255 NA
ATOM     40  C   UNL     1       2.439  -5.377  23.350  0.00  0.00    +0.125 A 
ENDBRANCH  35  36
ENDBRANCH  34  35
ENDBRANCH  32  34
ENDBRANCH  29  30
BRANCH  29  41
ATOM     41  C   UNL     1       9.240  -3.160  23.853  0.00  0.00    +0.060 C 
BRANCH  41  42
ATOM     42  C   UNL     1       8.373  -3.638  25.012  0.00  0.00    -0.046 A 
ATOM     43  C   UNL     1       7.666  -2.693  25.766  0.00  0.00    +0.004 A 
ATOM     44  C   UNL     1       6.810  -3.083  26.799  0.00  0.00    +0.000 A 
ATOM     45  C   UNL     1       6.630  -4.435  27.086  0.00  0.00    +0.000 A 
ATOM     46  C   UNL     1       7.333  -5.388  26.365  0.00  0.00    +0.000 A 
ATOM     47  C   UNL     1       8.214  -4.988  25.362  0.00  0.00    +0.004 A 
ENDBRANCH  41  42
ENDBRANCH  29  41
ENDBRANCH  26  29
ENDBRANCH  25  26
ENDBRANCH   1  25
BRANCH   1  48
ATOM     48  C   UNL     1      10.535   1.907  24.016  0.00  0.00    +0.057 C 
BRANCH  48  49
ATOM     49  C   UNL     1      10.551   3.389  23.771  0.00  0.00    -0.046 A 
ATOM     50  C   UNL     1       9.407   4.158  24.044  0.00  0.00    +0.004 A 
ATOM     51  C   UNL     1       9.473   5.542  23.998  0.00  0.00    +0.000 A 
ATOM     52  C   UNL     1      10.669   6.172  23.647  0.00  0.00    +0.000 A 
ATOM     53  C   UNL     1      11.785   5.414  23.303  0.00  0.00    +0.000 A 
ATOM     54  C   UNL     1      11.728   4.023  23.361  0.00  0.00    +0.004 A 
ENDBRANCH  48  49
ENDBRANCH   1  48
TORSDOF 19
ENDMDL
MODEL 4
REMARK VINA RESULT:      -6.2      2.459      4.537
REMARK  Name = 
REMARK  24 active torsions:
REMARK  status: ('A' for Active; 'I' for Inactive)
REMARK    1  A    between atoms: C_1  and  C_2
REMARK    2  A    between atoms: C_2  and  C_3
REMARK    3  A    between atoms: C_2  and  C_4
REMARK    4  A    between atoms: C_6  and  C_9
REMARK    5  A    between atoms: C_9  and  N_10
REMARK    6  A    between atoms: N_10  and  C_11
REMARK    7  A    between atoms: N_14  and  C_15
REMARK    8  A    between atoms: C_15  and  C_16
REMARK    9  A    between atoms: C_15  and  C_19
REMARK   10  A    between atoms: C_16  and  C_17
REMARK   11  A    between atoms: C_16  and  C_18
REMARK   12  A    between atoms: N_21  and  C_22
REMARK   13  A    between atoms: C_22  and  C_24
REMARK   14  A    between atoms: C_22  and  C_31
REMARK   15  A    between atoms: C_24  and  C_25
REMARK   16  A    between atoms: C_31  and  C_32
REMARK   17  A    between atoms: C_32  and  C_34
REMARK   18  A    between atoms: C_32  and  O_53
REMARK   19  A    between atoms: C_34  and  C_36
REMARK   20  A    between atoms: C_34  and  N_43
REMARK   21  A    between atoms: C_36  and  C_37
REMARK   22  A    between atoms: C_44  and  O_46
REMARK   23  A    between atoms: O_46  and  C_47
REMARK   24  A    between atoms: C_47  and  C_48
REMARK                            x       y       z     vdW  Elec       q    Type
REMARK                         _______ _______ _______ _____ _____    ______ ____
ROOT
ATOM      1  C   UNL     1       8.764  -2.442  24.403  0.00  0.00    +0.080 C 
ENDROOT
BRANCH   1   3
ATOM      2  C   UNL     1       7.246  -4.501  24.480  0.00  0.00    +0.234 C 
ATOM      3  N   UNL     1       7.858  -3.446  23.831  0.00  0.00    -0.311 N 
ATOM      4  H   UNL     1       7.228  -3.076  23.134  0.00  0.00    +0.149 HD
ATOM      5  O   UNL     1       7.510  -4.895  25.610  0.00  0.00    -0.274 OA
BRANCH   2   6
ATOM      6  C   UNL     1       6.345  -5.341  23.536  0.00  0.00    +0.163 C 
BRANCH   6   9
ATOM      7  N   UNL     1       2.774  -6.111  24.327  0.00  0.00    -0.283 N 
ATOM      8  C   UNL     1       4.122  -6.376  24.124  0.00  0.00    +0.303 C 
ATOM      9  N   UNL     1       4.902  -5.251  23.903  0.00  0.00    -0.288 N 
ATOM     10  H   UNL     1       4.412  -4.544  23.380  0.00  0.00    +0.151 HD
ATOM     11  O   UNL     1       4.625  -7.483  24.264  0.00  0.00    -0.253 OA
ATOM     12  C   UNL     1       2.122  -4.873  23.934  0.00  0.00    +0.134 C 
BRANCH   7  13
ATOM     13  C   UNL     1       1.895  -7.210  24.760  0.00  0.00    +0.164 C 
BRANCH  13  17
ATOM     14  C   UNL     1       2.159  -6.717  28.382  0.00  0.00    +0.081 A 
ATOM     15  S   UNL     1       0.964  -7.934  28.614  0.00  0.00    -0.080 S 
ATOM     16  C   UNL     1       0.888  -8.177  26.922  0.00  0.00    +0.071 A 
ATOM     17  C   UNL     1       1.775  -7.344  26.264  0.00  0.00    +0.066 A 
ATOM     18  N   UNL     1       2.494  -6.501  27.123  0.00  0.00    -0.247 NA
BRANCH  14  20
ATOM     19  C   UNL     1       4.246  -6.108  29.626  0.00  0.00    +0.014 C 
ATOM     20  C   UNL     1       2.723  -5.994  29.585  0.00  0.00    +0.038 C 
ATOM     21  C   UNL     1       2.297  -4.527  29.613  0.00  0.00    +0.014 C 
ENDBRANCH  14  20
ENDBRANCH  13  17
ENDBRANCH   7  13
ENDBRANCH   6   9
BRANCH   6  22
ATOM     22  C   UNL     1       6.569  -4.788  22.083  0.00  0.00    +0.012 C 
ATOM     23  C   UNL     1       5.606  -3.659  21.709  0.00  0.00    +0.009 C 
ATOM     24  C   UNL     1       6.489  -5.875  20.996  0.00  0.00    +0.009 C 
ENDBRANCH   6  22
ENDBRANCH   2   6
ENDBRANCH   1   3
BRANCH   1  25
ATOM     25  C   UNL     1       7.954  -1.236  24.971  0.00  0.00    +0.055 C 
BRANCH  25  26
ATOM     26  C   UNL     1       6.738  -0.737  24.145  0.00  0.00    +0.137 C 
BRANCH  26  27
ATOM     27  O   UNL     1       5.655  -1.659  24.333  0.00  0.00    -0.390 OA
ATOM     28  H   UNL     1       6.017  -2.539  24.572  0.00  0.00    +0.210 HD
ENDBRANCH  26  27
BRANCH  26  29
ATOM     29  C   UNL     1       6.296   0.720  24.457  0.00  0.00    +0.109 C 
BRANCH  29  30
ATOM     30  N   UNL     1       4.937   0.776  24.993  0.00  0.00    -0.275 N 
ATOM     31  H   UNL     1       4.171   0.430  24.442  0.00  0.00    +0.152 HD
ATOM     32  C   UNL     1       4.589   1.186  26.233  0.00  0.00    +0.401 C 
ATOM     33  O   UNL     1       5.355   1.721  27.033  0.00  0.00    -0.226 OA
BRANCH  32  34
ATOM     34  O   UNL     1       3.275   0.937  26.429  0.00  0.00    -0.445 OA
BRANCH  34  35
ATOM     35  C   UNL     1       2.978   0.100  27.555  0.00  0.00    +0.278 C 
BRANCH  35  36
ATOM     36  C   UNL     1       3.559  -1.250  27.314  0.00  0.00    +0.046 A 
ATOM     37  S   UNL     1       4.959  -1.796  28.143  0.00  0.00    -0.077 S 
ATOM     38  C   UNL     1       4.865  -3.280  27.287  0.00  0.00    +0.156 A 
ATOM     39  N   UNL     1       3.875  -3.395  26.430  0.00  0.00    -0.255 NA
ATOM     40  C   UNL     1       3.124  -2.239  26.454  0.00  0.00    +0.125 A 
ENDBRANCH  35  36
ENDBRANCH  34  35
ENDBRANCH  32  34
ENDBRANCH  29  30
BRANCH  29  41
ATOM     41  C   UNL     1       6.520   1.720  23.295  0.00  0.00    +0.060 C 
BRANCH  41  42
ATOM     42  C   UNL     1       7.224   3.023  23.659  0.00  0.00    -0.046 A 
ATOM     43  C   UNL     1       7.355   4.019  22.683  0.00  0.00    +0.004 A 
ATOM     44  C   UNL     1       7.937   5.254  22.981  0.00  0.00    +0.000 A 
ATOM     45  C   UNL     1       8.382   5.524  24.274  0.00  0.00    +0.000 A 
ATOM     46  C   UNL     1       8.278   4.546  25.252  0.00  0.00    +0.000 A 
ATOM     47  C   UNL     1       7.732   3.304  24.936  0.00  0.00    +0.004 A 
ENDBRANCH  41  42
ENDBRANCH  29  41
ENDBRANCH  26  29
ENDBRANCH  25  26
ENDBRANCH   1  25
BRANCH   1  48
ATOM     48  C   UNL     1       9.882  -2.002  23.419  0.00  0.00    +0.057 C 
BRANCH  48  49
ATOM     49  C   UNL     1      10.011  -0.512  23.273  0.00  0.00    -0.046 A 
ATOM     50  C   UNL     1      10.534   0.254  24.328  0.00  0.00    +0.004 A 
ATOM     51  C   UNL     1      10.827   1.595  24.133  0.00  0.00    +0.000 A 
ATOM     52  C   UNL     1      10.572   2.193  22.896  0.00  0.00    +0.000 A 
ATOM     53  C   UNL     1       9.985   1.457  21.871  0.00  0.00    +0.000 A 
ATOM     54  C   UNL     1       9.700   0.106  22.058  0.00  0.00    +0.004 A 
ENDBRANCH  48  49
ENDBRANCH   1  48
TORSDOF 19
ENDMDL
MODEL 5
REMARK VINA RESULT:      -6.2      2.480      7.643
REMARK  Name = 
REMARK  24 active torsions:
REMARK  status: ('A' for Active; 'I' for Inactive)
REMARK    1  A    between atoms: C_1  and  C_2
REMARK    2  A    between atoms: C_2  and  C_3
REMARK    3  A    between atoms: C_2  and  C_4
REMARK    4  A    between atoms: C_6  and  C_9
REMARK    5  A    between atoms: C_9  and  N_10
REMARK    6  A    between atoms: N_10  and  C_11
REMARK    7  A    between atoms: N_14  and  C_15
REMARK    8  A    between atoms: C_15  and  C_16
REMARK    9  A    between atoms: C_15  and  C_19
REMARK   10  A    between atoms: C_16  and  C_17
REMARK   11  A    between atoms: C_16  and  C_18
REMARK   12  A    between atoms: N_21  and  C_22
REMARK   13  A    between atoms: C_22  and  C_24
REMARK   14  A    between atoms: C_22  and  C_31
REMARK   15  A    between atoms: C_24  and  C_25
REMARK   16  A    between atoms: C_31  and  C_32
REMARK   17  A    between atoms: C_32  and  C_34
REMARK   18  A    between atoms: C_32  and  O_53
REMARK   19  A    between atoms: C_34  and  C_36
REMARK   20  A    between atoms: C_34  and  N_43
REMARK   21  A    between atoms: C_36  and  C_37
REMARK   22  A    between atoms: C_44  and  O_46
REMARK   23  A    between atoms: O_46  and  C_47
REMARK   24  A    between atoms: C_47  and  C_48
REMARK                            x       y       z     vdW  Elec       q    Type
REMARK                         _______ _______ _______ _____ _____    ______ ____
ROOT
ATOM      1  C   UNL     1       8.124  -1.745  23.731  0.00  0.00    +0.080 C 
ENDROOT
BRANCH   1   3
ATOM      2  C   UNL     1       8.248   0.808  23.870  0.00  0.00    +0.234 C 
ATOM      3  N   UNL     1       8.487  -0.405  23.253  0.00  0.00    -0.311 N 
ATOM      4  H   UNL     1       9.382  -0.368  22.786  0.00  0.00    +0.149 HD
ATOM      5  O   UNL     1       7.515   0.986  24.835  0.00  0.00    -0.274 OA
BRANCH   2   6
ATOM      6  C   UNL     1       8.796   2.010  23.055  0.00  0.00    +0.163 C 
BRANCH   6   9
ATOM      7  N   UNL     1       6.989   5.273  23.299  0.00  0.00    -0.283 N 
ATOM      8  C   UNL     1       7.305   4.025  22.779  0.00  0.00    +0.303 C 
ATOM      9  N   UNL     1       8.234   3.311  23.521  0.00  0.00    -0.288 N 
ATOM     10  H   UNL     1       8.929   3.908  23.936  0.00  0.00    +0.151 HD
ATOM     11  O   UNL     1       6.722   3.518  21.830  0.00  0.00    -0.253 OA
ATOM     12  C   UNL     1       7.817   5.986  24.257  0.00  0.00    +0.134 C 
BRANCH   7  13
ATOM     13  C   UNL     1       5.876   6.028  22.699  0.00  0.00    +0.164 C 
BRANCH  13  17
ATOM     14  C   UNL     1       2.537   4.551  23.016  0.00  0.00    +0.081 A 
ATOM     15  S   UNL     1       2.521   4.996  24.679  0.00  0.00    -0.080 S 
ATOM     16  C   UNL     1       4.062   5.717  24.498  0.00  0.00    +0.071 A 
ATOM     17  C   UNL     1       4.509   5.603  23.193  0.00  0.00    +0.066 A 
ATOM     18  N   UNL     1       3.619   4.918  22.354  0.00  0.00    -0.247 NA
BRANCH  14  20
ATOM     19  C   UNL     1       1.810   2.873  21.305  0.00  0.00    +0.014 C 
ATOM     20  C   UNL     1       1.362   3.790  22.442  0.00  0.00    +0.038 C 
ATOM     21  C   UNL     1       0.630   2.989  23.516  0.00  0.00    +0.014 C 
ENDBRANCH  14  20
ENDBRANCH  13  17
ENDBRANCH   7  13
ENDBRANCH   6   9
BRANCH   6  22
ATOM     22  C   UNL     1      10.357   2.003  23.229  0.00  0.00    +0.012 C 
ATOM     23  C   UNL     1      10.830   1.166  24.420  0.00  0.00    +0.009 C 
ATOM     24  C   UNL     1      10.965   3.411  23.352  0.00  0.00    +0.009 C 
ENDBRANCH   6  22
ENDBRANCH   2   6
ENDBRANCH   1   3
BRANCH   1  25
ATOM     25  C   UNL     1       9.026  -2.158  24.936  0.00  0.00    +0.055 C 
BRANCH  25  26
ATOM     26  C   UNL     1       8.382  -2.145  26.349  0.00  0.00    +0.137 C 
BRANCH  26  27
ATOM     27  O   UNL     1       8.447  -0.807  26.863  0.00  0.00    -0.390 OA
ATOM     28  H   UNL     1       8.655  -0.838  27.821  0.00  0.00    +0.210 HD
ENDBRANCH  26  27
BRANCH  26  29
ATOM     29  C   UNL     1       6.932  -2.699  26.405  0.00  0.00    +0.109 C 
BRANCH  29  30
ATOM     30  N   UNL     1       6.011  -1.758  27.041  0.00  0.00    -0.275 N 
ATOM     31  H   UNL     1       6.025  -1.649  28.040  0.00  0.00    +0.152 HD
ATOM     32  C   UNL     1       5.160  -0.925  26.402  0.00  0.00    +0.401 C 
ATOM     33  O   UNL     1       4.928  -0.954  25.196  0.00  0.00    -0.226 OA
BRANCH  32  34
ATOM     34  O   UNL     1       4.600  -0.088  27.304  0.00  0.00    -0.445 OA
BRANCH  34  35
ATOM     35  C   UNL     1       5.497   0.414  28.304  0.00  0.00    +0.278 C 
BRANCH  35  36
ATOM     36  C   UNL     1       5.927   1.785  27.914  0.00  0.00    +0.046 A 
ATOM     37  S   UNL     1       4.997   2.760  26.850  0.00  0.00    -0.077 S 
ATOM     38  C   UNL     1       6.172   4.002  26.990  0.00  0.00    +0.156 A 
ATOM     39  N   UNL     1       7.204   3.743  27.763  0.00  0.00    -0.255 NA
ATOM     40  C   UNL     1       7.057   2.480  28.298  0.00  0.00    +0.125 A 
ENDBRANCH  35  36
ENDBRANCH  34  35
ENDBRANCH  32  34
ENDBRANCH  29  30
BRANCH  29  41
ATOM     41  C   UNL     1       6.815  -4.132  26.984  0.00  0.00    +0.060 C 
BRANCH  41  42
ATOM     42  C   UNL     1       5.553  -4.903  26.614  0.00  0.00    -0.046 A 
ATOM     43  C   UNL     1       4.326  -4.229  26.594  0.00  0.00    +0.004 A 
ATOM     44  C   UNL     1       3.150  -4.874  26.203  0.00  0.00    +0.000 A 
ATOM     45  C   UNL     1       3.184  -6.209  25.802  0.00  0.00    +0.000 A 
ATOM     46  C   UNL     1       4.385  -6.901  25.830  0.00  0.00    +0.000 A 
ATOM     47  C   UNL     1       5.546  -6.261  26.258  0.00  0.00    +0.004 A 
ENDBRANCH  41  42
ENDBRANCH  29  41
ENDBRANCH  26  29
ENDBRANCH  25  26
ENDBRANCH   1  25
BRANCH   1  48
ATOM     48  C   UNL     1       8.109  -2.810  22.602  0.00  0.00    +0.057 C 
BRANCH  48  49
ATOM     49  C   UNL     1       7.002  -3.818  22.732  0.00  0.00    -0.046 A 
ATOM     50  C   UNL     1       5.681  -3.386  22.937  0.00  0.00    +0.004 A 
ATOM     51  C   UNL     1       4.636  -4.295  22.872  0.00  0.00    +0.000 A 
ATOM     52  C   UNL     1       4.899  -5.646  22.634  0.00  0.00    +0.000 A 
ATOM     53  C   UNL     1       6.212  -6.090  22.503  0.00  0.00    +0.000 A 
ATOM     54  C   UNL     1       7.265  -5.179  22.555  0.00  0.00    +0.004 A 
ENDBRANCH  48  49
ENDBRANCH   1  48
TORSDOF 19
ENDMDL
MODEL 6
REMARK VINA RESULT:      -6.2      2.770      8.957
REMARK  Name = 
REMARK  24 active torsions:
REMARK  status: ('A' for Active; 'I' for Inactive)
REMARK    1  A    between atoms: C_1  and  C_2
REMARK    2  A    between atoms: C_2  and  C_3
REMARK    3  A    between atoms: C_2  and  C_4
REMARK    4  A    between atoms: C_6  and  C_9
REMARK    5  A    between atoms: C_9  and  N_10
REMARK    6  A    between atoms: N_10  and  C_11
REMARK    7  A    between atoms: N_14  and  C_15
REMARK    8  A    between atoms: C_15  and  C_16
REMARK    9  A    between atoms: C_15  and  C_19
REMARK   10  A    between atoms: C_16  and  C_17
REMARK   11  A    between atoms: C_16  and  C_18
REMARK   12  A    between atoms: N_21  and  C_22
REMARK   13  A    between atoms: C_22  and  C_24
REMARK   14  A    between atoms: C_22  and  C_31
REMARK   15  A    between atoms: C_24  and  C_25
REMARK   16  A    between atoms: C_31  and  C_32
REMARK   17  A    between atoms: C_32  and  C_34
REMARK   18  A    between atoms: C_32  and  O_53
REMARK   19  A    between atoms: C_34  and  C_36
REMARK   20  A    between atoms: C_34  and  N_43
REMARK   21  A    between atoms: C_36  and  C_37
REMARK   22  A    between atoms: C_44  and  O_46
REMARK   23  A    between atoms: O_46  and  C_47
REMARK   24  A    between atoms: C_47  and  C_48
REMARK                            x       y       z     vdW  Elec       q    Type
REMARK                         _______ _______ _______ _____ _____    ______ ____
ROOT
ATOM      1  C   UNL     1       6.444  -2.744  26.660  0.00  0.00    +0.080 C 
ENDROOT
BRANCH   1   3
ATOM      2  C   UNL     1       4.498  -1.100  26.897  0.00  0.00    +0.234 C 
ATOM      3  N   UNL     1       5.709  -1.639  27.287  0.00  0.00    -0.311 N 
ATOM      4  H   UNL     1       5.765  -1.632  28.295  0.00  0.00    +0.149 HD
ATOM      5  O   UNL     1       3.922  -1.327  25.840  0.00  0.00    -0.274 OA
BRANCH   2   6
ATOM      6  C   UNL     1       4.034   0.056  27.823  0.00  0.00    +0.163 C 
BRANCH   6   9
ATOM      7  N   UNL     1       5.287   3.376  26.650  0.00  0.00    -0.283 N 
ATOM      8  C   UNL     1       5.369   2.098  27.186  0.00  0.00    +0.303 C 
ATOM      9  N   UNL     1       4.176   1.392  27.174  0.00  0.00    -0.288 N 
ATOM     10  H   UNL     1       3.380   1.987  27.331  0.00  0.00    +0.151 HD
ATOM     11  O   UNL     1       6.421   1.567  27.515  0.00  0.00    -0.253 OA
ATOM     12  C   UNL     1       4.042   4.107  26.482  0.00  0.00    +0.134 C 
BRANCH   7  13
ATOM     13  C   UNL     1       6.531   4.135  26.438  0.00  0.00    +0.164 C 
BRANCH  13  17
ATOM     14  C   UNL     1       8.933   2.918  23.952  0.00  0.00    +0.081 A 
ATOM     15  S   UNL     1       7.781   3.237  22.713  0.00  0.00    -0.080 S 
ATOM     16  C   UNL     1       6.691   3.840  23.886  0.00  0.00    +0.071 A 
ATOM     17  C   UNL     1       7.250   3.788  25.151  0.00  0.00    +0.066 A 
ATOM     18  N   UNL     1       8.542   3.244  25.171  0.00  0.00    -0.247 NA
BRANCH  14  20
ATOM     19  C   UNL     1      10.573   1.099  24.472  0.00  0.00    +0.014 C 
ATOM     20  C   UNL     1      10.265   2.302  23.584  0.00  0.00    +0.038 C 
ATOM     21  C   UNL     1      10.313   1.903  22.110  0.00  0.00    +0.014 C 
ENDBRANCH  14  20
ENDBRANCH  13  17
ENDBRANCH   7  13
ENDBRANCH   6   9
BRANCH   6  22
ATOM     22  C   UNL     1       2.527  -0.218  28.171  0.00  0.00    +0.012 C 
ATOM     23  C   UNL     1       1.556   0.702  27.427  0.00  0.00    +0.009 C 
ATOM     24  C   UNL     1       2.222  -0.129  29.678  0.00  0.00    +0.009 C 
ENDBRANCH   6  22
ENDBRANCH   2   6
ENDBRANCH   1   3
BRANCH   1  25
ATOM     25  C   UNL     1       6.324  -4.039  27.523  0.00  0.00    +0.055 C 
BRANCH  25  26
ATOM     26  C   UNL     1       4.962  -4.785  27.509  0.00  0.00    +0.137 C 
BRANCH  26  27
ATOM     27  O   UNL     1       4.076  -4.124  28.424  0.00  0.00    -0.390 OA
ATOM     28  H   UNL     1       3.180  -4.074  28.027  0.00  0.00    +0.210 HD
ENDBRANCH  26  27
BRANCH  26  29
ATOM     29  C   UNL     1       4.315  -4.925  26.103  0.00  0.00    +0.109 C 
BRANCH  29  30
ATOM     30  N   UNL     1       2.918  -5.346  26.183  0.00  0.00    -0.275 N 
ATOM     31  H   UNL     1       2.222  -4.863  25.642  0.00  0.00    +0.152 HD
ATOM     32  C   UNL     1       2.447  -6.410  26.871  0.00  0.00    +0.401 C 
ATOM     33  O   UNL     1       3.110  -7.081  27.658  0.00  0.00    -0.226 OA
BRANCH  32  34
ATOM     34  O   UNL     1       1.140  -6.587  26.572  0.00  0.00    -0.445 OA
BRANCH  34  35
ATOM     35  C   UNL     1       0.723  -6.022  25.322  0.00  0.00    +0.278 C 
BRANCH  35  36
ATOM     36  C   UNL     1       0.716  -7.095  24.290  0.00  0.00    +0.046 A 
ATOM     37  S   UNL     1       1.051  -6.768  22.639  0.00  0.00    -0.077 S 
ATOM     38  C   UNL     1       0.824  -8.431  22.282  0.00  0.00    +0.156 A 
ATOM     39  N   UNL     1       0.514  -9.206  23.297  0.00  0.00    -0.255 NA
ATOM     40  C   UNL     1       0.462  -8.444  24.445  0.00  0.00    +0.125 A 
ENDBRANCH  35  36
ENDBRANCH  34  35
ENDBRANCH  32  34
ENDBRANCH  29  30
BRANCH  29  41
ATOM     41  C   UNL     1       5.138  -5.774  25.100  0.00  0.00    +0.060 C 
BRANCH  41  42
ATOM     42  C   UNL     1       5.610  -5.054  23.842  0.00  0.00    -0.046 A 
ATOM     43  C   UNL     1       6.668  -5.600  23.105  0.00  0.00    +0.004 A 
ATOM     44  C   UNL     1       7.099  -5.014  21.912  0.00  0.00    +0.000 A 
ATOM     45  C   UNL     1       6.462  -3.874  21.422  0.00  0.00    +0.000 A 
ATOM     46  C   UNL     1       5.424  -3.306  22.145  0.00  0.00    +0.000 A 
ATOM     47  C   UNL     1       5.026  -3.876  23.352  0.00  0.00    +0.004 A 
ENDBRANCH  41  42
ENDBRANCH  29  41
ENDBRANCH  26  29
ENDBRANCH  25  26
ENDBRANCH   1  25
BRANCH   1  48
ATOM     48  C   UNL     1       7.917  -2.383  26.326  0.00  0.00    +0.057 C 
BRANCH  48  49
ATOM     49  C   UNL     1       8.153  -2.071  24.875  0.00  0.00    -0.046 A 
ATOM     50  C   UNL     1       7.377  -1.092  24.233  0.00  0.00    +0.004 A 
ATOM     51  C   UNL     1       7.711  -0.670  22.956  0.00  0.00    +0.000 A 
ATOM     52  C   UNL     1       8.799  -1.242  22.293  0.00  0.00    +0.000 A 
ATOM     53  C   UNL     1       9.526  -2.265  22.896  0.00  0.00    +0.000 A 
ATOM     54  C   UNL     1       9.203  -2.684  24.185  0.00  0.00    +0.004 A 
ENDBRANCH  48  49
ENDBRANCH   1  48
TORSDOF 19
ENDMDL
MODEL 7
REMARK VINA RESULT:      -6.1      2.686      6.101
REMARK  Name = 
REMARK  24 active torsions:
REMARK  status: ('A' for Active; 'I' for Inactive)
REMARK    1  A    between atoms: C_1  and  C_2
REMARK    2  A    between atoms: C_2  and  C_3
REMARK    3  A    between atoms: C_2  and  C_4
REMARK    4  A    between atoms: C_6  and  C_9
REMARK    5  A    between atoms: C_9  and  N_10
REMARK    6  A    between atoms: N_10  and  C_11
REMARK    7  A    between atoms: N_14  and  C_15
REMARK    8  A    between atoms: C_15  and  C_16
REMARK    9  A    between atoms: C_15  and  C_19
REMARK   10  A    between atoms: C_16  and  C_17
REMARK   11  A    between atoms: C_16  and  C_18
REMARK   12  A    between atoms: N_21  and  C_22
REMARK   13  A    between atoms: C_22  and  C_24
REMARK   14  A    between atoms: C_22  and  C_31
REMARK   15  A    between atoms: C_24  and  C_25
REMARK   16  A    between atoms: C_31  and  C_32
REMARK   17  A    between atoms: C_32  and  C_34
REMARK   18  A    between atoms: C_32  and  O_53
REMARK   19  A    between atoms: C_34  and  C_36
REMARK   20  A    between atoms: C_34  and  N_43
REMARK   21  A    between atoms: C_36  and  C_37
REMARK   22  A    between atoms: C_44  and  O_46
REMARK   23  A    between atoms: O_46  and  C_47
REMARK   24  A    between atoms: C_47  and  C_48
REMARK                            x       y       z     vdW  Elec       q    Type
REMARK                         _______ _______ _______ _____ _____    ______ ____
ROOT
ATOM      1  C   UNL     1       6.204   0.827  24.979  0.00  0.00    +0.080 C 
ENDROOT
BRANCH   1   3
ATOM      2  C   UNL     1       5.485   0.128  27.333  0.00  0.00    +0.234 C 
ATOM      3  N   UNL     1       5.381   0.104  25.956  0.00  0.00    -0.311 N 
ATOM      4  H   UNL     1       4.406   0.040  25.699  0.00  0.00    +0.149 HD
ATOM      5  O   UNL     1       6.414   0.610  27.971  0.00  0.00    -0.274 OA
BRANCH   2   6
ATOM      6  C   UNL     1       4.422  -0.764  28.028  0.00  0.00    +0.163 C 
BRANCH   6   9
ATOM      7  N   UNL     1       5.056  -4.430  27.669  0.00  0.00    -0.283 N 
ATOM      8  C   UNL     1       4.660  -3.159  27.275  0.00  0.00    +0.303 C 
ATOM      9  N   UNL     1       4.895  -2.166  28.214  0.00  0.00    -0.288 N 
ATOM     10  H   UNL     1       4.770  -2.496  29.157  0.00  0.00    +0.151 HD
ATOM     11  O   UNL     1       4.268  -2.889  26.148  0.00  0.00    -0.253 OA
ATOM     12  C   UNL     1       5.290  -4.815  29.051  0.00  0.00    +0.134 C 
BRANCH   7  13
ATOM     13  C   UNL     1       5.030  -5.517  26.677  0.00  0.00    +0.164 C 
BRANCH  13  17
ATOM     14  C   UNL     1       6.812  -5.052  23.509  0.00  0.00    +0.081 A 
ATOM     15  S   UNL     1       8.300  -5.025  24.374  0.00  0.00    -0.080 S 
ATOM     16  C   UNL     1       7.451  -5.285  25.836  0.00  0.00    +0.071 A 
ATOM     17  C   UNL     1       6.091  -5.396  25.604  0.00  0.00    +0.066 A 
ATOM     18  N   UNL     1       5.740  -5.249  24.255  0.00  0.00    -0.247 NA
BRANCH  14  20
ATOM     19  C   UNL     1       6.451  -6.139  21.282  0.00  0.00    +0.014 C 
ATOM     20  C   UNL     1       6.823  -4.849  22.010  0.00  0.00    +0.038 C 
ATOM     21  C   UNL     1       5.894  -3.712  21.588  0.00  0.00    +0.014 C 
ENDBRANCH  14  20
ENDBRANCH  13  17
ENDBRANCH   7  13
ENDBRANCH   6   9
BRANCH   6  22
ATOM     22  C   UNL     1       4.118  -0.106  29.422  0.00  0.00    +0.012 C 
ATOM     23  C   UNL     1       3.672  -1.115  30.483  0.00  0.00    +0.009 C 
ATOM     24  C   UNL     1       3.071   1.020  29.351  0.00  0.00    +0.009 C 
ENDBRANCH   6  22
ENDBRANCH   2   6
ENDBRANCH   1   3
BRANCH   1  25
ATOM     25  C   UNL     1       5.644   2.266  24.750  0.00  0.00    +0.055 C 
BRANCH  25  26
ATOM     26  C   UNL     1       5.328   2.687  23.290  0.00  0.00    +0.137 C 
BRANCH  26  27
ATOM     27  O   UNL     1       3.916   2.551  23.076  0.00  0.00    -0.390 OA
ATOM     28  H   UNL     1       3.626   3.206  22.405  0.00  0.00    +0.210 HD
ENDBRANCH  26  27
BRANCH  26  29
ATOM     29  C   UNL     1       5.820   4.110  22.905  0.00  0.00    +0.109 C 
BRANCH  29  30
ATOM     30  N   UNL     1       4.747   4.924  22.336  0.00  0.00    -0.275 N 
ATOM     31  H   UNL     1       4.262   4.604  21.516  0.00  0.00    +0.152 HD
ATOM     32  C   UNL     1       4.258   6.071  22.858  0.00  0.00    +0.401 C 
ATOM     33  O   UNL     1       4.757   6.677  23.804  0.00  0.00    -0.226 OA
BRANCH  32  34
ATOM     34  O   UNL     1       3.165   6.445  22.157  0.00  0.00    -0.445 OA
BRANCH  34  35
ATOM     35  C   UNL     1       1.959   6.550  22.926  0.00  0.00    +0.278 C 
BRANCH  35  36
ATOM     36  C   UNL     1       1.443   5.180  23.196  0.00  0.00    +0.046 A 
ATOM     37  S   UNL     1       1.231   4.590  24.794  0.00  0.00    -0.077 S 
ATOM     38  C   UNL     1       0.671   3.101  24.151  0.00  0.00    +0.156 A 
ATOM     39  N   UNL     1       0.637   3.010  22.840  0.00  0.00    -0.255 NA
ATOM     40  C   UNL     1       1.069   4.202  22.296  0.00  0.00    +0.125 A 
ENDBRANCH  35  36
ENDBRANCH  34  35
ENDBRANCH  32  34
ENDBRANCH  29  30
BRANCH  29  41
ATOM     41  C   UNL     1       7.107   4.132  22.042  0.00  0.00    +0.060 C 
BRANCH  41  42
ATOM     42  C   UNL     1       8.273   3.296  22.556  0.00  0.00    -0.046 A 
ATOM     43  C   UNL     1       8.845   2.336  21.712  0.00  0.00    +0.004 A 
ATOM     44  C   UNL     1       9.955   1.587  22.113  0.00  0.00    +0.000 A 
ATOM     45  C   UNL     1      10.528   1.800  23.365  0.00  0.00    +0.000 A 
ATOM     46  C   UNL     1       9.967   2.733  24.225  0.00  0.00    +0.000 A 
ATOM     47  C   UNL     1       8.839   3.449  23.832  0.00  0.00    +0.004 A 
ENDBRANCH  41  42
ENDBRANCH  29  41
ENDBRANCH  26  29
ENDBRANCH  25  26
ENDBRANCH   1  25
BRANCH   1  48
ATOM     48  C   UNL     1       6.402   0.045  23.653  0.00  0.00    +0.057 C 
BRANCH  48  49
ATOM     49  C   UNL     1       7.666  -0.766  23.608  0.00  0.00    -0.046 A 
ATOM     50  C   UNL     1       8.092  -1.334  22.395  0.00  0.00    +0.004 A 
ATOM     51  C   UNL     1       9.344  -1.923  22.306  0.00  0.00    +0.000 A 
ATOM     52  C   UNL     1      10.170  -1.981  23.432  0.00  0.00    +0.000 A 
ATOM     53  C   UNL     1       9.722  -1.486  24.654  0.00  0.00    +0.000 A 
ATOM     54  C   UNL     1       8.470  -0.882  24.745  0.00  0.00    +0.004 A 
ENDBRANCH  48  49
ENDBRANCH   1  48
TORSDOF 19
ENDMDL
MODEL 8
REMARK VINA RESULT:      -6.1      2.746      9.016
REMARK  Name = 
REMARK  24 active torsions:
REMARK  status: ('A' for Active; 'I' for Inactive)
REMARK    1  A    between atoms: C_1  and  C_2
REMARK    2  A    between atoms: C_2  and  C_3
REMARK    3  A    between atoms: C_2  and  C_4
REMARK    4  A    between atoms: C_6  and  C_9
REMARK    5  A    between atoms: C_9  and  N_10
REMARK    6  A    between atoms: N_10  and  C_11
REMARK    7  A    between atoms: N_14  and  C_15
REMARK    8  A    between atoms: C_15  and  C_16
REMARK    9  A    between atoms: C_15  and  C_19
REMARK   10  A    between atoms: C_16  and  C_17
REMARK   11  A    between atoms: C_16  and  C_18
REMARK   12  A    between atoms: N_21  and  C_22
REMARK   13  A    between atoms: C_22  and  C_24
REMARK   14  A    between atoms: C_22  and  C_31
REMARK   15  A    between atoms: C_24  and  C_25
REMARK   16  A    between atoms: C_31  and  C_32
REMARK   17  A    between atoms: C_32  and  C_34
REMARK   18  A    between atoms: C_32  and  O_53
REMARK   19  A    between atoms: C_34  and  C_36
REMARK   20  A    between atoms: C_34  and  N_43
REMARK   21  A    between atoms: C_36  and  C_37
REMARK   22  A    between atoms: C_44  and  O_46
REMARK   23  A    between atoms: O_46  and  C_47
REMARK   24  A    between atoms: C_47  and  C_48
REMARK                            x       y       z     vdW  Elec       q    Type
REMARK                         _______ _______ _______ _____ _____    ______ ____
ROOT
ATOM      1  C   UNL     1       7.409  -0.529  26.403  0.00  0.00    +0.080 C 
ENDROOT
BRANCH   1   3
ATOM      2  C   UNL     1       5.648   0.783  27.717  0.00  0.00    +0.234 C 
ATOM      3  N   UNL     1       6.898   0.216  27.560  0.00  0.00    -0.311 N 
ATOM      4  H   UNL     1       7.210  -0.148  28.449  0.00  0.00    +0.149 HD
ATOM      5  O   UNL     1       4.813   0.928  26.832  0.00  0.00    -0.274 OA
BRANCH   2   6
ATOM      6  C   UNL     1       5.478   1.482  29.093  0.00  0.00    +0.163 C 
BRANCH   6   9
ATOM      7  N   UNL     1       5.878   5.172  28.652  0.00  0.00    -0.283 N 
ATOM      8  C   UNL     1       6.246   3.834  28.606  0.00  0.00    +0.303 C 
ATOM      9  N   UNL     1       5.239   2.948  28.956  0.00  0.00    -0.288 N 
ATOM     10  H   UNL     1       4.645   3.314  29.682  0.00  0.00    +0.151 HD
ATOM     11  O   UNL     1       7.316   3.440  28.161  0.00  0.00    -0.253 OA
ATOM     12  C   UNL     1       4.731   5.673  29.390  0.00  0.00    +0.134 C 
BRANCH   7  13
ATOM     13  C   UNL     1       6.808   6.180  28.116  0.00  0.00    +0.164 C 
BRANCH  13  17
ATOM     14  C   UNL     1       7.331   6.635  24.517  0.00  0.00    +0.081 A 
ATOM     15  S   UNL     1       5.626   6.750  24.305  0.00  0.00    -0.080 S 
ATOM     16  C   UNL     1       5.408   6.579  25.993  0.00  0.00    +0.071 A 
ATOM     17  C   UNL     1       6.626   6.459  26.638  0.00  0.00    +0.066 A 
ATOM     18  N   UNL     1       7.725   6.484  25.769  0.00  0.00    -0.247 NA
BRANCH  14  20
ATOM     19  C   UNL     1       9.602   6.097  23.610  0.00  0.00    +0.014 C 
ATOM     20  C   UNL     1       8.234   6.703  23.306  0.00  0.00    +0.038 C 
ATOM     21  C   UNL     1       7.604   6.018  22.094  0.00  0.00    +0.014 C 
ENDBRANCH  14  20
ENDBRANCH  13  17
ENDBRANCH   7  13
ENDBRANCH   6   9
BRANCH   6  22
ATOM     22  C   UNL     1       4.255   0.798  29.802  0.00  0.00    +0.012 C 
ATOM     23  C   UNL     1       4.167  -0.707  29.538  0.00  0.00    +0.009 C 
ATOM     24  C   UNL     1       2.902   1.436  29.438  0.00  0.00    +0.009 C 
ENDBRANCH   6  22
ENDBRANCH   2   6
ENDBRANCH   1   3
BRANCH   1  25
ATOM     25  C   UNL     1       7.246  -2.065  26.627  0.00  0.00    +0.055 C 
BRANCH  25  26
ATOM     26  C   UNL     1       6.054  -2.768  25.924  0.00  0.00    +0.137 C 
BRANCH  26  27
ATOM     27  O   UNL     1       5.191  -1.758  25.379  0.00  0.00    -0.390 OA
ATOM     28  H   UNL     1       4.259  -1.985  25.584  0.00  0.00    +0.210 HD
ENDBRANCH  26  27
BRANCH  26  29
ATOM     29  C   UNL     1       6.461  -3.804  24.839  0.00  0.00    +0.109 C 
BRANCH  29  30
ATOM     30  N   UNL     1       5.815  -5.099  25.049  0.00  0.00    -0.275 N 
ATOM     31  H   UNL     1       5.615  -5.407  25.985  0.00  0.00    +0.152 HD
ATOM     32  C   UNL     1       5.365  -5.928  24.082  0.00  0.00    +0.401 C 
ATOM     33  O   UNL     1       5.579  -5.781  22.880  0.00  0.00    -0.226 OA
BRANCH  32  34
ATOM     34  O   UNL     1       4.676  -6.941  24.653  0.00  0.00    -0.445 OA
BRANCH  34  35
ATOM     35  C   UNL     1       3.345  -6.609  25.071  0.00  0.00    +0.278 C 
BRANCH  35  36
ATOM     36  C   UNL     1       2.383  -7.120  24.056  0.00  0.00    +0.046 A 
ATOM     37  S   UNL     1       1.638  -8.659  24.208  0.00  0.00    -0.077 S 
ATOM     38  C   UNL     1       0.808  -8.383  22.731  0.00  0.00    +0.156 A 
ATOM     39  N   UNL     1       1.050  -7.237  22.135  0.00  0.00    -0.255 NA
ATOM     40  C   UNL     1       1.941  -6.512  22.898  0.00  0.00    +0.125 A 
ENDBRANCH  35  36
ENDBRANCH  34  35
ENDBRANCH  32  34
ENDBRANCH  29  30
BRANCH  29  41
ATOM     41  C   UNL     1       7.989  -3.929  24.613  0.00  0.00    +0.060 C 
BRANCH  41  42
ATOM     42  C   UNL     1       8.611  -2.914  23.662  0.00  0.00    -0.046 A 
ATOM     43  C   UNL     1       9.980  -2.636  23.766  0.00  0.00    +0.004 A 
ATOM     44  C   UNL     1      10.612  -1.760  22.879  0.00  0.00    +0.000 A 
ATOM     45  C   UNL     1       9.885  -1.158  21.854  0.00  0.00    +0.000 A 
ATOM     46  C   UNL     1       8.525  -1.404  21.743  0.00  0.00    +0.000 A 
ATOM     47  C   UNL     1       7.896  -2.249  22.654  0.00  0.00    +0.004 A 
ENDBRANCH  41  42
ENDBRANCH  29  41
ENDBRANCH  26  29
ENDBRANCH  25  26
ENDBRANCH   1  25
BRANCH   1  48
ATOM     48  C   UNL     1       8.858  -0.132  26.015  0.00  0.00    +0.057 C 
BRANCH  48  49
ATOM     49  C   UNL     1       8.937   0.873  24.901  0.00  0.00    -0.046 A 
ATOM     50  C   UNL     1      10.181   1.405  24.522  0.00  0.00    +0.004 A 
ATOM     51  C   UNL     1      10.284   2.186  23.382  0.00  0.00    +0.000 A 
ATOM     52  C   UNL     1       9.144   2.471  22.626  0.00  0.00    +0.000 A 
ATOM     53  C   UNL     1       7.898   2.009  23.038  0.00  0.00    +0.000 A 
ATOM     54  C   UNL     1       7.791   1.213  24.177  0.00  0.00    +0.004 A 
ENDBRANCH  48  49
ENDBRANCH   1  48
TORSDOF 19
ENDMDL
MODEL 9
REMARK VINA RESULT:      -6.1      2.323      5.128
REMARK  Name = 
REMARK  24 active torsions:
REMARK  status: ('A' for Active; 'I' for Inactive)
REMARK    1  A    between atoms: C_1  and  C_2
REMARK    2  A    between atoms: C_2  and  C_3
REMARK    3  A    between atoms: C_2  and  C_4
REMARK    4  A    between atoms: C_6  and  C_9
REMARK    5  A    between atoms: C_9  and  N_10
REMARK    6  A    between atoms: N_10  and  C_11
REMARK    7  A    between atoms: N_14  and  C_15
REMARK    8  A    between atoms: C_15  and  C_16
REMARK    9  A    between atoms: C_15  and  C_19
REMARK   10  A    between atoms: C_16  and  C_17
REMARK   11  A    between atoms: C_16  and  C_18
REMARK   12  A    between atoms: N_21  and  C_22
REMARK   13  A    between atoms: C_22  and  C_24
REMARK   14  A    between atoms: C_22  and  C_31
REMARK   15  A    between atoms: C_24  and  C_25
REMARK   16  A    between atoms: C_31  and  C_32
REMARK   17  A    between atoms: C_32  and  C_34
REMARK   18  A    between atoms: C_32  and  O_53
REMARK   19  A    between atoms: C_34  and  C_36
REMARK   20  A    between atoms: C_34  and  N_43
REMARK   21  A    between atoms: C_36  and  C_37
REMARK   22  A    between atoms: C_44  and  O_46
REMARK   23  A    between atoms: O_46  and  C_47
REMARK   24  A    between atoms: C_47  and  C_48
REMARK                            x       y       z     vdW  Elec       q    Type
REMARK                         _______ _______ _______ _____ _____    ______ ____
ROOT
ATOM      1  C   UNL     1       9.049  -1.948  24.909  0.00  0.00    +0.080 C 
ENDROOT
BRANCH   1   3
ATOM      2  C   UNL     1       8.331  -4.384  24.589  0.00  0.00    +0.234 C 
ATOM      3  N   UNL     1       8.096  -3.023  24.603  0.00  0.00    -0.311 N 
ATOM      4  H   UNL     1       7.163  -2.851  24.951  0.00  0.00    +0.149 HD
ATOM      5  O   UNL     1       9.432  -4.919  24.641  0.00  0.00    -0.274 OA
BRANCH   2   6
ATOM      6  C   UNL     1       7.064  -5.205  24.228  0.00  0.00    +0.163 C 
BRANCH   6   9
ATOM      7  N   UNL     1       4.152  -5.062  26.566  0.00  0.00    -0.283 N 
ATOM      8  C   UNL     1       5.336  -5.551  26.031  0.00  0.00    +0.303 C 
ATOM      9  N   UNL     1       5.870  -4.776  25.013  0.00  0.00    -0.288 N 
ATOM     10  H   UNL     1       5.158  -4.358  24.439  0.00  0.00    +0.151 HD
ATOM     11  O   UNL     1       5.949  -6.503  26.497  0.00  0.00    -0.253 OA
ATOM     12  C   UNL     1       3.294  -4.101  25.894  0.00  0.00    +0.134 C 
BRANCH   7  13
ATOM     13  C   UNL     1       3.606  -5.700  27.776  0.00  0.00    +0.164 C 
BRANCH  13  17
ATOM     14  C   UNL     1       1.268  -8.094  26.282  0.00  0.00    +0.081 A 
ATOM     15  S   UNL     1       0.443  -8.198  27.790  0.00  0.00    -0.080 S 
ATOM     16  C   UNL     1       1.520  -7.047  28.454  0.00  0.00    +0.071 A 
ATOM     17  C   UNL     1       2.439  -6.627  27.508  0.00  0.00    +0.066 A 
ATOM     18  N   UNL     1       2.283  -7.250  26.262  0.00  0.00    -0.247 NA
BRANCH  14  20
ATOM     19  C   UNL     1       1.523  -8.557  23.834  0.00  0.00    +0.014 C 
ATOM     20  C   UNL     1       0.802  -8.947  25.123  0.00  0.00    +0.038 C 
ATOM     21  C   UNL     1       0.988 -10.437  25.408  0.00  0.00    +0.014 C 
ENDBRANCH  14  20
ENDBRANCH  13  17
ENDBRANCH   7  13
ENDBRANCH   6   9
BRANCH   6  22
ATOM     22  C   UNL     1       6.807  -4.992  22.693  0.00  0.00    +0.012 C 
ATOM     23  C   UNL     1       5.584  -4.120  22.400  0.00  0.00    +0.009 C 
ATOM     24  C   UNL     1       6.665  -6.309  21.909  0.00  0.00    +0.009 C 
ENDBRANCH   6  22
ENDBRANCH   2   6
ENDBRANCH   1   3
BRANCH   1  25
ATOM     25  C   UNL     1       8.299  -0.689  25.445  0.00  0.00    +0.055 C 
BRANCH  25  26
ATOM     26  C   UNL     1       6.774  -0.593  25.170  0.00  0.00    +0.137 C 
BRANCH  26  27
ATOM     27  O   UNL     1       6.097  -1.496  26.057  0.00  0.00    -0.390 OA
ATOM     28  H   UNL     1       6.452  -1.383  26.965  0.00  0.00    +0.210 HD
ENDBRANCH  26  27
BRANCH  26  29
ATOM     29  C   UNL     1       6.185   0.841  25.273  0.00  0.00    +0.109 C 
BRANCH  29  30
ATOM     30  N   UNL     1       4.877   0.850  25.925  0.00  0.00    -0.275 N 
ATOM     31  H   UNL     1       4.238   0.091  25.767  0.00  0.00    +0.152 HD
ATOM     32  C   UNL     1       4.441   1.766  26.819  0.00  0.00    +0.401 C 
ATOM     33  O   UNL     1       5.028   2.811  27.090  0.00  0.00    -0.226 OA
BRANCH  32  34
ATOM     34  O   UNL     1       3.260   1.355  27.333  0.00  0.00    -0.445 OA
BRANCH  34  35
ATOM     35  C   UNL     1       3.272   1.090  28.742  0.00  0.00    +0.278 C 
BRANCH  35  36
ATOM     36  C   UNL     1       2.994  -0.356  28.959  0.00  0.00    +0.046 A 
ATOM     37  S   UNL     1       1.542  -1.093  28.413  0.00  0.00    -0.077 S 
ATOM     38  C   UNL     1       2.080  -2.589  29.058  0.00  0.00    +0.156 A 
ATOM     39  N   UNL     1       3.253  -2.578  29.652  0.00  0.00    -0.255 NA
ATOM     40  C   UNL     1       3.778  -1.304  29.586  0.00  0.00    +0.125 A 
ENDBRANCH  35  36
ENDBRANCH  34  35
ENDBRANCH  32  34
ENDBRANCH  29  30
BRANCH  29  41
ATOM     41  C   UNL     1       6.194   1.634  23.942  0.00  0.00    +0.060 C 
BRANCH  41  42
ATOM     42  C   UNL     1       6.958   2.953  23.952  0.00  0.00    -0.046 A 
ATOM     43  C   UNL     1       7.756   3.267  25.059  0.00  0.00    +0.004 A 
ATOM     44  C   UNL     1       8.525   4.433  25.092  0.00  0.00    +0.000 A 
ATOM     45  C   UNL     1       8.524   5.303  24.003  0.00  0.00    +0.000 A 
ATOM     46  C   UNL     1       7.727   5.022  22.903  0.00  0.00    +0.000 A 
ATOM     47  C   UNL     1       6.936   3.876  22.895  0.00  0.00    +0.004 A 
ENDBRANCH  41  42
ENDBRANCH  29  41
ENDBRANCH  26  29
ENDBRANCH  25  26
ENDBRANCH   1  25
BRANCH   1  48
ATOM     48  C   UNL     1       9.997  -1.620  23.724  0.00  0.00    +0.057 C 
BRANCH  48  49
ATOM     49  C   UNL     1      10.050  -0.160  23.374  0.00  0.00    -0.046 A 
ATOM     50  C   UNL     1      10.781   0.729  24.180  0.00  0.00    +0.004 A 
ATOM     51  C   UNL     1      10.987   2.035  23.764  0.00  0.00    +0.000 A 
ATOM     52  C   UNL     1      10.440   2.477  22.557  0.00  0.00    +0.000 A 
ATOM     53  C   UNL     1       9.654   1.622  21.790  0.00  0.00    +0.000 A 
ATOM     54  C   UNL     1       9.454   0.305  22.198  0.00  0.00    +0.004 A 
ENDBRANCH  48  49
ENDBRANCH   1  48
TORSDOF 19
ENDMDL
