MODEL 1
REMARK VINA RESULT:      -5.8      0.000      0.000
REMARK  Name = 
REMARK  5 active torsions:
REMARK  status: ('A' for Active; 'I' for Inactive)
REMARK    1  A    between atoms: C5M_1  and  C5_2
REMARK    2  A    between atoms: N1_4  and  C1*_10
REMARK    3  A    between atoms: C3*_13  and  O3*_20
REMARK    4  A    between atoms: C4*_15  and  C5*_18
REMARK    5  A    between atoms: C5*_18  and  O5*_19
REMARK                            x       y       z     vdW  Elec       q    Type
REMARK                         _______ _______ _______ _____ _____    ______ ____
ROOT
ATOM      1  C5M   T A   1       5.298  -4.078  27.174  0.00  0.00    +0.051 C 
ATOM      2  C5    T A   1       6.668  -4.182  26.591  0.00  0.00    +0.030 A 
ATOM      3  C4    T A   1       7.568  -5.215  27.147  0.00  0.00    +0.257 A 
ATOM      4  O4    T A   1       7.193  -6.020  27.990  0.00  0.00    -0.267 OA
ATOM      5  N3    T A   1       8.825  -5.246  26.620  0.00  0.00    -0.275 N 
ATOM      6  H3    T A   1       9.408  -6.009  26.924  0.00  0.00    +0.173 HD
ATOM      7  C2    T A   1       9.205  -4.630  25.458  0.00  0.00    +0.331 A 
ATOM      8  O2    T A   1      10.193  -5.049  24.860  0.00  0.00    -0.246 OA
ATOM      9  N1    T A   1       8.395  -3.584  25.030  0.00  0.00    -0.274 N 
ATOM     10  C6    T A   1       7.126  -3.432  25.581  0.00  0.00    +0.101 A 
ENDROOT
BRANCH   9  11
ATOM     11  C1*   T A   1       8.719  -2.861  23.787  0.00  0.00    +0.226 C 
ATOM     12  O4*   T A   1       7.776  -1.766  23.635  0.00  0.00    -0.348 OA
ATOM     13  C4*   T A   1       8.478  -0.514  23.820  0.00  0.00    +0.175 C 
ATOM     14  C3*   T A   1       9.874  -0.865  24.319  0.00  0.00    +0.150 C 
ATOM     15  C2*   T A   1      10.089  -2.202  23.657  0.00  0.00    +0.088 C 
BRANCH  14  16
ATOM     16  O3*   T A   1      10.844   0.100  23.943  0.00  0.00    -0.389 OA
ATOM     17  H3*   T A   1      10.407   0.952  23.774  0.00  0.00    +0.210 HD
ENDBRANCH  14  16
BRANCH  13  18
ATOM     18  C5*   T A   1       7.703   0.392  24.776  0.00  0.00    +0.190 C 
BRANCH  18  19
ATOM     19  O5*   T A   1       8.581   1.147  25.610  0.00  0.00    -0.392 OA
ATOM     20  H5*   T A   1       9.374   0.597  25.736  0.00  0.00    +0.210 HD
ENDBRANCH  18  19
ENDBRANCH  13  18
ENDBRANCH   9  11
TORSDOF 4
ENDMDL
MODEL 2
REMARK VINA RESULT:      -5.7      2.571      3.418
REMARK  Name = 
REMARK  5 active torsions:
REMARK  status: ('A' for Active; 'I' for Inactive)
REMARK    1  A    between atoms: C5M_1  and  C5_2
REMARK    2  A    between atoms: N1_4  and  C1*_10
REMARK    3  A    between atoms: C3*_13  and  O3*_20
REMARK    4  A    between atoms: C4*_15  and  C5*_18
REMARK    5  A    between atoms: C5*_18  and  O5*_19
REMARK                            x       y       z     vdW  Elec       q    Type
REMARK                         _______ _______ _______ _____ _____    ______ ____
ROOT
ATOM      1  C5M   T A   1       5.841  -5.920  21.902  0.00  0.00    +0.051 C 
ATOM      2  C5    T A   1       6.175  -5.692  23.339  0.00  0.00    +0.030 A 
ATOM      3  C4    T A   1       5.326  -6.359  24.349  0.00  0.00    +0.257 A 
ATOM      4  O4    T A   1       4.435  -7.140  24.038  0.00  0.00    -0.267 OA
ATOM      5  N3    T A   1       5.634  -6.088  25.649  0.00  0.00    -0.275 N 
ATOM      6  H3    T A   1       5.124  -6.615  26.339  0.00  0.00    +0.173 HD
ATOM      7  C2    T A   1       6.804  -5.521  26.076  0.00  0.00    +0.331 A 
ATOM      8  O2    T A   1       7.163  -5.703  27.237  0.00  0.00    -0.246 OA
ATOM      9  N1    T A   1       7.517  -4.802  25.123  0.00  0.00    -0.274 N 
ATOM     10  C6    T A   1       7.206  -4.958  23.775  0.00  0.00    +0.101 A 
ENDROOT
BRANCH   9  11
ATOM     11  C1*   T A   1       8.792  -4.158  25.486  0.00  0.00    +0.226 C 
ATOM     12  O4*   T A   1       9.527  -3.878  24.264  0.00  0.00    -0.348 OA
ATOM     13  C4*   T A   1       9.569  -2.445  24.060  0.00  0.00    +0.175 C 
ATOM     14  C3*   T A   1       8.634  -1.829  25.092  0.00  0.00    +0.150 C 
ATOM     15  C2*   T A   1       8.757  -2.821  26.220  0.00  0.00    +0.088 C 
BRANCH  14  16
ATOM     16  O3*   T A   1       9.025  -0.517  25.465  0.00  0.00    -0.389 OA
ATOM     17  H3*   T A   1       9.991  -0.483  25.575  0.00  0.00    +0.210 HD
ENDBRANCH  14  16
BRANCH  13  18
ATOM     18  C5*   T A   1       9.192  -2.105  22.619  0.00  0.00    +0.190 C 
BRANCH  18  19
ATOM     19  O5*   T A   1      10.328  -1.682  21.866  0.00  0.00    -0.392 OA
ATOM     20  H5*   T A   1      10.592  -2.445  21.323  0.00  0.00    +0.210 HD
ENDBRANCH  18  19
ENDBRANCH  13  18
ENDBRANCH   9  11
TORSDOF 4
ENDMDL
MODEL 3
REMARK VINA RESULT:      -5.7      2.343      3.131
REMARK  Name = 
REMARK  5 active torsions:
REMARK  status: ('A' for Active; 'I' for Inactive)
REMARK    1  A    between atoms: C5M_1  and  C5_2
REMARK    2  A    between atoms: N1_4  and  C1*_10
REMARK    3  A    between atoms: C3*_13  and  O3*_20
REMARK    4  A    between atoms: C4*_15  and  C5*_18
REMARK    5  A    between atoms: C5*_18  and  O5*_19
REMARK                            x       y       z     vdW  Elec       q    Type
REMARK                         _______ _______ _______ _____ _____    ______ ____
ROOT
ATOM      1  C5M   T A   1       5.957  -3.804  21.355  0.00  0.00    +0.051 C 
ATOM      2  C5    T A   1       6.915  -3.869  22.498  0.00  0.00    +0.030 A 
ATOM      3  C4    T A   1       6.752  -4.979  23.461  0.00  0.00    +0.257 A 
ATOM      4  O4    T A   1       5.926  -5.869  23.295  0.00  0.00    -0.267 OA
ATOM      5  N3    T A   1       7.616  -4.976  24.515  0.00  0.00    -0.275 N 
ATOM      6  H3    T A   1       7.574  -5.782  25.118  0.00  0.00    +0.173 HD
ATOM      7  C2    T A   1       8.767  -4.238  24.585  0.00  0.00    +0.331 A 
ATOM      8  O2    T A   1       9.663  -4.605  25.340  0.00  0.00    -0.246 OA
ATOM      9  N1    T A   1       8.832  -3.132  23.745  0.00  0.00    -0.274 N 
ATOM     10  C6    T A   1       7.928  -3.017  22.692  0.00  0.00    +0.101 A 
ENDROOT
BRANCH   9  11
ATOM     11  C1*   T A   1      10.033  -2.276  23.745  0.00  0.00    +0.226 C 
ATOM     12  O4*   T A   1      10.274  -1.826  22.384  0.00  0.00    -0.348 OA
ATOM     13  C4*   T A   1      10.013  -0.405  22.308  0.00  0.00    +0.175 C 
ATOM     14  C3*   T A   1       9.377  -0.004  23.633  0.00  0.00    +0.150 C 
ATOM     15  C2*   T A   1      10.021  -0.993  24.571  0.00  0.00    +0.088 C 
BRANCH  14  16
ATOM     16  O3*   T A   1       9.648   1.344  23.981  0.00  0.00    -0.389 OA
ATOM     17  H3*   T A   1      10.310   1.711  23.370  0.00  0.00    +0.210 HD
ENDBRANCH  14  16
BRANCH  13  18
ATOM     18  C5*   T A   1       9.136  -0.092  21.096  0.00  0.00    +0.190 C 
BRANCH  18  19
ATOM     19  O5*   T A   1       8.841   1.301  21.009  0.00  0.00    -0.392 OA
ATOM     20  H5*   T A   1       9.083   1.684  21.871  0.00  0.00    +0.210 HD
ENDBRANCH  18  19
ENDBRANCH  13  18
ENDBRANCH   9  11
TORSDOF 4
ENDMDL
MODEL 4
REMARK VINA RESULT:      -5.6      3.053      4.003
REMARK  Name = 
REMARK  5 active torsions:
REMARK  status: ('A' for Active; 'I' for Inactive)
REMARK    1  A    between atoms: C5M_1  and  C5_2
REMARK    2  A    between atoms: N1_4  and  C1*_10
REMARK    3  A    between atoms: C3*_13  and  O3*_20
REMARK    4  A    between atoms: C4*_15  and  C5*_18
REMARK    5  A    between atoms: C5*_18  and  O5*_19
REMARK                            x       y       z     vdW  Elec       q    Type
REMARK                         _______ _______ _______ _____ _____    ______ ____
ROOT
ATOM      1  C5M   T A   1       4.668  -6.862  26.918  0.00  0.00    +0.051 C 
ATOM      2  C5    T A   1       4.949  -6.336  25.550  0.00  0.00    +0.030 A 
ATOM      3  C4    T A   1       4.319  -7.033  24.409  0.00  0.00    +0.257 A 
ATOM      4  O4    T A   1       3.524  -7.953  24.566  0.00  0.00    -0.267 OA
ATOM      5  N3    T A   1       4.638  -6.551  23.175  0.00  0.00    -0.275 N 
ATOM      6  H3    T A   1       4.136  -6.958  22.402  0.00  0.00    +0.173 HD
ATOM      7  C2    T A   1       5.223  -5.337  22.933  0.00  0.00    +0.331 A 
ATOM      8  O2    T A   1       5.084  -4.821  21.827  0.00  0.00    -0.246 OA
ATOM      9  N1    T A   1       5.907  -4.768  24.002  0.00  0.00    -0.274 N 
ATOM     10  C6    T A   1       5.700  -5.260  25.287  0.00  0.00    +0.101 A 
ENDROOT
BRANCH   9  11
ATOM     11  C1*   T A   1       6.567  -3.459  23.841  0.00  0.00    +0.226 C 
ATOM     12  O4*   T A   1       6.845  -2.922  25.163  0.00  0.00    -0.348 OA
ATOM     13  C4*   T A   1       8.277  -2.928  25.378  0.00  0.00    +0.175 C 
ATOM     14  C3*   T A   1       8.891  -3.701  24.219  0.00  0.00    +0.150 C 
ATOM     15  C2*   T A   1       7.909  -3.397  23.117  0.00  0.00    +0.088 C 
BRANCH  14  16
ATOM     16  O3*   T A   1      10.210  -3.273  23.917  0.00  0.00    -0.389 OA
ATOM     17  H3*   T A   1      10.238  -2.918  23.012  0.00  0.00    +0.210 HD
ENDBRANCH  14  16
BRANCH  13  18
ATOM     18  C5*   T A   1       8.603  -3.525  26.746  0.00  0.00    +0.190 C 
BRANCH  18  19
ATOM     19  O5*   T A   1       9.242  -4.795  26.624  0.00  0.00    -0.392 OA
ATOM     20  H5*   T A   1       9.060  -5.103  25.719  0.00  0.00    +0.210 HD
ENDBRANCH  18  19
ENDBRANCH  13  18
ENDBRANCH   9  11
TORSDOF 4
ENDMDL
MODEL 5
REMARK VINA RESULT:      -5.6      3.134      4.311
REMARK  Name = 
REMARK  5 active torsions:
REMARK  status: ('A' for Active; 'I' for Inactive)
REMARK    1  A    between atoms: C5M_1  and  C5_2
REMARK    2  A    between atoms: N1_4  and  C1*_10
REMARK    3  A    between atoms: C3*_13  and  O3*_20
REMARK    4  A    between atoms: C4*_15  and  C5*_18
REMARK    5  A    between atoms: C5*_18  and  O5*_19
REMARK                            x       y       z     vdW  Elec       q    Type
REMARK                         _______ _______ _______ _____ _____    ______ ____
ROOT
ATOM      1  C5M   T A   1       3.852  -7.147  25.963  0.00  0.00    +0.051 C 
ATOM      2  C5    T A   1       5.075  -6.335  26.235  0.00  0.00    +0.030 A 
ATOM      3  C4    T A   1       5.787  -6.582  27.507  0.00  0.00    +0.257 A 
ATOM      4  O4    T A   1       5.454  -7.473  28.278  0.00  0.00    -0.267 OA
ATOM      5  N3    T A   1       6.871  -5.788  27.738  0.00  0.00    -0.275 N 
ATOM      6  H3    T A   1       7.416  -6.018  28.554  0.00  0.00    +0.173 HD
ATOM      7  C2    T A   1       7.504  -5.028  26.792  0.00  0.00    +0.331 A 
ATOM      8  O2    T A   1       8.673  -4.700  26.978  0.00  0.00    -0.246 OA
ATOM      9  N1    T A   1       6.758  -4.719  25.660  0.00  0.00    -0.274 N 
ATOM     10  C6    T A   1       5.589  -5.428  25.396  0.00  0.00    +0.101 A 
ENDROOT
BRANCH   9  11
ATOM     11  C1*   T A   1       7.353  -3.908  24.583  0.00  0.00    +0.226 C 
ATOM     12  O4*   T A   1       7.975  -4.807  23.624  0.00  0.00    -0.348 OA
ATOM     13  C4*   T A   1       7.216  -4.773  22.392  0.00  0.00    +0.175 C 
ATOM     14  C3*   T A   1       5.949  -3.979  22.679  0.00  0.00    +0.150 C 
ATOM     15  C2*   T A   1       6.441  -3.025  23.737  0.00  0.00    +0.088 C 
BRANCH  14  16
ATOM     16  O3*   T A   1       5.449  -3.317  21.528  0.00  0.00    -0.389 OA
ATOM     17  H3*   T A   1       4.644  -3.767  21.217  0.00  0.00    +0.210 HD
ENDBRANCH  14  16
BRANCH  13  18
ATOM     18  C5*   T A   1       6.943  -6.194  21.900  0.00  0.00    +0.190 C 
BRANCH  18  19
ATOM     19  O5*   T A   1       5.574  -6.368  21.538  0.00  0.00    -0.392 OA
ATOM     20  H5*   T A   1       5.169  -5.484  21.577  0.00  0.00    +0.210 HD
ENDBRANCH  18  19
ENDBRANCH  13  18
ENDBRANCH   9  11
TORSDOF 4
ENDMDL
MODEL 6
REMARK VINA RESULT:      -5.6      1.733      2.774
REMARK  Name = 
REMARK  5 active torsions:
REMARK  status: ('A' for Active; 'I' for Inactive)
REMARK    1  A    between atoms: C5M_1  and  C5_2
REMARK    2  A    between atoms: N1_4  and  C1*_10
REMARK    3  A    between atoms: C3*_13  and  O3*_20
REMARK    4  A    between atoms: C4*_15  and  C5*_18
REMARK    5  A    between atoms: C5*_18  and  O5*_19
REMARK                            x       y       z     vdW  Elec       q    Type
REMARK                         _______ _______ _______ _____ _____    ______ ____
ROOT
ATOM      1  C5M   T A   1       5.404  -3.858  27.708  0.00  0.00    +0.051 C 
ATOM      2  C5    T A   1       6.635  -4.175  26.926  0.00  0.00    +0.030 A 
ATOM      3  C4    T A   1       7.323  -5.449  27.225  0.00  0.00    +0.257 A 
ATOM      4  O4    T A   1       6.866  -6.266  28.016  0.00  0.00    -0.267 OA
ATOM      5  N3    T A   1       8.468  -5.679  26.523  0.00  0.00    -0.275 N 
ATOM      6  H3    T A   1       8.885  -6.588  26.651  0.00  0.00    +0.173 HD
ATOM      7  C2    T A   1       8.848  -5.001  25.396  0.00  0.00    +0.331 A 
ATOM      8  O2    T A   1       9.634  -5.536  24.618  0.00  0.00    -0.246 OA
ATOM      9  N1    T A   1       8.264  -3.753  25.211  0.00  0.00    -0.274 N 
ATOM     10  C6    T A   1       7.139  -3.406  25.953  0.00  0.00    +0.101 A 
ENDROOT
BRANCH   9  11
ATOM     11  C1*   T A   1       8.607  -2.947  24.025  0.00  0.00    +0.226 C 
ATOM     12  O4*   T A   1       7.898  -3.494  22.880  0.00  0.00    -0.348 OA
ATOM     13  C4*   T A   1       6.880  -2.552  22.466  0.00  0.00    +0.175 C 
ATOM     14  C3*   T A   1       6.822  -1.471  23.537  0.00  0.00    +0.150 C 
ATOM     15  C2*   T A   1       8.251  -1.463  24.017  0.00  0.00    +0.088 C 
BRANCH  14  16
ATOM     16  O3*   T A   1       6.405  -0.217  23.022  0.00  0.00    -0.389 OA
ATOM     17  H3*   T A   1       5.841   0.233  23.675  0.00  0.00    +0.210 HD
ENDBRANCH  14  16
BRANCH  13  18
ATOM     18  C5*   T A   1       5.548  -3.270  22.255  0.00  0.00    +0.190 C 
BRANCH  18  19
ATOM     19  O5*   T A   1       5.649  -4.275  21.246  0.00  0.00    -0.392 OA
ATOM     20  H5*   T A   1       5.837  -5.108  21.712  0.00  0.00    +0.210 HD
ENDBRANCH  18  19
ENDBRANCH  13  18
ENDBRANCH   9  11
TORSDOF 4
ENDMDL
MODEL 7
REMARK VINA RESULT:      -5.4      2.831      3.842
REMARK  Name = 
REMARK  5 active torsions:
REMARK  status: ('A' for Active; 'I' for Inactive)
REMARK    1  A    between atoms: C5M_1  and  C5_2
REMARK    2  A    between atoms: N1_4  and  C1*_10
REMARK    3  A    between atoms: C3*_13  and  O3*_20
REMARK    4  A    between atoms: C4*_15  and  C5*_18
REMARK    5  A    between atoms: C5*_18  and  O5*_19
REMARK                            x       y       z     vdW  Elec       q    Type
REMARK                         _______ _______ _______ _____ _____    ______ ____
ROOT
ATOM      1  C5M   T A   1       5.701  -1.791  24.580  0.00  0.00    +0.051 C 
ATOM      2  C5    T A   1       7.068  -1.635  24.002  0.00  0.00    +0.030 A 
ATOM      3  C4    T A   1       8.023  -2.746  24.203  0.00  0.00    +0.257 A 
ATOM      4  O4    T A   1       7.696  -3.796  24.742  0.00  0.00    -0.267 OA
ATOM      5  N3    T A   1       9.274  -2.544  23.700  0.00  0.00    -0.275 N 
ATOM      6  H3    T A   1       9.897  -3.335  23.747  0.00  0.00    +0.173 HD
ATOM      7  C2    T A   1       9.610  -1.572  22.798  0.00  0.00    +0.331 A 
ATOM      8  O2    T A   1      10.611  -1.728  22.103  0.00  0.00    -0.246 OA
ATOM      9  N1    T A   1       8.746  -0.486  22.723  0.00  0.00    -0.274 N 
ATOM     10  C6    T A   1       7.477  -0.580  23.287  0.00  0.00    +0.101 A 
ENDROOT
BRANCH   9  11
ATOM     11  C1*   T A   1       9.021   0.612  21.777  0.00  0.00    +0.226 C 
ATOM     12  O4*   T A   1       7.817   1.415  21.646  0.00  0.00    -0.348 OA
ATOM     13  C4*   T A   1       8.047   2.707  22.257  0.00  0.00    +0.175 C 
ATOM     14  C3*   T A   1       9.381   2.616  22.985  0.00  0.00    +0.150 C 
ATOM     15  C2*   T A   1      10.113   1.621  22.121  0.00  0.00    +0.088 C 
BRANCH  14  16
ATOM     16  O3*   T A   1      10.042   3.868  23.067  0.00  0.00    -0.389 OA
ATOM     17  H3*   T A   1      11.005   3.732  23.027  0.00  0.00    +0.210 HD
ENDBRANCH  14  16
BRANCH  13  18
ATOM     18  C5*   T A   1       6.880   3.073  23.173  0.00  0.00    +0.190 C 
BRANCH  18  19
ATOM     19  O5*   T A   1       7.166   4.239  23.945  0.00  0.00    -0.392 OA
ATOM     20  H5*   T A   1       6.345   4.457  24.420  0.00  0.00    +0.210 HD
ENDBRANCH  18  19
ENDBRANCH  13  18
ENDBRANCH   9  11
TORSDOF 4
ENDMDL
MODEL 8
REMARK VINA RESULT:      -5.3      2.483      5.343
REMARK  Name = 
REMARK  5 active torsions:
REMARK  status: ('A' for Active; 'I' for Inactive)
REMARK    1  A    between atoms: C5M_1  and  C5_2
REMARK    2  A    between atoms: N1_4  and  C1*_10
REMARK    3  A    between atoms: C3*_13  and  O3*_20
REMARK    4  A    between atoms: C4*_15  and  C5*_18
REMARK    5  A    between atoms: C5*_18  and  O5*_19
REMARK                            x       y       z     vdW  Elec       q    Type
REMARK                         _______ _______ _______ _____ _____    ______ ____
ROOT
ATOM      1  C5M   T A   1       9.833   0.198  21.805  0.00  0.00    +0.051 C 
ATOM      2  C5    T A   1       9.664  -0.212  23.230  0.00  0.00    +0.030 A 
ATOM      3  C4    T A   1      10.121   0.735  24.270  0.00  0.00    +0.257 A 
ATOM      4  O4    T A   1      10.543   1.851  23.994  0.00  0.00    -0.267 OA
ATOM      5  N3    T A   1       9.993   0.303  25.557  0.00  0.00    -0.275 N 
ATOM      6  H3    T A   1      10.211   0.982  26.269  0.00  0.00    +0.173 HD
ATOM      7  C2    T A   1       9.226  -0.758  25.956  0.00  0.00    +0.331 A 
ATOM      8  O2    T A   1       8.841  -0.806  27.122  0.00  0.00    -0.246 OA
ATOM      9  N1    T A   1       8.915  -1.689  24.972  0.00  0.00    -0.274 N 
ATOM     10  C6    T A   1       9.098  -1.356  23.633  0.00  0.00    +0.101 A 
ENDROOT
BRANCH   9  11
ATOM     11  C1*   T A   1       8.090  -2.865  25.304  0.00  0.00    +0.226 C 
ATOM     12  O4*   T A   1       6.737  -2.623  24.831  0.00  0.00    -0.348 OA
ATOM     13  C4*   T A   1       6.464  -3.512  23.721  0.00  0.00    +0.175 C 
ATOM     14  C3*   T A   1       7.783  -4.182  23.361  0.00  0.00    +0.150 C 
ATOM     15  C2*   T A   1       8.465  -4.218  24.705  0.00  0.00    +0.088 C 
BRANCH  14  16
ATOM     16  O3*   T A   1       7.603  -5.472  22.798  0.00  0.00    -0.389 OA
ATOM     17  H3*   T A   1       7.902  -6.148  23.431  0.00  0.00    +0.210 HD
ENDBRANCH  14  16
BRANCH  13  18
ATOM     18  C5*   T A   1       5.841  -2.735  22.562  0.00  0.00    +0.190 C 
BRANCH  18  19
ATOM     19  O5*   T A   1       5.564  -3.587  21.451  0.00  0.00    -0.392 OA
ATOM     20  H5*   T A   1       5.894  -3.119  20.663  0.00  0.00    +0.210 HD
ENDBRANCH  18  19
ENDBRANCH  13  18
ENDBRANCH   9  11
TORSDOF 4
ENDMDL
MODEL 9
REMARK VINA RESULT:      -5.3      2.911      4.090
REMARK  Name = 
REMARK  5 active torsions:
REMARK  status: ('A' for Active; 'I' for Inactive)
REMARK    1  A    between atoms: C5M_1  and  C5_2
REMARK    2  A    between atoms: N1_4  and  C1*_10
REMARK    3  A    between atoms: C3*_13  and  O3*_20
REMARK    4  A    between atoms: C4*_15  and  C5*_18
REMARK    5  A    between atoms: C5*_18  and  O5*_19
REMARK                            x       y       z     vdW  Elec       q    Type
REMARK                         _______ _______ _______ _____ _____    ______ ____
ROOT
ATOM      1  C5M   T A   1       8.222  -0.419  26.780  0.00  0.00    +0.051 C 
ATOM      2  C5    T A   1       8.898  -0.735  25.488  0.00  0.00    +0.030 A 
ATOM      3  C4    T A   1       9.120  -2.160  25.166  0.00  0.00    +0.257 A 
ATOM      4  O4    T A   1       8.693  -3.063  25.876  0.00  0.00    -0.267 OA
ATOM      5  N3    T A   1       9.783  -2.404  24.000  0.00  0.00    -0.275 N 
ATOM      6  H3    T A   1       9.849  -3.372  23.728  0.00  0.00    +0.173 HD
ATOM      7  C2    T A   1       9.977  -1.489  23.001  0.00  0.00    +0.331 A 
ATOM      8  O2    T A   1      10.191  -1.892  21.860  0.00  0.00    -0.246 OA
ATOM      9  N1    T A   1       9.875  -0.153  23.371  0.00  0.00    -0.274 N 
ATOM     10  C6    T A   1       9.286   0.177  24.589  0.00  0.00    +0.101 A 
ENDROOT
BRANCH   9  11
ATOM     11  C1*   T A   1      10.064   0.908  22.365  0.00  0.00    +0.226 C 
ATOM     12  O4*   T A   1       8.831   1.045  21.608  0.00  0.00    -0.348 OA
ATOM     13  C4*   T A   1       8.220   2.316  21.935  0.00  0.00    +0.175 C 
ATOM     14  C3*   T A   1       9.005   2.891  23.106  0.00  0.00    +0.150 C 
ATOM     15  C2*   T A   1      10.376   2.324  22.839  0.00  0.00    +0.088 C 
BRANCH  14  16
ATOM     16  O3*   T A   1       8.989   4.310  23.128  0.00  0.00    -0.389 OA
ATOM     17  H3*   T A   1       9.125   4.651  22.227  0.00  0.00    +0.210 HD
ENDBRANCH  14  16
BRANCH  13  18
ATOM     18  C5*   T A   1       6.734   2.126  22.236  0.00  0.00    +0.190 C 
BRANCH  18  19
ATOM     19  O5*   T A   1       6.443   0.780  22.608  0.00  0.00    -0.392 OA
ATOM     20  H5*   T A   1       6.552   0.737  23.575  0.00  0.00    +0.210 HD
ENDBRANCH  18  19
ENDBRANCH  13  18
ENDBRANCH   9  11
TORSDOF 4
ENDMDL
