MODEL 1
REMARK VINA RESULT:      -6.4      0.000      0.000
REMARK  Name = 
REMARK  19 active torsions:
REMARK  status: ('A' for Active; 'I' for Inactive)
REMARK    1  A    between atoms: C_1  and  C_2
REMARK    2  A    between atoms: C_2  and  C_3
REMARK    3  A    between atoms: C_2  and  C_4
REMARK    4  A    between atoms: C_4  and  C_6
REMARK    5  A    between atoms: C_4  and  N_54
REMARK    6  A    between atoms: C_12  and  C_14
REMARK    7  A    between atoms: C_17  and  C_19
REMARK    8  A    between atoms: C_22  and  C_25
REMARK    9  A    between atoms: C_28  and  C_31
REMARK   10  A    between atoms: C_34  and  C_36
REMARK   11  A    between atoms: C_42  and  C_44
REMARK   12  A    between atoms: C_44  and  C_46
REMARK   13  A    between atoms: C_44  and  N_49
REMARK   14  A    between atoms: C_46  and  C_47
REMARK   15  A    between atoms: C_46  and  C_48
REMARK   16  A    between atoms: C_50  and  O_52
REMARK   17  A    between atoms: O_52  and  C_53
REMARK   18  A    between atoms: C_55  and  O_57
REMARK   19  A    between atoms: O_57  and  C_58
REMARK                            x       y       z     vdW  Elec       q    Type
REMARK                         _______ _______ _______ _____ _____    ______ ____
ROOT
ATOM      1  C   UNL     1       6.332  -4.696  23.627  0.00  0.00    -0.000 A 
ATOM      2  C   UNL     1       6.417  -3.918  22.471  0.00  0.00    +0.010 A 
ATOM      3  C   UNL     1       7.310  -2.844  22.393  0.00  0.00    +0.009 A 
ATOM      4  C   UNL     1       8.126  -2.491  23.478  0.00  0.00    -0.018 A 
ATOM      5  C   UNL     1       8.097  -3.339  24.601  0.00  0.00    +0.009 A 
ATOM      6  C   UNL     1       7.217  -4.428  24.674  0.00  0.00    +0.010 A 
ENDROOT
BRANCH   1  10
ATOM      7  C   UNL     1       3.752  -7.067  24.623  0.00  0.00    +0.128 A 
ATOM      8  N   UNL     1       4.737  -6.152  24.917  0.00  0.00    -0.340 N 
ATOM      9  H   UNL     1       5.008  -5.857  25.843  0.00  0.00    +0.167 HD
ATOM     10  C   UNL     1       5.280  -5.700  23.741  0.00  0.00    +0.066 A 
ATOM     11  C   UNL     1       4.582  -6.396  22.771  0.00  0.00    +0.139 A 
ATOM     12  N   UNL     1       3.638  -7.220  23.320  0.00  0.00    -0.238 NA
BRANCH   7  15
ATOM     13  C   UNL     1       2.078  -5.840  27.208  0.00  0.00    +0.237 C 
ATOM     14  N   UNL     1       1.918  -6.796  26.222  0.00  0.00    -0.290 N 
ATOM     15  C   UNL     1       2.895  -7.727  25.654  0.00  0.00    +0.142 C 
ATOM     16  C   UNL     1       2.060  -8.869  25.036  0.00  0.00    +0.032 C 
ATOM     17  C   UNL     1       0.607  -8.545  25.371  0.00  0.00    +0.021 C 
ATOM     18  C   UNL     1       0.606  -7.057  25.659  0.00  0.00    +0.108 C 
ATOM     19  O   UNL     1       1.077  -5.269  27.670  0.00  0.00    -0.274 OA
BRANCH  13  20
ATOM     20  C   UNL     1       3.487  -5.429  27.741  0.00  0.00    +0.165 C 
BRANCH  20  21
ATOM     21  N   UNL     1       3.408  -3.968  27.911  0.00  0.00    -0.270 N 
ATOM     22  H   UNL     1       2.488  -3.560  28.025  0.00  0.00    +0.153 HD
ATOM     23  C   UNL     1       4.403  -3.079  27.697  0.00  0.00    +0.401 C 
ATOM     24  O   UNL     1       5.540  -3.343  27.343  0.00  0.00    -0.226 OA
BRANCH  23  25
ATOM     25  O   UNL     1       3.926  -1.835  27.954  0.00  0.00    -0.454 OA
ATOM     26  C   UNL     1       4.916  -0.806  27.977  0.00  0.00    +0.282 C 
ENDBRANCH  23  25
ENDBRANCH  20  21
BRANCH  20  28
ATOM     27  C   UNL     1       3.166  -7.273  29.550  0.00  0.00    +0.009 C 
ATOM     28  C   UNL     1       3.933  -6.017  29.107  0.00  0.00    +0.012 C 
ATOM     29  C   UNL     1       5.429  -6.280  29.225  0.00  0.00    +0.009 C 
ENDBRANCH  20  28
ENDBRANCH  13  20
ENDBRANCH   7  15
ENDBRANCH   1  10
BRANCH   4  30
ATOM     30  C   UNL     1       8.883  -1.217  23.489  0.00  0.00    -0.018 A 
ATOM     31  C   UNL     1       8.915  -0.396  22.345  0.00  0.00    +0.009 A 
ATOM     32  C   UNL     1       9.494   0.876  22.366  0.00  0.00    +0.010 A 
ATOM     33  C   UNL     1      10.049   1.379  23.540  0.00  0.00    -0.000 A 
ATOM     34  C   UNL     1      10.071   0.559  24.674  0.00  0.00    +0.010 A 
ATOM     35  C   UNL     1       9.506  -0.723  24.645  0.00  0.00    +0.009 A 
BRANCH  33  36
ATOM     36  C   UNL     1      10.535   2.749  23.586  0.00  0.00    +0.066 A 
ATOM     37  N   UNL     1       9.733   3.811  23.908  0.00  0.00    -0.340 N 
ATOM     38  H   UNL     1       8.753   3.761  24.145  0.00  0.00    +0.167 HD
ATOM     39  C   UNL     1      10.464   4.969  23.825  0.00  0.00    +0.128 A 
ATOM     40  N   UNL     1      11.693   4.705  23.429  0.00  0.00    -0.238 NA
ATOM     41  C   UNL     1      11.739   3.341  23.262  0.00  0.00    +0.139 A 
BRANCH  39  42
ATOM     42  C   UNL     1       9.896   6.310  24.197  0.00  0.00    +0.142 C 
ATOM     43  N   UNL     1       8.766   6.149  25.120  0.00  0.00    -0.290 N 
ATOM     44  C   UNL     1       7.459   5.816  24.827  0.00  0.00    +0.237 C 
ATOM     45  O   UNL     1       6.640   5.637  25.737  0.00  0.00    -0.274 OA
ATOM     46  C   UNL     1       9.201   6.309  26.505  0.00  0.00    +0.108 C 
ATOM     47  C   UNL     1      10.703   6.566  26.441  0.00  0.00    +0.021 C 
ATOM     48  C   UNL     1      10.910   7.105  25.027  0.00  0.00    +0.032 C 
BRANCH  44  49
ATOM     49  C   UNL     1       7.032   5.633  23.352  0.00  0.00    +0.165 C 
BRANCH  49  50
ATOM     50  N   UNL     1       6.265   4.394  23.261  0.00  0.00    -0.270 N 
ATOM     51  H   UNL     1       5.650   4.141  24.022  0.00  0.00    +0.153 HD
ATOM     52  C   UNL     1       6.607   3.393  22.409  0.00  0.00    +0.401 C 
ATOM     53  O   UNL     1       7.505   3.460  21.585  0.00  0.00    -0.226 OA
BRANCH  52  54
ATOM     54  O   UNL     1       5.817   2.313  22.612  0.00  0.00    -0.454 OA
ATOM     55  C   UNL     1       6.107   1.619  23.824  0.00  0.00    +0.282 C 
ENDBRANCH  52  54
ENDBRANCH  49  50
BRANCH  49  56
ATOM     56  C   UNL     1       6.235   6.848  22.799  0.00  0.00    +0.012 C 
ATOM     57  C   UNL     1       4.713   6.720  22.917  0.00  0.00    +0.009 C 
ATOM     58  C   UNL     1       6.607   7.105  21.328  0.00  0.00    +0.009 C 
ENDBRANCH  49  56
ENDBRANCH  44  49
ENDBRANCH  39  42
ENDBRANCH  33  36
ENDBRANCH   4  30
TORSDOF 13
ENDMDL
MODEL 2
REMARK VINA RESULT:      -5.4      1.893     12.583
REMARK  Name = 
REMARK  19 active torsions:
REMARK  status: ('A' for Active; 'I' for Inactive)
REMARK    1  A    between atoms: C_1  and  C_2
REMARK    2  A    between atoms: C_2  and  C_3
REMARK    3  A    between atoms: C_2  and  C_4
REMARK    4  A    between atoms: C_4  and  C_6
REMARK    5  A    between atoms: C_4  and  N_54
REMARK    6  A    between atoms: C_12  and  C_14
REMARK    7  A    between atoms: C_17  and  C_19
REMARK    8  A    between atoms: C_22  and  C_25
REMARK    9  A    between atoms: C_28  and  C_31
REMARK   10  A    between atoms: C_34  and  C_36
REMARK   11  A    between atoms: C_42  and  C_44
REMARK   12  A    between atoms: C_44  and  C_46
REMARK   13  A    between atoms: C_44  and  N_49
REMARK   14  A    between atoms: C_46  and  C_47
REMARK   15  A    between atoms: C_46  and  C_48
REMARK   16  A    between atoms: C_50  and  O_52
REMARK   17  A    between atoms: O_52  and  C_53
REMARK   18  A    between atoms: C_55  and  O_57
REMARK   19  A    between atoms: O_57  and  C_58
REMARK                            x       y       z     vdW  Elec       q    Type
REMARK                         _______ _______ _______ _____ _____    ______ ____
ROOT
ATOM      1  C   UNL     1       9.160   1.028  24.322  0.00  0.00    -0.000 A 
ATOM      2  C   UNL     1       9.784   0.136  25.196  0.00  0.00    +0.010 A 
ATOM      3  C   UNL     1       9.090  -0.956  25.724  0.00  0.00    +0.009 A 
ATOM      4  C   UNL     1       7.737  -1.178  25.422  0.00  0.00    -0.018 A 
ATOM      5  C   UNL     1       7.148  -0.327  24.470  0.00  0.00    +0.009 A 
ATOM      6  C   UNL     1       7.848   0.758  23.923  0.00  0.00    +0.010 A 
ENDROOT
BRANCH   1  10
ATOM      7  C   UNL     1      10.408   4.401  23.740  0.00  0.00    +0.128 A 
ATOM      8  N   UNL     1       9.498   3.521  24.280  0.00  0.00    -0.340 N 
ATOM      9  H   UNL     1       8.707   3.771  24.853  0.00  0.00    +0.167 HD
ATOM     10  C   UNL     1       9.855   2.245  23.920  0.00  0.00    +0.066 A 
ATOM     11  C   UNL     1      10.987   2.430  23.147  0.00  0.00    +0.139 A 
ATOM     12  N   UNL     1      11.327   3.752  23.055  0.00  0.00    -0.238 NA
BRANCH   7  15
ATOM     13  C   UNL     1       8.042   6.393  24.933  0.00  0.00    +0.237 C 
ATOM     14  N   UNL     1       9.414   6.240  25.013  0.00  0.00    -0.290 N 
ATOM     15  C   UNL     1      10.378   5.877  23.973  0.00  0.00    +0.142 C 
ATOM     16  C   UNL     1      11.743   6.387  24.483  0.00  0.00    +0.032 C 
ATOM     17  C   UNL     1      11.448   7.107  25.796  0.00  0.00    +0.021 C 
ATOM     18  C   UNL     1      10.115   6.545  26.247  0.00  0.00    +0.108 C 
ATOM     19  O   UNL     1       7.426   6.878  25.895  0.00  0.00    -0.274 OA
BRANCH  13  20
ATOM     20  C   UNL     1       7.233   5.946  23.675  0.00  0.00    +0.165 C 
BRANCH  20  21
ATOM     21  N   UNL     1       6.232   4.998  24.195  0.00  0.00    -0.270 N 
ATOM     22  H   UNL     1       5.823   5.200  25.099  0.00  0.00    +0.153 HD
ATOM     23  C   UNL     1       5.968   3.763  23.714  0.00  0.00    +0.401 C 
ATOM     24  O   UNL     1       6.505   3.235  22.755  0.00  0.00    -0.226 OA
BRANCH  23  25
ATOM     25  O   UNL     1       4.990   3.209  24.475  0.00  0.00    -0.454 OA
ATOM     26  C   UNL     1       5.220   3.271  25.883  0.00  0.00    +0.282 C 
ENDBRANCH  23  25
ENDBRANCH  20  21
BRANCH  20  28
ATOM     27  C   UNL     1       6.730   7.086  21.389  0.00  0.00    +0.009 C 
ATOM     28  C   UNL     1       6.453   7.043  22.900  0.00  0.00    +0.012 C 
ATOM     29  C   UNL     1       4.947   7.030  23.130  0.00  0.00    +0.009 C 
ENDBRANCH  20  28
ENDBRANCH  13  20
ENDBRANCH   7  15
ENDBRANCH   1  10
BRANCH   4  30
ATOM     30  C   UNL     1       6.937  -2.179  26.167  0.00  0.00    -0.018 A 
ATOM     31  C   UNL     1       5.541  -2.037  26.280  0.00  0.00    +0.009 A 
ATOM     32  C   UNL     1       4.741  -3.033  26.847  0.00  0.00    +0.010 A 
ATOM     33  C   UNL     1       5.311  -4.217  27.307  0.00  0.00    -0.000 A 
ATOM     34  C   UNL     1       6.703  -4.357  27.249  0.00  0.00    +0.010 A 
ATOM     35  C   UNL     1       7.504  -3.349  26.697  0.00  0.00    +0.009 A 
BRANCH  33  36
ATOM     36  C   UNL     1       4.459  -5.298  27.779  0.00  0.00    +0.066 A 
ATOM     37  N   UNL     1       3.100  -5.297  27.618  0.00  0.00    -0.340 N 
ATOM     38  H   UNL     1       2.559  -4.574  27.166  0.00  0.00    +0.167 HD
ATOM     39  C   UNL     1       2.576  -6.423  28.199  0.00  0.00    +0.128 A 
ATOM     40  N   UNL     1       3.533  -7.134  28.761  0.00  0.00    -0.238 NA
ATOM     41  C   UNL     1       4.695  -6.438  28.522  0.00  0.00    +0.139 A 
BRANCH  39  42
ATOM     42  C   UNL     1       1.113  -6.764  28.127  0.00  0.00    +0.142 C 
ATOM     43  N   UNL     1       0.934  -8.194  27.851  0.00  0.00    -0.290 N 
ATOM     44  C   UNL     1       1.019  -8.852  26.640  0.00  0.00    +0.237 C 
ATOM     45  O   UNL     1       0.923 -10.084  26.589  0.00  0.00    -0.274 OA
ATOM     46  C   UNL     1       0.717  -8.938  29.088  0.00  0.00    +0.108 C 
ATOM     47  C   UNL     1       0.786  -7.907  30.209  0.00  0.00    +0.021 C 
ATOM     48  C   UNL     1       0.460  -6.593  29.503  0.00  0.00    +0.032 C 
BRANCH  44  49
ATOM     49  C   UNL     1       1.270  -8.039  25.348  0.00  0.00    +0.165 C 
BRANCH  49  50
ATOM     50  N   UNL     1       2.705  -8.066  25.078  0.00  0.00    -0.270 N 
ATOM     51  H   UNL     1       3.246  -8.863  25.381  0.00  0.00    +0.153 HD
ATOM     52  C   UNL     1       3.407  -6.939  24.790  0.00  0.00    +0.401 C 
ATOM     53  O   UNL     1       2.913  -5.834  24.635  0.00  0.00    -0.226 OA
BRANCH  52  54
ATOM     54  O   UNL     1       4.729  -7.218  24.710  0.00  0.00    -0.454 OA
ATOM     55  C   UNL     1       5.469  -6.246  23.973  0.00  0.00    +0.282 C 
ENDBRANCH  52  54
ENDBRANCH  49  50
BRANCH  49  56
ATOM     56  C   UNL     1       0.445  -8.559  24.137  0.00  0.00    +0.012 C 
ATOM     57  C   UNL     1       0.735 -10.010  23.743  0.00  0.00    +0.009 C 
ATOM     58  C   UNL     1       0.661  -7.650  22.915  0.00  0.00    +0.009 C 
ENDBRANCH  49  56
ENDBRANCH  44  49
ENDBRANCH  39  42
ENDBRANCH  33  36
ENDBRANCH   4  30
TORSDOF 13
ENDMDL
MODEL 3
REMARK VINA RESULT:      -3.4      1.705      2.878
REMARK  Name = 
REMARK  19 active torsions:
REMARK  status: ('A' for Active; 'I' for Inactive)
REMARK    1  A    between atoms: C_1  and  C_2
REMARK    2  A    between atoms: C_2  and  C_3
REMARK    3  A    between atoms: C_2  and  C_4
REMARK    4  A    between atoms: C_4  and  C_6
REMARK    5  A    between atoms: C_4  and  N_54
REMARK    6  A    between atoms: C_12  and  C_14
REMARK    7  A    between atoms: C_17  and  C_19
REMARK    8  A    between atoms: C_22  and  C_25
REMARK    9  A    between atoms: C_28  and  C_31
REMARK   10  A    between atoms: C_34  and  C_36
REMARK   11  A    between atoms: C_42  and  C_44
REMARK   12  A    between atoms: C_44  and  C_46
REMARK   13  A    between atoms: C_44  and  N_49
REMARK   14  A    between atoms: C_46  and  C_47
REMARK   15  A    between atoms: C_46  and  C_48
REMARK   16  A    between atoms: C_50  and  O_52
REMARK   17  A    between atoms: O_52  and  C_53
REMARK   18  A    between atoms: C_55  and  O_57
REMARK   19  A    between atoms: O_57  and  C_58
REMARK                            x       y       z     vdW  Elec       q    Type
REMARK                         _______ _______ _______ _____ _____    ______ ____
ROOT
ATOM      1  C   UNL     1       6.246  -4.339  25.425  0.00  0.00    -0.000 A 
ATOM      2  C   UNL     1       5.811  -3.320  24.576  0.00  0.00    +0.010 A 
ATOM      3  C   UNL     1       6.684  -2.310  24.160  0.00  0.00    +0.009 A 
ATOM      4  C   UNL     1       8.015  -2.265  24.604  0.00  0.00    -0.018 A 
ATOM      5  C   UNL     1       8.464  -3.347  25.383  0.00  0.00    +0.009 A 
ATOM      6  C   UNL     1       7.596  -4.373  25.785  0.00  0.00    +0.010 A 
ENDROOT
BRANCH   1  10
ATOM      7  C   UNL     1       3.545  -6.104  27.116  0.00  0.00    +0.128 A 
ATOM      8  N   UNL     1       4.275  -4.967  26.857  0.00  0.00    -0.340 N 
ATOM      9  H   UNL     1       4.097  -4.053  27.245  0.00  0.00    +0.167 HD
ATOM     10  C   UNL     1       5.277  -5.281  25.972  0.00  0.00    +0.066 A 
ATOM     11  C   UNL     1       5.101  -6.634  25.749  0.00  0.00    +0.139 A 
ATOM     12  N   UNL     1       4.029  -7.127  26.442  0.00  0.00    -0.238 NA
BRANCH   7  15
ATOM     13  C   UNL     1       0.972  -8.191  27.240  0.00  0.00    +0.237 C 
ATOM     14  N   UNL     1       1.784  -7.486  28.109  0.00  0.00    -0.290 N 
ATOM     15  C   UNL     1       2.332  -6.134  27.989  0.00  0.00    +0.142 C 
ATOM     16  C   UNL     1       2.674  -5.702  29.431  0.00  0.00    +0.032 C 
ATOM     17  C   UNL     1       2.209  -6.848  30.325  0.00  0.00    +0.021 C 
ATOM     18  C   UNL     1       2.137  -8.046  29.400  0.00  0.00    +0.108 C 
ATOM     19  O   UNL     1       0.473  -9.266  27.609  0.00  0.00    -0.274 OA
BRANCH  13  20
ATOM     20  C   UNL     1       0.683  -7.691  25.789  0.00  0.00    +0.165 C 
BRANCH  20  21
ATOM     21  N   UNL     1       1.328  -6.369  25.716  0.00  0.00    -0.270 N 
ATOM     22  H   UNL     1       1.713  -5.989  26.572  0.00  0.00    +0.153 HD
ATOM     23  C   UNL     1       1.259  -5.496  24.686  0.00  0.00    +0.401 C 
ATOM     24  O   UNL     1       0.663  -5.668  23.636  0.00  0.00    -0.226 OA
BRANCH  23  25
ATOM     25  O   UNL     1       1.978  -4.393  25.013  0.00  0.00    -0.454 OA
ATOM     26  C   UNL     1       1.205  -3.298  25.507  0.00  0.00    +0.282 C 
ENDBRANCH  23  25
ENDBRANCH  20  21
BRANCH  20  28
ATOM     27  C   UNL     1       2.734  -8.921  24.761  0.00  0.00    +0.009 C 
ATOM     28  C   UNL     1       1.253  -8.534  24.616  0.00  0.00    +0.012 C 
ATOM     29  C   UNL     1       0.444  -9.780  24.280  0.00  0.00    +0.009 C 
ENDBRANCH  20  28
ENDBRANCH  13  20
ENDBRANCH   7  15
ENDBRANCH   1  10
BRANCH   4  30
ATOM     30  C   UNL     1       8.864  -1.073  24.370  0.00  0.00    -0.018 A 
ATOM     31  C   UNL     1       8.879  -0.444  23.110  0.00  0.00    +0.009 A 
ATOM     32  C   UNL     1       9.552   0.762  22.896  0.00  0.00    +0.010 A 
ATOM     33  C   UNL     1      10.221   1.391  23.942  0.00  0.00    -0.000 A 
ATOM     34  C   UNL     1      10.258   0.757  25.190  0.00  0.00    +0.010 A 
ATOM     35  C   UNL     1       9.599  -0.461  25.397  0.00  0.00    +0.009 A 
BRANCH  33  36
ATOM     36  C   UNL     1      10.810   2.706  23.742  0.00  0.00    +0.066 A 
ATOM     37  N   UNL     1      10.175   3.866  24.095  0.00  0.00    -0.340 N 
ATOM     38  H   UNL     1       9.262   3.934  24.521  0.00  0.00    +0.167 HD
ATOM     39  C   UNL     1      10.960   4.935  23.746  0.00  0.00    +0.128 A 
ATOM     40  N   UNL     1      12.060   4.518  23.151  0.00  0.00    -0.238 NA
ATOM     41  C   UNL     1      11.966   3.146  23.128  0.00  0.00    +0.139 A 
BRANCH  39  42
ATOM     42  C   UNL     1      10.584   6.353  24.071  0.00  0.00    +0.142 C 
ATOM     43  N   UNL     1       9.615   6.386  25.173  0.00  0.00    -0.290 N 
ATOM     44  C   UNL     1       8.253   6.167  25.125  0.00  0.00    +0.237 C 
ATOM     45  O   UNL     1       7.585   6.149  26.166  0.00  0.00    -0.274 OA
ATOM     46  C   UNL     1      10.288   6.612  26.449  0.00  0.00    +0.108 C 
ATOM     47  C   UNL     1      11.774   6.706  26.123  0.00  0.00    +0.021 C 
ATOM     48  C   UNL     1      11.789   7.104  24.649  0.00  0.00    +0.032 C 
BRANCH  44  49
ATOM     49  C   UNL     1       7.570   5.911  23.760  0.00  0.00    +0.165 C 
BRANCH  49  50
ATOM     50  N   UNL     1       6.814   4.666  23.868  0.00  0.00    -0.270 N 
ATOM     51  H   UNL     1       6.463   4.383  24.772  0.00  0.00    +0.153 HD
ATOM     52  C   UNL     1       6.879   3.696  22.920  0.00  0.00    +0.401 C 
ATOM     53  O   UNL     1       7.480   3.799  21.863  0.00  0.00    -0.226 OA
BRANCH  52  54
ATOM     54  O   UNL     1       6.191   2.602  23.320  0.00  0.00    -0.454 OA
ATOM     55  C   UNL     1       6.454   2.230  24.672  0.00  0.00    +0.282 C 
ENDBRANCH  52  54
ENDBRANCH  49  50
BRANCH  49  56
ATOM     56  C   UNL     1       6.673   7.095  23.302  0.00  0.00    +0.012 C 
ATOM     57  C   UNL     1       5.270   7.108  23.918  0.00  0.00    +0.009 C 
ATOM     58  C   UNL     1       6.551   7.108  21.768  0.00  0.00    +0.009 C 
ENDBRANCH  49  56
ENDBRANCH  44  49
ENDBRANCH  39  42
ENDBRANCH  33  36
ENDBRANCH   4  30
TORSDOF 13
ENDMDL
