MODEL 1
REMARK VINA RESULT:      -6.2      0.000      0.000
REMARK  Name = 
REMARK  7 active torsions:
REMARK  status: ('A' for Active; 'I' for Inactive)
REMARK    1  A    between atoms: N_5  and  C_6
REMARK    2  A    between atoms: C_6  and  O_7
REMARK    3  A    between atoms: O_7  and  C_8
REMARK    4  A    between atoms: C_8  and  C_9
REMARK    5  A    between atoms: C_8  and  C_11
REMARK    6  A    between atoms: C_9  and  O_10
REMARK    7  A    between atoms: C_11  and  O_12
REMARK                            x       y       z     vdW  Elec       q    Type
REMARK                         _______ _______ _______ _____ _____    ______ ____
ROOT
ATOM      1  C   UNL     1       7.741  -1.710  22.444  0.00  0.00    +0.203 A 
ATOM      2  N   UNL     1       8.980  -2.029  22.938  0.00  0.00    -0.291 N 
ATOM      3  C   UNL     1       8.833  -3.145  23.712  0.00  0.00    +0.171 A 
ATOM      4  N   UNL     1       9.804  -3.781  24.409  0.00  0.00    -0.196 NA
ATOM      5  C   UNL     1       9.367  -4.804  25.095  0.00  0.00    +0.195 A 
ATOM      6  N   UNL     1      10.222  -5.515  25.869  0.00  0.00    -0.329 N 
ATOM      7  H   UNL     1      10.016  -6.485  26.059  0.00  0.00    +0.145 HD
ATOM      8  H   UNL     1      11.200  -5.328  25.675  0.00  0.00    +0.145 HD
ATOM      9  N   UNL     1       8.052  -5.225  25.085  0.00  0.00    -0.293 N 
ATOM     10  H   UNL     1       7.765  -6.009  25.647  0.00  0.00    +0.172 HD
ATOM     11  C   UNL     1       7.028  -4.601  24.383  0.00  0.00    +0.280 A 
ATOM     12  O   UNL     1       5.871  -5.013  24.425  0.00  0.00    -0.265 OA
ATOM     13  C   UNL     1       7.494  -3.451  23.640  0.00  0.00    +0.172 A 
ATOM     14  N   UNL     1       6.816  -2.559  22.849  0.00  0.00    -0.229 NA
ENDROOT
BRANCH   2  15
ATOM     15  C   UNL     1      10.221  -1.351  22.635  0.00  0.00    +0.287 C 
BRANCH  15  16
ATOM     16  O   UNL     1      10.023   0.035  22.331  0.00  0.00    -0.351 OA
BRANCH  16  17
ATOM     17  C   UNL     1       9.911   0.924  23.468  0.00  0.00    +0.171 C 
BRANCH  17  18
ATOM     18  C   UNL     1      10.294   2.330  22.973  0.00  0.00    +0.189 C 
BRANCH  18  19
ATOM     19  O   UNL     1      10.276   2.378  21.546  0.00  0.00    -0.392 OA
ATOM     20  H   UNL     1      10.187   3.320  21.314  0.00  0.00    +0.210 HD
ENDBRANCH  18  19
ENDBRANCH  17  18
BRANCH  17  21
ATOM     21  C   UNL     1      10.821   0.523  24.638  0.00  0.00    +0.189 C 
BRANCH  21  22
ATOM     22  O   UNL     1      10.065   0.254  25.817  0.00  0.00    -0.392 OA
ATOM     23  H   UNL     1      10.218  -0.678  26.053  0.00  0.00    +0.210 HD
ENDBRANCH  21  22
ENDBRANCH  17  21
ENDBRANCH  16  17
ENDBRANCH  15  16
ENDBRANCH   2  15
TORSDOF 7
ENDMDL
MODEL 2
REMARK VINA RESULT:      -6.1      3.296      4.757
REMARK  Name = 
REMARK  7 active torsions:
REMARK  status: ('A' for Active; 'I' for Inactive)
REMARK    1  A    between atoms: N_5  and  C_6
REMARK    2  A    between atoms: C_6  and  O_7
REMARK    3  A    between atoms: O_7  and  C_8
REMARK    4  A    between atoms: C_8  and  C_9
REMARK    5  A    between atoms: C_8  and  C_11
REMARK    6  A    between atoms: C_9  and  O_10
REMARK    7  A    between atoms: C_11  and  O_12
REMARK                            x       y       z     vdW  Elec       q    Type
REMARK                         _______ _______ _______ _____ _____    ______ ____
ROOT
ATOM      1  C   UNL     1      10.083   1.837  21.917  0.00  0.00    +0.203 A 
ATOM      2  N   UNL     1      10.046   2.170  23.247  0.00  0.00    -0.291 N 
ATOM      3  C   UNL     1       9.751   1.032  23.942  0.00  0.00    +0.171 A 
ATOM      4  N   UNL     1       9.592   0.919  25.282  0.00  0.00    -0.196 NA
ATOM      5  C   UNL     1       9.276  -0.289  25.668  0.00  0.00    +0.195 A 
ATOM      6  N   UNL     1       9.051  -0.542  26.980  0.00  0.00    -0.329 N 
ATOM      7  H   UNL     1       9.209  -1.476  27.331  0.00  0.00    +0.145 HD
ATOM      8  H   UNL     1       9.373   0.194  27.600  0.00  0.00    +0.145 HD
ATOM      9  N   UNL     1       9.149  -1.359  24.805  0.00  0.00    -0.293 N 
ATOM     10  H   UNL     1       8.884  -2.265  25.155  0.00  0.00    +0.172 HD
ATOM     11  C   UNL     1       9.304  -1.284  23.427  0.00  0.00    +0.280 A 
ATOM     12  O   UNL     1       9.164  -2.270  22.707  0.00  0.00    -0.265 OA
ATOM     13  C   UNL     1       9.630   0.053  22.983  0.00  0.00    +0.172 A 
ATOM     14  N   UNL     1       9.840   0.554  21.724  0.00  0.00    -0.229 NA
ENDROOT
BRANCH   2  15
ATOM     15  C   UNL     1      10.335   3.470  23.810  0.00  0.00    +0.287 C 
BRANCH  15  16
ATOM     16  O   UNL     1      11.637   3.944  23.442  0.00  0.00    -0.351 OA
BRANCH  16  17
ATOM     17  C   UNL     1      11.725   5.345  23.088  0.00  0.00    +0.171 C 
BRANCH  17  18
ATOM     18  C   UNL     1      13.098   5.551  22.427  0.00  0.00    +0.189 C 
BRANCH  18  19
ATOM     19  O   UNL     1      14.120   4.906  23.187  0.00  0.00    -0.392 OA
ATOM     20  H   UNL     1      13.919   3.954  23.147  0.00  0.00    +0.210 HD
ENDBRANCH  18  19
ENDBRANCH  17  18
BRANCH  17  21
ATOM     21  C   UNL     1      11.588   6.281  24.298  0.00  0.00    +0.189 C 
BRANCH  21  22
ATOM     22  O   UNL     1      12.816   6.388  25.015  0.00  0.00    -0.392 OA
ATOM     23  H   UNL     1      12.663   6.029  25.907  0.00  0.00    +0.210 HD
ENDBRANCH  21  22
ENDBRANCH  17  21
ENDBRANCH  16  17
ENDBRANCH  15  16
ENDBRANCH   2  15
TORSDOF 7
ENDMDL
MODEL 3
REMARK VINA RESULT:      -6.1      0.778      1.875
REMARK  Name = 
REMARK  7 active torsions:
REMARK  status: ('A' for Active; 'I' for Inactive)
REMARK    1  A    between atoms: N_5  and  C_6
REMARK    2  A    between atoms: C_6  and  O_7
REMARK    3  A    between atoms: O_7  and  C_8
REMARK    4  A    between atoms: C_8  and  C_9
REMARK    5  A    between atoms: C_8  and  C_11
REMARK    6  A    between atoms: C_9  and  O_10
REMARK    7  A    between atoms: C_11  and  O_12
REMARK                            x       y       z     vdW  Elec       q    Type
REMARK                         _______ _______ _______ _____ _____    ______ ____
ROOT
ATOM      1  C   UNL     1       7.218  -1.734  22.837  0.00  0.00    +0.203 A 
ATOM      2  N   UNL     1       8.515  -2.137  23.025  0.00  0.00    -0.291 N 
ATOM      3  C   UNL     1       8.487  -3.220  23.857  0.00  0.00    +0.171 A 
ATOM      4  N   UNL     1       9.554  -3.913  24.321  0.00  0.00    -0.196 NA
ATOM      5  C   UNL     1       9.229  -4.884  25.135  0.00  0.00    +0.195 A 
ATOM      6  N   UNL     1      10.198  -5.640  25.705  0.00  0.00    -0.329 N 
ATOM      7  H   UNL     1       9.979  -6.587  25.979  0.00  0.00    +0.145 HD
ATOM      8  H   UNL     1      11.109  -5.535  25.270  0.00  0.00    +0.145 HD
ATOM      9  N   UNL     1       7.927  -5.201  25.465  0.00  0.00    -0.293 N 
ATOM     10  H   UNL     1       7.735  -5.947  26.112  0.00  0.00    +0.172 HD
ATOM     11  C   UNL     1       6.808  -4.516  25.010  0.00  0.00    +0.280 A 
ATOM     12  O   UNL     1       5.671  -4.836  25.351  0.00  0.00    -0.265 OA
ATOM     13  C   UNL     1       7.153  -3.423  24.128  0.00  0.00    +0.172 A 
ATOM     14  N   UNL     1       6.365  -2.500  23.491  0.00  0.00    -0.229 NA
ENDROOT
BRANCH   2  15
ATOM     15  C   UNL     1       9.687  -1.565  22.400  0.00  0.00    +0.287 C 
BRANCH  15  16
ATOM     16  O   UNL     1      10.492  -0.827  23.328  0.00  0.00    -0.351 OA
BRANCH  16  17
ATOM     17  C   UNL     1      10.366   0.614  23.271  0.00  0.00    +0.171 C 
BRANCH  17  18
ATOM     18  C   UNL     1       9.575   1.041  24.518  0.00  0.00    +0.189 C 
BRANCH  18  19
ATOM     19  O   UNL     1      10.079   0.380  25.680  0.00  0.00    -0.392 OA
ATOM     20  H   UNL     1      10.868  -0.109  25.383  0.00  0.00    +0.210 HD
ENDBRANCH  18  19
ENDBRANCH  17  18
BRANCH  17  21
ATOM     21  C   UNL     1       9.645   1.106  22.007  0.00  0.00    +0.189 C 
BRANCH  21  22
ATOM     22  O   UNL     1      10.223   2.314  21.515  0.00  0.00    -0.392 OA
ATOM     23  H   UNL     1      10.938   2.064  20.903  0.00  0.00    +0.210 HD
ENDBRANCH  21  22
ENDBRANCH  17  21
ENDBRANCH  16  17
ENDBRANCH  15  16
ENDBRANCH   2  15
TORSDOF 7
ENDMDL
MODEL 4
REMARK VINA RESULT:      -6.0      2.214      3.074
REMARK  Name = 
REMARK  7 active torsions:
REMARK  status: ('A' for Active; 'I' for Inactive)
REMARK    1  A    between atoms: N_5  and  C_6
REMARK    2  A    between atoms: C_6  and  O_7
REMARK    3  A    between atoms: O_7  and  C_8
REMARK    4  A    between atoms: C_8  and  C_9
REMARK    5  A    between atoms: C_8  and  C_11
REMARK    6  A    between atoms: C_9  and  O_10
REMARK    7  A    between atoms: C_11  and  O_12
REMARK                            x       y       z     vdW  Elec       q    Type
REMARK                         _______ _______ _______ _____ _____    ______ ____
ROOT
ATOM      1  C   UNL     1       5.171  -3.073  25.150  0.00  0.00    +0.203 A 
ATOM      2  N   UNL     1       6.321  -3.215  24.416  0.00  0.00    -0.291 N 
ATOM      3  C   UNL     1       7.161  -4.021  25.131  0.00  0.00    +0.171 A 
ATOM      4  N   UNL     1       8.415  -4.396  24.783  0.00  0.00    -0.196 NA
ATOM      5  C   UNL     1       9.002  -5.144  25.680  0.00  0.00    +0.195 A 
ATOM      6  N   UNL     1      10.274  -5.565  25.481  0.00  0.00    -0.329 N 
ATOM      7  H   UNL     1      10.578  -6.423  25.920  0.00  0.00    +0.145 HD
ATOM      8  H   UNL     1      10.599  -5.450  24.527  0.00  0.00    +0.145 HD
ATOM      9  N   UNL     1       8.397  -5.546  26.854  0.00  0.00    -0.293 N 
ATOM     10  H   UNL     1       8.902  -6.107  27.520  0.00  0.00    +0.172 HD
ATOM     11  C   UNL     1       7.115  -5.184  27.246  0.00  0.00    +0.280 A 
ATOM     12  O   UNL     1       6.634  -5.561  28.312  0.00  0.00    -0.265 OA
ATOM     13  C   UNL     1       6.462  -4.335  26.274  0.00  0.00    +0.172 A 
ATOM     14  N   UNL     1       5.224  -3.747  26.283  0.00  0.00    -0.229 NA
ENDROOT
BRANCH   2  15
ATOM     15  C   UNL     1       6.568  -2.669  23.100  0.00  0.00    +0.287 C 
BRANCH  15  16
ATOM     16  O   UNL     1       6.812  -1.257  23.133  0.00  0.00    -0.351 OA
BRANCH  16  17
ATOM     17  C   UNL     1       8.169  -0.841  22.846  0.00  0.00    +0.171 C 
BRANCH  17  18
ATOM     18  C   UNL     1       8.806  -1.955  21.998  0.00  0.00    +0.189 C 
BRANCH  18  19
ATOM     19  O   UNL     1      10.109  -1.565  21.561  0.00  0.00    -0.392 OA
ATOM     20  H   UNL     1      10.212  -1.942  20.668  0.00  0.00    +0.210 HD
ENDBRANCH  18  19
ENDBRANCH  17  18
BRANCH  17  21
ATOM     21  C   UNL     1       9.008  -0.611  24.111  0.00  0.00    +0.189 C 
BRANCH  21  22
ATOM     22  O   UNL     1       9.786  -1.760  24.437  0.00  0.00    -0.392 OA
ATOM     23  H   UNL     1       9.537  -2.034  25.338  0.00  0.00    +0.210 HD
ENDBRANCH  21  22
ENDBRANCH  17  21
ENDBRANCH  16  17
ENDBRANCH  15  16
ENDBRANCH   2  15
TORSDOF 7
ENDMDL
MODEL 5
REMARK VINA RESULT:      -6.0      4.285      6.043
REMARK  Name = 
REMARK  7 active torsions:
REMARK  status: ('A' for Active; 'I' for Inactive)
REMARK    1  A    between atoms: N_5  and  C_6
REMARK    2  A    between atoms: C_6  and  O_7
REMARK    3  A    between atoms: O_7  and  C_8
REMARK    4  A    between atoms: C_8  and  C_9
REMARK    5  A    between atoms: C_8  and  C_11
REMARK    6  A    between atoms: C_9  and  O_10
REMARK    7  A    between atoms: C_11  and  O_12
REMARK                            x       y       z     vdW  Elec       q    Type
REMARK                         _______ _______ _______ _____ _____    ______ ____
ROOT
ATOM      1  C   UNL     1       7.975  -4.769  26.587  0.00  0.00    +0.203 A 
ATOM      2  N   UNL     1       7.162  -4.759  25.481  0.00  0.00    -0.291 N 
ATOM      3  C   UNL     1       6.095  -5.566  25.755  0.00  0.00    +0.171 A 
ATOM      4  N   UNL     1       5.066  -5.857  24.925  0.00  0.00    -0.196 NA
ATOM      5  C   UNL     1       4.201  -6.691  25.441  0.00  0.00    +0.195 A 
ATOM      6  N   UNL     1       3.136  -7.099  24.709  0.00  0.00    -0.329 N 
ATOM      7  H   UNL     1       2.295  -7.385  25.190  0.00  0.00    +0.145 HD
ATOM      8  H   UNL     1       2.970  -6.539  23.879  0.00  0.00    +0.145 HD
ATOM      9  N   UNL     1       4.300  -7.201  26.719  0.00  0.00    -0.293 N 
ATOM     10  H   UNL     1       3.616  -7.855  27.060  0.00  0.00    +0.172 HD
ATOM     11  C   UNL     1       5.339  -6.927  27.601  0.00  0.00    +0.280 A 
ATOM     12  O   UNL     1       5.381  -7.423  28.724  0.00  0.00    -0.265 OA
ATOM     13  C   UNL     1       6.316  -6.024  27.033  0.00  0.00    +0.172 A 
ATOM     14  N   UNL     1       7.484  -5.526  27.550  0.00  0.00    -0.229 NA
ENDROOT
BRANCH   2  15
ATOM     15  C   UNL     1       7.365  -3.981  24.280  0.00  0.00    +0.287 C 
BRANCH  15  16
ATOM     16  O   UNL     1       7.666  -4.802  23.144  0.00  0.00    -0.351 OA
BRANCH  16  17
ATOM     17  C   UNL     1       6.932  -4.502  21.933  0.00  0.00    +0.171 C 
BRANCH  17  18
ATOM     18  C   UNL     1       5.795  -3.545  22.326  0.00  0.00    +0.189 C 
BRANCH  18  19
ATOM     19  O   UNL     1       4.558  -4.252  22.419  0.00  0.00    -0.392 OA
ATOM     20  H   UNL     1       4.687  -4.920  23.117  0.00  0.00    +0.210 HD
ENDBRANCH  18  19
ENDBRANCH  17  18
BRANCH  17  21
ATOM     21  C   UNL     1       6.347  -5.751  21.258  0.00  0.00    +0.189 C 
BRANCH  21  22
ATOM     22  O   UNL     1       6.018  -6.755  22.217  0.00  0.00    -0.392 OA
ATOM     23  H   UNL     1       5.185  -7.169  21.929  0.00  0.00    +0.210 HD
ENDBRANCH  21  22
ENDBRANCH  17  21
ENDBRANCH  16  17
ENDBRANCH  15  16
ENDBRANCH   2  15
TORSDOF 7
ENDMDL
MODEL 6
REMARK VINA RESULT:      -6.0      2.293      5.402
REMARK  Name = 
REMARK  7 active torsions:
REMARK  status: ('A' for Active; 'I' for Inactive)
REMARK    1  A    between atoms: N_5  and  C_6
REMARK    2  A    between atoms: C_6  and  O_7
REMARK    3  A    between atoms: O_7  and  C_8
REMARK    4  A    between atoms: C_8  and  C_9
REMARK    5  A    between atoms: C_8  and  C_11
REMARK    6  A    between atoms: C_9  and  O_10
REMARK    7  A    between atoms: C_11  and  O_12
REMARK                            x       y       z     vdW  Elec       q    Type
REMARK                         _______ _______ _______ _____ _____    ______ ____
ROOT
ATOM      1  C   UNL     1       9.281  -1.573  21.816  0.00  0.00    +0.203 A 
ATOM      2  N   UNL     1       8.783  -2.125  22.968  0.00  0.00    -0.291 N 
ATOM      3  C   UNL     1       9.101  -1.279  23.993  0.00  0.00    +0.171 A 
ATOM      4  N   UNL     1       8.820  -1.457  25.306  0.00  0.00    -0.196 NA
ATOM      5  C   UNL     1       9.279  -0.500  26.069  0.00  0.00    +0.195 A 
ATOM      6  N   UNL     1       9.103  -0.563  27.412  0.00  0.00    -0.329 N 
ATOM      7  H   UNL     1       9.074   0.297  27.940  0.00  0.00    +0.145 HD
ATOM      8  H   UNL     1       8.417  -1.252  27.702  0.00  0.00    +0.145 HD
ATOM      9  N   UNL     1       9.953   0.605  25.589  0.00  0.00    -0.293 N 
ATOM     10  H   UNL     1      10.301   1.303  26.224  0.00  0.00    +0.172 HD
ATOM     11  C   UNL     1      10.259   0.823  24.252  0.00  0.00    +0.280 A 
ATOM     12  O   UNL     1      10.875   1.821  23.885  0.00  0.00    -0.265 OA
ATOM     13  C   UNL     1       9.779  -0.241  23.398  0.00  0.00    +0.172 A 
ATOM     14  N   UNL     1       9.888  -0.423  22.043  0.00  0.00    -0.229 NA
ENDROOT
BRANCH   2  15
ATOM     15  C   UNL     1       8.006  -3.340  23.066  0.00  0.00    +0.287 C 
BRANCH  15  16
ATOM     16  O   UNL     1       8.698  -4.373  23.778  0.00  0.00    -0.351 OA
BRANCH  16  17
ATOM     17  C   UNL     1       7.951  -5.030  24.830  0.00  0.00    +0.171 C 
BRANCH  17  18
ATOM     18  C   UNL     1       6.615  -4.279  24.962  0.00  0.00    +0.189 C 
BRANCH  18  19
ATOM     19  O   UNL     1       6.613  -3.468  26.138  0.00  0.00    -0.392 OA
ATOM     20  H   UNL     1       6.662  -4.089  26.887  0.00  0.00    +0.210 HD
ENDBRANCH  18  19
ENDBRANCH  17  18
BRANCH  17  21
ATOM     21  C   UNL     1       8.682  -5.027  26.180  0.00  0.00    +0.189 C 
BRANCH  21  22
ATOM     22  O   UNL     1       7.993  -5.818  27.147  0.00  0.00    -0.392 OA
ATOM     23  H   UNL     1       7.314  -5.251  27.554  0.00  0.00    +0.210 HD
ENDBRANCH  21  22
ENDBRANCH  17  21
ENDBRANCH  16  17
ENDBRANCH  15  16
ENDBRANCH   2  15
TORSDOF 7
ENDMDL
MODEL 7
REMARK VINA RESULT:      -5.8      2.405      6.107
REMARK  Name = 
REMARK  7 active torsions:
REMARK  status: ('A' for Active; 'I' for Inactive)
REMARK    1  A    between atoms: N_5  and  C_6
REMARK    2  A    between atoms: C_6  and  O_7
REMARK    3  A    between atoms: O_7  and  C_8
REMARK    4  A    between atoms: C_8  and  C_9
REMARK    5  A    between atoms: C_8  and  C_11
REMARK    6  A    between atoms: C_9  and  O_10
REMARK    7  A    between atoms: C_11  and  O_12
REMARK                            x       y       z     vdW  Elec       q    Type
REMARK                         _______ _______ _______ _____ _____    ______ ____
ROOT
ATOM      1  C   UNL     1       9.755  -2.302  23.104  0.00  0.00    +0.203 A 
ATOM      2  N   UNL     1       8.409  -2.129  23.299  0.00  0.00    -0.291 N 
ATOM      3  C   UNL     1       8.113  -0.837  22.968  0.00  0.00    +0.171 A 
ATOM      4  N   UNL     1       6.900  -0.240  23.039  0.00  0.00    -0.196 NA
ATOM      5  C   UNL     1       6.920   1.020  22.694  0.00  0.00    +0.195 A 
ATOM      6  N   UNL     1       5.783   1.754  22.750  0.00  0.00    -0.329 N 
ATOM      7  H   UNL     1       5.685   2.550  22.136  0.00  0.00    +0.145 HD
ATOM      8  H   UNL     1       4.940   1.197  22.844  0.00  0.00    +0.145 HD
ATOM      9  N   UNL     1       8.055   1.677  22.262  0.00  0.00    -0.293 N 
ATOM     10  H   UNL     1       8.018   2.655  22.027  0.00  0.00    +0.172 HD
ATOM     11  C   UNL     1       9.316   1.100  22.175  0.00  0.00    +0.280 A 
ATOM     12  O   UNL     1      10.294   1.740  21.798  0.00  0.00    -0.265 OA
ATOM     13  C   UNL     1       9.313  -0.289  22.579  0.00  0.00    +0.172 A 
ATOM     14  N   UNL     1      10.333  -1.201  22.661  0.00  0.00    -0.229 NA
ENDROOT
BRANCH   2  15
ATOM     15  C   UNL     1       7.468  -3.148  23.708  0.00  0.00    +0.287 C 
BRANCH  15  16
ATOM     16  O   UNL     1       8.117  -4.288  24.284  0.00  0.00    -0.351 OA
BRANCH  16  17
ATOM     17  C   UNL     1       8.268  -4.272  25.724  0.00  0.00    +0.171 C 
BRANCH  17  18
ATOM     18  C   UNL     1       9.688  -4.780  26.028  0.00  0.00    +0.189 C 
BRANCH  18  19
ATOM     19  O   UNL     1       9.989  -5.926  25.231  0.00  0.00    -0.392 OA
ATOM     20  H   UNL     1      10.430  -6.556  25.830  0.00  0.00    +0.210 HD
ENDBRANCH  18  19
ENDBRANCH  17  18
BRANCH  17  21
ATOM     21  C   UNL     1       7.239  -5.152  26.448  0.00  0.00    +0.189 C 
BRANCH  21  22
ATOM     22  O   UNL     1       7.844  -5.911  27.492  0.00  0.00    -0.392 OA
ATOM     23  H   UNL     1       8.797  -5.711  27.481  0.00  0.00    +0.210 HD
ENDBRANCH  21  22
ENDBRANCH  17  21
ENDBRANCH  16  17
ENDBRANCH  15  16
ENDBRANCH   2  15
TORSDOF 7
ENDMDL
MODEL 8
REMARK VINA RESULT:      -5.6      3.321      6.576
REMARK  Name = 
REMARK  7 active torsions:
REMARK  status: ('A' for Active; 'I' for Inactive)
REMARK    1  A    between atoms: N_5  and  C_6
REMARK    2  A    between atoms: C_6  and  O_7
REMARK    3  A    between atoms: O_7  and  C_8
REMARK    4  A    between atoms: C_8  and  C_9
REMARK    5  A    between atoms: C_8  and  C_11
REMARK    6  A    between atoms: C_9  and  O_10
REMARK    7  A    between atoms: C_11  and  O_12
REMARK                            x       y       z     vdW  Elec       q    Type
REMARK                         _______ _______ _______ _____ _____    ______ ____
ROOT
ATOM      1  C   UNL     1       6.248  -3.168  22.321  0.00  0.00    +0.203 A 
ATOM      2  N   UNL     1       5.665  -3.923  23.306  0.00  0.00    -0.291 N 
ATOM      3  C   UNL     1       6.647  -4.261  24.193  0.00  0.00    +0.171 A 
ATOM      4  N   UNL     1       6.509  -5.025  25.302  0.00  0.00    -0.196 NA
ATOM      5  C   UNL     1       7.631  -5.214  25.946  0.00  0.00    +0.195 A 
ATOM      6  N   UNL     1       7.650  -5.990  27.057  0.00  0.00    -0.329 N 
ATOM      7  H   UNL     1       8.359  -5.821  27.757  0.00  0.00    +0.145 HD
ATOM      8  H   UNL     1       6.729  -6.183  27.438  0.00  0.00    +0.145 HD
ATOM      9  N   UNL     1       8.837  -4.664  25.560  0.00  0.00    -0.293 N 
ATOM     10  H   UNL     1       9.675  -4.858  26.082  0.00  0.00    +0.172 HD
ATOM     11  C   UNL     1       9.019  -3.876  24.431  0.00  0.00    +0.280 A 
ATOM     12  O   UNL     1      10.121  -3.424  24.129  0.00  0.00    -0.265 OA
ATOM     13  C   UNL     1       7.789  -3.678  23.695  0.00  0.00    +0.172 A 
ATOM     14  N   UNL     1       7.539  -2.996  22.532  0.00  0.00    -0.229 NA
ENDROOT
BRANCH   2  15
ATOM     15  C   UNL     1       4.259  -4.241  23.420  0.00  0.00    +0.287 C 
BRANCH  15  16
ATOM     16  O   UNL     1       3.873  -5.318  22.557  0.00  0.00    -0.351 OA
BRANCH  16  17
ATOM     17  C   UNL     1       2.864  -6.216  23.076  0.00  0.00    +0.171 C 
BRANCH  17  18
ATOM     18  C   UNL     1       1.629  -5.359  23.400  0.00  0.00    +0.189 C 
BRANCH  18  19
ATOM     19  O   UNL     1       0.777  -5.260  22.257  0.00  0.00    -0.392 OA
ATOM     20  H   UNL     1       0.956  -4.384  21.869  0.00  0.00    +0.210 HD
ENDBRANCH  18  19
ENDBRANCH  17  18
BRANCH  17  21
ATOM     21  C   UNL     1       3.317  -6.967  24.336  0.00  0.00    +0.189 C 
BRANCH  21  22
ATOM     22  O   UNL     1       4.626  -7.511  24.176  0.00  0.00    -0.392 OA
ATOM     23  H   UNL     1       5.143  -7.257  24.961  0.00  0.00    +0.210 HD
ENDBRANCH  21  22
ENDBRANCH  17  21
ENDBRANCH  16  17
ENDBRANCH  15  16
ENDBRANCH   2  15
TORSDOF 7
ENDMDL
MODEL 9
REMARK VINA RESULT:      -5.6      2.385      6.402
REMARK  Name = 
REMARK  7 active torsions:
REMARK  status: ('A' for Active; 'I' for Inactive)
REMARK    1  A    between atoms: N_5  and  C_6
REMARK    2  A    between atoms: C_6  and  O_7
REMARK    3  A    between atoms: O_7  and  C_8
REMARK    4  A    between atoms: C_8  and  C_9
REMARK    5  A    between atoms: C_8  and  C_11
REMARK    6  A    between atoms: C_9  and  O_10
REMARK    7  A    between atoms: C_11  and  O_12
REMARK                            x       y       z     vdW  Elec       q    Type
REMARK                         _______ _______ _______ _____ _____    ______ ____
ROOT
ATOM      1  C   UNL     1       5.963  -3.589  22.127  0.00  0.00    +0.203 A 
ATOM      2  N   UNL     1       6.283  -4.698  22.868  0.00  0.00    -0.291 N 
ATOM      3  C   UNL     1       7.448  -4.424  23.527  0.00  0.00    +0.171 A 
ATOM      4  N   UNL     1       8.129  -5.257  24.348  0.00  0.00    -0.196 NA
ATOM      5  C   UNL     1       9.236  -4.740  24.812  0.00  0.00    +0.195 A 
ATOM      6  N   UNL     1      10.039  -5.474  25.620  0.00  0.00    -0.329 N 
ATOM      7  H   UNL     1      10.634  -4.995  26.281  0.00  0.00    +0.145 HD
ATOM      8  H   UNL     1       9.595  -6.308  25.990  0.00  0.00    +0.145 HD
ATOM      9  N   UNL     1       9.659  -3.457  24.527  0.00  0.00    -0.293 N 
ATOM     10  H   UNL     1      10.530  -3.115  24.896  0.00  0.00    +0.172 HD
ATOM     11  C   UNL     1       8.989  -2.573  23.691  0.00  0.00    +0.280 A 
ATOM     12  O   UNL     1       9.422  -1.446  23.462  0.00  0.00    -0.265 OA
ATOM     13  C   UNL     1       7.774  -3.142  23.150  0.00  0.00    +0.172 A 
ATOM     14  N   UNL     1       6.848  -2.623  22.282  0.00  0.00    -0.229 NA
ENDROOT
BRANCH   2  15
ATOM     15  C   UNL     1       5.494  -5.904  22.984  0.00  0.00    +0.287 C 
BRANCH  15  16
ATOM     16  O   UNL     1       4.454  -5.782  23.963  0.00  0.00    -0.351 OA
BRANCH  16  17
ATOM     17  C   UNL     1       4.554  -6.662  25.108  0.00  0.00    +0.171 C 
BRANCH  17  18
ATOM     18  C   UNL     1       3.141  -7.206  25.377  0.00  0.00    +0.189 C 
BRANCH  18  19
ATOM     19  O   UNL     1       3.089  -8.609  25.117  0.00  0.00    -0.392 OA
ATOM     20  H   UNL     1       2.197  -8.780  24.763  0.00  0.00    +0.210 HD
ENDBRANCH  18  19
ENDBRANCH  17  18
BRANCH  17  21
ATOM     21  C   UNL     1       5.085  -5.957  26.365  0.00  0.00    +0.189 C 
BRANCH  21  22
ATOM     22  O   UNL     1       6.463  -6.252  26.585  0.00  0.00    -0.392 OA
ATOM     23  H   UNL     1       6.896  -6.281  25.713  0.00  0.00    +0.210 HD
ENDBRANCH  21  22
ENDBRANCH  17  21
ENDBRANCH  16  17
ENDBRANCH  15  16
ENDBRANCH   2  15
TORSDOF 7
ENDMDL
