MODEL 1
REMARK VINA RESULT:      -6.1      0.000      0.000
REMARK  Name = 
REMARK  24 active torsions:
REMARK  status: ('A' for Active; 'I' for Inactive)
REMARK    1  A    between atoms: C_1  and  C_2
REMARK    2  A    between atoms: C_2  and  C_3
REMARK    3  A    between atoms: C_2  and  C_4
REMARK    4  A    between atoms: C_6  and  C_9
REMARK    5  A    between atoms: C_9  and  N_10
REMARK    6  A    between atoms: N_10  and  C_11
REMARK    7  A    between atoms: N_14  and  C_15
REMARK    8  A    between atoms: C_15  and  C_16
REMARK    9  A    between atoms: C_15  and  C_19
REMARK   10  A    between atoms: C_16  and  C_17
REMARK   11  A    between atoms: C_16  and  C_18
REMARK   12  A    between atoms: N_21  and  C_22
REMARK   13  A    between atoms: C_22  and  C_23
REMARK   14  A    between atoms: C_22  and  C_30
REMARK   15  A    between atoms: C_23  and  C_24
REMARK   16  A    between atoms: C_30  and  C_31
REMARK   17  A    between atoms: C_31  and  C_32
REMARK   18  A    between atoms: C_31  and  O_50
REMARK   19  A    between atoms: C_32  and  C_33
REMARK   20  A    between atoms: C_32  and  N_40
REMARK   21  A    between atoms: C_33  and  C_34
REMARK   22  A    between atoms: C_41  and  O_43
REMARK   23  A    between atoms: O_43  and  C_44
REMARK   24  A    between atoms: C_44  and  C_45
REMARK                            x       y       z     vdW  Elec       q    Type
REMARK                         _______ _______ _______ _____ _____    ______ ____
ROOT
ATOM      1  C   UNL     1       6.189   0.362  25.833  0.00  0.00    +0.080 C 
ENDROOT
BRANCH   1   3
ATOM      2  C   UNL     1       4.929  -0.301  27.887  0.00  0.00    +0.234 C 
ATOM      3  N   UNL     1       5.055  -0.241  26.516  0.00  0.00    -0.311 N 
ATOM      4  H   UNL     1       4.422  -0.825  25.987  0.00  0.00    +0.149 HD
ATOM      5  O   UNL     1       5.720   0.229  28.661  0.00  0.00    -0.274 OA
BRANCH   2   6
ATOM      6  C   UNL     1       3.734  -1.181  28.363  0.00  0.00    +0.163 C 
BRANCH   6   9
ATOM      7  N   UNL     1       4.979  -4.696  28.118  0.00  0.00    -0.283 N 
ATOM      8  C   UNL     1       4.438  -3.494  27.657  0.00  0.00    +0.303 C 
ATOM      9  N   UNL     1       4.195  -2.556  28.636  0.00  0.00    -0.288 N 
ATOM     10  H   UNL     1       4.446  -2.757  29.584  0.00  0.00    +0.151 HD
ATOM     11  O   UNL     1       4.217  -3.266  26.471  0.00  0.00    -0.253 OA
ATOM     12  C   UNL     1       5.279  -5.002  29.506  0.00  0.00    +0.134 C 
BRANCH   7  13
ATOM     13  C   UNL     1       5.135  -5.802  27.157  0.00  0.00    +0.164 C 
BRANCH  13  17
ATOM     14  C   UNL     1       6.880  -5.167  24.014  0.00  0.00    +0.081 A 
ATOM     15  S   UNL     1       8.342  -4.916  24.890  0.00  0.00    -0.080 S 
ATOM     16  C   UNL     1       7.525  -5.265  26.349  0.00  0.00    +0.071 A 
ATOM     17  C   UNL     1       6.196  -5.564  26.110  0.00  0.00    +0.066 A 
ATOM     18  N   UNL     1       5.846  -5.522  24.755  0.00  0.00    -0.247 NA
BRANCH  14  20
ATOM     19  C   UNL     1       6.859  -6.324  21.788  0.00  0.00    +0.014 C 
ATOM     20  C   UNL     1       6.882  -4.979  22.510  0.00  0.00    +0.038 C 
ATOM     21  C   UNL     1       5.722  -4.098  22.042  0.00  0.00    +0.014 C 
ENDBRANCH  14  20
ENDBRANCH  13  17
ENDBRANCH   7  13
ENDBRANCH   6   9
BRANCH   6  22
ATOM     22  C   UNL     1       3.088  -0.536  29.622  0.00  0.00    +0.012 C 
ATOM     23  C   UNL     1       2.268  -1.527  30.460  0.00  0.00    +0.009 C 
ATOM     24  C   UNL     1       2.223   0.676  29.256  0.00  0.00    +0.009 C 
ENDBRANCH   6  22
ENDBRANCH   2   6
ENDBRANCH   1   3
BRANCH   1  25
ATOM     25  C   UNL     1       6.063   1.896  25.877  0.00  0.00    +0.055 C 
BRANCH  25  26
ATOM     26  C   UNL     1       7.302   2.673  26.360  0.00  0.00    +0.137 C 
BRANCH  26  27
ATOM     27  O   UNL     1       7.297   2.637  27.796  0.00  0.00    -0.390 OA
ATOM     28  H   UNL     1       6.876   1.802  28.080  0.00  0.00    +0.210 HD
ENDBRANCH  26  27
BRANCH  26  29
ATOM     29  C   UNL     1       7.506   4.128  25.848  0.00  0.00    +0.109 C 
BRANCH  29  30
ATOM     30  N   UNL     1       6.250   4.631  25.271  0.00  0.00    -0.275 N 
ATOM     31  H   UNL     1       5.719   4.019  24.666  0.00  0.00    +0.152 HD
ATOM     32  C   UNL     1       5.869   5.941  25.324  0.00  0.00    +0.401 C 
ATOM     33  O   UNL     1       6.463   6.805  25.955  0.00  0.00    -0.226 OA
BRANCH  32  34
ATOM     34  O   UNL     1       4.765   6.142  24.571  0.00  0.00    -0.445 OA
BRANCH  34  35
ATOM     35  C   UNL     1       4.957   6.065  23.146  0.00  0.00    +0.278 C 
BRANCH  35  36
ATOM     36  C   UNL     1       3.893   5.183  22.582  0.00  0.00    +0.046 A 
ATOM     37  S   UNL     1       4.048   3.473  22.567  0.00  0.00    -0.077 S 
ATOM     38  C   UNL     1       2.492   3.350  21.855  0.00  0.00    +0.156 A 
ATOM     39  N   UNL     1       1.862   4.485  21.644  0.00  0.00    -0.255 NA
ATOM     40  C   UNL     1       2.661   5.532  22.061  0.00  0.00    +0.125 A 
ENDBRANCH  35  36
ENDBRANCH  34  35
ENDBRANCH  32  34
ENDBRANCH  29  30
BRANCH  29  41
ATOM     41  C   UNL     1       8.706   4.353  24.886  0.00  0.00    +0.060 C 
BRANCH  41  42
ATOM     42  C   UNL     1       8.924   3.370  23.750  0.00  0.00    -0.046 A 
ATOM     43  C   UNL     1       7.889   3.123  22.835  0.00  0.00    +0.004 A 
ATOM     44  C   UNL     1       8.074   2.245  21.763  0.00  0.00    +0.000 A 
ATOM     45  C   UNL     1       9.297   1.601  21.588  0.00  0.00    +0.000 A 
ATOM     46  C   UNL     1      10.318   1.802  22.511  0.00  0.00    +0.000 A 
ATOM     47  C   UNL     1      10.124   2.660  23.597  0.00  0.00    +0.004 A 
ENDBRANCH  41  42
ENDBRANCH  29  41
ENDBRANCH  26  29
ENDBRANCH  25  26
ENDBRANCH   1  25
BRANCH   1  48
ATOM     48  C   UNL     1       6.218  -0.167  24.376  0.00  0.00    +0.057 C 
BRANCH  48  49
ATOM     49  C   UNL     1       7.537  -0.769  23.964  0.00  0.00    -0.046 A 
ATOM     50  C   UNL     1       7.681  -1.383  22.708  0.00  0.00    +0.004 A 
ATOM     51  C   UNL     1       8.914  -1.912  22.325  0.00  0.00    +0.000 A 
ATOM     52  C   UNL     1      10.008  -1.838  23.183  0.00  0.00    +0.000 A 
ATOM     53  C   UNL     1       9.871  -1.240  24.437  0.00  0.00    +0.000 A 
ATOM     54  C   UNL     1       8.640  -0.721  24.827  0.00  0.00    +0.004 A 
ENDBRANCH  48  49
ENDBRANCH   1  48
TORSDOF 19
ENDMDL
MODEL 2
REMARK VINA RESULT:      -6.0      3.405      6.132
REMARK  Name = 
REMARK  24 active torsions:
REMARK  status: ('A' for Active; 'I' for Inactive)
REMARK    1  A    between atoms: C_1  and  C_2
REMARK    2  A    between atoms: C_2  and  C_3
REMARK    3  A    between atoms: C_2  and  C_4
REMARK    4  A    between atoms: C_6  and  C_9
REMARK    5  A    between atoms: C_9  and  N_10
REMARK    6  A    between atoms: N_10  and  C_11
REMARK    7  A    between atoms: N_14  and  C_15
REMARK    8  A    between atoms: C_15  and  C_16
REMARK    9  A    between atoms: C_15  and  C_19
REMARK   10  A    between atoms: C_16  and  C_17
REMARK   11  A    between atoms: C_16  and  C_18
REMARK   12  A    between atoms: N_21  and  C_22
REMARK   13  A    between atoms: C_22  and  C_23
REMARK   14  A    between atoms: C_22  and  C_30
REMARK   15  A    between atoms: C_23  and  C_24
REMARK   16  A    between atoms: C_30  and  C_31
REMARK   17  A    between atoms: C_31  and  C_32
REMARK   18  A    between atoms: C_31  and  O_50
REMARK   19  A    between atoms: C_32  and  C_33
REMARK   20  A    between atoms: C_32  and  N_40
REMARK   21  A    between atoms: C_33  and  C_34
REMARK   22  A    between atoms: C_41  and  O_43
REMARK   23  A    between atoms: O_43  and  C_44
REMARK   24  A    between atoms: C_44  and  C_45
REMARK                            x       y       z     vdW  Elec       q    Type
REMARK                         _______ _______ _______ _____ _____    ______ ____
ROOT
ATOM      1  C   UNL     1       8.088  -3.285  26.415  0.00  0.00    +0.080 C 
ENDROOT
BRANCH   1   3
ATOM      2  C   UNL     1       6.688  -1.247  26.782  0.00  0.00    +0.234 C 
ATOM      3  N   UNL     1       6.829  -2.557  26.379  0.00  0.00    -0.311 N 
ATOM      4  H   UNL     1       5.971  -3.076  26.247  0.00  0.00    +0.149 HD
ATOM      5  O   UNL     1       7.633  -0.542  27.126  0.00  0.00    -0.274 OA
BRANCH   2   6
ATOM      6  C   UNL     1       5.205  -0.773  26.844  0.00  0.00    +0.163 C 
BRANCH   6   9
ATOM      7  N   UNL     1       2.610  -3.130  28.135  0.00  0.00    -0.283 N 
ATOM      8  C   UNL     1       3.147  -2.151  27.296  0.00  0.00    +0.303 C 
ATOM      9  N   UNL     1       4.405  -1.715  27.649  0.00  0.00    -0.288 N 
ATOM     10  H   UNL     1       4.871  -2.133  28.430  0.00  0.00    +0.151 HD
ATOM     11  O   UNL     1       2.567  -1.722  26.303  0.00  0.00    -0.253 OA
ATOM     12  C   UNL     1       3.267  -3.684  29.306  0.00  0.00    +0.134 C 
BRANCH   7  13
ATOM     13  C   UNL     1       1.214  -3.546  27.912  0.00  0.00    +0.164 C 
BRANCH  13  17
ATOM     14  C   UNL     1       1.097  -6.299  25.517  0.00  0.00    +0.081 A 
ATOM     15  S   UNL     1       1.013  -7.418  26.825  0.00  0.00    -0.080 S 
ATOM     16  C   UNL     1       1.018  -6.118  27.933  0.00  0.00    +0.071 A 
ATOM     17  C   UNL     1       1.070  -4.906  27.271  0.00  0.00    +0.066 A 
ATOM     18  N   UNL     1       1.097  -5.029  25.876  0.00  0.00    -0.247 NA
BRANCH  14  20
ATOM     19  C   UNL     1       1.163  -5.689  23.084  0.00  0.00    +0.014 C 
ATOM     20  C   UNL     1       1.156  -6.830  24.099  0.00  0.00    +0.038 C 
ATOM     21  C   UNL     1       2.359  -7.749  23.881  0.00  0.00    +0.014 C 
ENDBRANCH  14  20
ENDBRANCH  13  17
ENDBRANCH   7  13
ENDBRANCH   6   9
BRANCH   6  22
ATOM     22  C   UNL     1       5.149   0.667  27.430  0.00  0.00    +0.012 C 
ATOM     23  C   UNL     1       4.915   0.698  28.947  0.00  0.00    +0.009 C 
ATOM     24  C   UNL     1       4.094   1.525  26.723  0.00  0.00    +0.009 C 
ENDBRANCH   6  22
ENDBRANCH   2   6
ENDBRANCH   1   3
BRANCH   1  25
ATOM     25  C   UNL     1       9.138  -2.544  25.566  0.00  0.00    +0.055 C 
BRANCH  25  26
ATOM     26  C   UNL     1       8.983  -2.652  24.037  0.00  0.00    +0.137 C 
BRANCH  26  27
ATOM     27  O   UNL     1      10.294  -2.866  23.489  0.00  0.00    -0.390 OA
ATOM     28  H   UNL     1      10.835  -2.073  23.668  0.00  0.00    +0.210 HD
ENDBRANCH  26  27
BRANCH  26  29
ATOM     29  C   UNL     1       8.255  -1.501  23.287  0.00  0.00    +0.109 C 
BRANCH  29  30
ATOM     30  N   UNL     1       8.439  -0.237  24.018  0.00  0.00    -0.275 N 
ATOM     31  H   UNL     1       7.651   0.145  24.524  0.00  0.00    +0.152 HD
ATOM     32  C   UNL     1       9.537   0.562  23.876  0.00  0.00    +0.401 C 
ATOM     33  O   UNL     1      10.529   0.258  23.228  0.00  0.00    -0.226 OA
BRANCH  32  34
ATOM     34  O   UNL     1       9.358   1.729  24.533  0.00  0.00    -0.445 OA
BRANCH  34  35
ATOM     35  C   UNL     1       8.879   2.828  23.737  0.00  0.00    +0.278 C 
BRANCH  35  36
ATOM     36  C   UNL     1       9.959   3.856  23.666  0.00  0.00    +0.046 A 
ATOM     37  S   UNL     1       9.647   5.519  23.954  0.00  0.00    -0.077 S 
ATOM     38  C   UNL     1      11.311   5.860  23.723  0.00  0.00    +0.156 A 
ATOM     39  N   UNL     1      12.082   4.827  23.465  0.00  0.00    -0.255 NA
ATOM     40  C   UNL     1      11.310   3.682  23.435  0.00  0.00    +0.125 A 
ENDBRANCH  35  36
ENDBRANCH  34  35
ENDBRANCH  32  34
ENDBRANCH  29  30
BRANCH  29  41
ATOM     41  C   UNL     1       6.759  -1.748  22.942  0.00  0.00    +0.060 C 
BRANCH  41  42
ATOM     42  C   UNL     1       6.288  -3.173  22.720  0.00  0.00    -0.046 A 
ATOM     43  C   UNL     1       5.036  -3.577  23.208  0.00  0.00    +0.004 A 
ATOM     44  C   UNL     1       4.567  -4.876  22.991  0.00  0.00    +0.000 A 
ATOM     45  C   UNL     1       5.342  -5.791  22.282  0.00  0.00    +0.000 A 
ATOM     46  C   UNL     1       6.604  -5.420  21.830  0.00  0.00    +0.000 A 
ATOM     47  C   UNL     1       7.083  -4.129  22.070  0.00  0.00    +0.004 A 
ENDBRANCH  41  42
ENDBRANCH  29  41
ENDBRANCH  26  29
ENDBRANCH  25  26
ENDBRANCH   1  25
BRANCH   1  48
ATOM     48  C   UNL     1       7.838  -4.721  25.886  0.00  0.00    +0.057 C 
BRANCH  48  49
ATOM     49  C   UNL     1       6.768  -5.476  26.634  0.00  0.00    -0.046 A 
ATOM     50  C   UNL     1       5.677  -6.037  25.948  0.00  0.00    +0.004 A 
ATOM     51  C   UNL     1       4.709  -6.758  26.645  0.00  0.00    +0.000 A 
ATOM     52  C   UNL     1       4.813  -6.927  28.023  0.00  0.00    +0.000 A 
ATOM     53  C   UNL     1       5.887  -6.363  28.714  0.00  0.00    +0.000 A 
ATOM     54  C   UNL     1       6.850  -5.633  28.024  0.00  0.00    +0.004 A 
ENDBRANCH  48  49
ENDBRANCH   1  48
TORSDOF 19
ENDMDL
MODEL 3
REMARK VINA RESULT:      -6.0      2.821      7.250
REMARK  Name = 
REMARK  24 active torsions:
REMARK  status: ('A' for Active; 'I' for Inactive)
REMARK    1  A    between atoms: C_1  and  C_2
REMARK    2  A    between atoms: C_2  and  C_3
REMARK    3  A    between atoms: C_2  and  C_4
REMARK    4  A    between atoms: C_6  and  C_9
REMARK    5  A    between atoms: C_9  and  N_10
REMARK    6  A    between atoms: N_10  and  C_11
REMARK    7  A    between atoms: N_14  and  C_15
REMARK    8  A    between atoms: C_15  and  C_16
REMARK    9  A    between atoms: C_15  and  C_19
REMARK   10  A    between atoms: C_16  and  C_17
REMARK   11  A    between atoms: C_16  and  C_18
REMARK   12  A    between atoms: N_21  and  C_22
REMARK   13  A    between atoms: C_22  and  C_23
REMARK   14  A    between atoms: C_22  and  C_30
REMARK   15  A    between atoms: C_23  and  C_24
REMARK   16  A    between atoms: C_30  and  C_31
REMARK   17  A    between atoms: C_31  and  C_32
REMARK   18  A    between atoms: C_31  and  O_50
REMARK   19  A    between atoms: C_32  and  C_33
REMARK   20  A    between atoms: C_32  and  N_40
REMARK   21  A    between atoms: C_33  and  C_34
REMARK   22  A    between atoms: C_41  and  O_43
REMARK   23  A    between atoms: O_43  and  C_44
REMARK   24  A    between atoms: C_44  and  C_45
REMARK                            x       y       z     vdW  Elec       q    Type
REMARK                         _______ _______ _______ _____ _____    ______ ____
ROOT
ATOM      1  C   UNL     1       7.886   1.985  22.926  0.00  0.00    +0.080 C 
ENDROOT
BRANCH   1   3
ATOM      2  C   UNL     1       5.546   2.648  23.499  0.00  0.00    +0.234 C 
ATOM      3  N   UNL     1       6.744   2.050  23.824  0.00  0.00    -0.311 N 
ATOM      4  H   UNL     1       6.881   1.834  24.802  0.00  0.00    +0.149 HD
ATOM      5  O   UNL     1       5.300   3.104  22.386  0.00  0.00    -0.274 OA
BRANCH   2   6
ATOM      6  C   UNL     1       4.566   2.770  24.704  0.00  0.00    +0.163 C 
BRANCH   6   9
ATOM      7  N   UNL     1       4.770   0.276  27.479  0.00  0.00    -0.283 N 
ATOM      8  C   UNL     1       4.144   1.129  26.568  0.00  0.00    +0.303 C 
ATOM      9  N   UNL     1       5.003   1.888  25.804  0.00  0.00    -0.288 N 
ATOM     10  H   UNL     1       5.991   1.765  25.904  0.00  0.00    +0.151 HD
ATOM     11  O   UNL     1       2.926   1.190  26.428  0.00  0.00    -0.253 OA
ATOM     12  C   UNL     1       6.205   0.153  27.663  0.00  0.00    +0.134 C 
BRANCH   7  13
ATOM     13  C   UNL     1       3.924  -0.464  28.432  0.00  0.00    +0.164 C 
BRANCH  13  17
ATOM     14  C   UNL     1       3.835  -4.113  28.423  0.00  0.00    +0.081 A 
ATOM     15  S   UNL     1       2.755  -4.072  27.081  0.00  0.00    -0.080 S 
ATOM     16  C   UNL     1       2.846  -2.367  27.064  0.00  0.00    +0.071 A 
ATOM     17  C   UNL     1       3.690  -1.908  28.058  0.00  0.00    +0.066 A 
ATOM     18  N   UNL     1       4.267  -2.931  28.821  0.00  0.00    -0.247 NA
BRANCH  14  20
ATOM     19  C   UNL     1       3.124  -5.944  29.985  0.00  0.00    +0.014 C 
ATOM     20  C   UNL     1       4.207  -5.453  29.027  0.00  0.00    +0.038 C 
ATOM     21  C   UNL     1       4.492  -6.505  27.953  0.00  0.00    +0.014 C 
ENDBRANCH  14  20
ENDBRANCH  13  17
ENDBRANCH   7  13
ENDBRANCH   6   9
BRANCH   6  22
ATOM     22  C   UNL     1       4.492   4.255  25.160  0.00  0.00    +0.012 C 
ATOM     23  C   UNL     1       5.553   4.623  26.209  0.00  0.00    +0.009 C 
ATOM     24  C   UNL     1       3.098   4.619  25.683  0.00  0.00    +0.009 C 
ENDBRANCH   6  22
ENDBRANCH   2   6
ENDBRANCH   1   3
BRANCH   1  25
ATOM     25  C   UNL     1       7.806   0.701  22.079  0.00  0.00    +0.055 C 
BRANCH  25  26
ATOM     26  C   UNL     1       8.927  -0.333  22.293  0.00  0.00    +0.137 C 
BRANCH  26  27
ATOM     27  O   UNL     1       9.522  -0.591  21.011  0.00  0.00    -0.390 OA
ATOM     28  H   UNL     1       9.600   0.257  20.533  0.00  0.00    +0.210 HD
ENDBRANCH  26  27
BRANCH  26  29
ATOM     29  C   UNL     1       8.573  -1.666  23.013  0.00  0.00    +0.109 C 
BRANCH  29  30
ATOM     30  N   UNL     1       7.166  -2.010  22.756  0.00  0.00    -0.275 N 
ATOM     31  H   UNL     1       6.449  -1.369  23.069  0.00  0.00    +0.152 HD
ATOM     32  C   UNL     1       6.758  -3.239  22.321  0.00  0.00    +0.401 C 
ATOM     33  O   UNL     1       7.519  -4.136  21.984  0.00  0.00    -0.226 OA
BRANCH  32  34
ATOM     34  O   UNL     1       5.409  -3.320  22.336  0.00  0.00    -0.445 OA
BRANCH  34  35
ATOM     35  C   UNL     1       4.803  -3.430  23.637  0.00  0.00    +0.278 C 
BRANCH  35  36
ATOM     36  C   UNL     1       4.389  -4.849  23.838  0.00  0.00    +0.046 A 
ATOM     37  S   UNL     1       2.803  -5.391  23.469  0.00  0.00    -0.077 S 
ATOM     38  C   UNL     1       3.251  -6.981  23.929  0.00  0.00    +0.156 A 
ATOM     39  N   UNL     1       4.495  -7.140  24.321  0.00  0.00    -0.255 NA
ATOM     40  C   UNL     1       5.147  -5.923  24.267  0.00  0.00    +0.125 A 
ENDBRANCH  35  36
ENDBRANCH  34  35
ENDBRANCH  32  34
ENDBRANCH  29  30
BRANCH  29  41
ATOM     41  C   UNL     1       8.910  -1.736  24.529  0.00  0.00    +0.060 C 
BRANCH  41  42
ATOM     42  C   UNL     1       8.542  -2.990  25.300  0.00  0.00    -0.046 A 
ATOM     43  C   UNL     1       9.235  -4.186  25.056  0.00  0.00    +0.004 A 
ATOM     44  C   UNL     1       8.934  -5.347  25.774  0.00  0.00    +0.000 A 
ATOM     45  C   UNL     1       7.940  -5.331  26.748  0.00  0.00    +0.000 A 
ATOM     46  C   UNL     1       7.214  -4.165  26.972  0.00  0.00    +0.000 A 
ATOM     47  C   UNL     1       7.496  -3.011  26.236  0.00  0.00    +0.004 A 
ENDBRANCH  41  42
ENDBRANCH  29  41
ENDBRANCH  26  29
ENDBRANCH  25  26
ENDBRANCH   1  25
BRANCH   1  48
ATOM     48  C   UNL     1       9.181   2.024  23.779  0.00  0.00    +0.057 C 
BRANCH  48  49
ATOM     49  C   UNL     1       9.908   3.344  23.735  0.00  0.00    -0.046 A 
ATOM     50  C   UNL     1       9.256   4.532  24.110  0.00  0.00    +0.004 A 
ATOM     51  C   UNL     1       9.946   5.744  24.094  0.00  0.00    +0.000 A 
ATOM     52  C   UNL     1      11.282   5.787  23.705  0.00  0.00    +0.000 A 
ATOM     53  C   UNL     1      11.935   4.614  23.320  0.00  0.00    +0.000 A 
ATOM     54  C   UNL     1      11.247   3.405  23.325  0.00  0.00    +0.004 A 
ENDBRANCH  48  49
ENDBRANCH   1  48
TORSDOF 19
ENDMDL
MODEL 4
REMARK VINA RESULT:      -5.9      2.436      8.075
REMARK  Name = 
REMARK  24 active torsions:
REMARK  status: ('A' for Active; 'I' for Inactive)
REMARK    1  A    between atoms: C_1  and  C_2
REMARK    2  A    between atoms: C_2  and  C_3
REMARK    3  A    between atoms: C_2  and  C_4
REMARK    4  A    between atoms: C_6  and  C_9
REMARK    5  A    between atoms: C_9  and  N_10
REMARK    6  A    between atoms: N_10  and  C_11
REMARK    7  A    between atoms: N_14  and  C_15
REMARK    8  A    between atoms: C_15  and  C_16
REMARK    9  A    between atoms: C_15  and  C_19
REMARK   10  A    between atoms: C_16  and  C_17
REMARK   11  A    between atoms: C_16  and  C_18
REMARK   12  A    between atoms: N_21  and  C_22
REMARK   13  A    between atoms: C_22  and  C_23
REMARK   14  A    between atoms: C_22  and  C_30
REMARK   15  A    between atoms: C_23  and  C_24
REMARK   16  A    between atoms: C_30  and  C_31
REMARK   17  A    between atoms: C_31  and  C_32
REMARK   18  A    between atoms: C_31  and  O_50
REMARK   19  A    between atoms: C_32  and  C_33
REMARK   20  A    between atoms: C_32  and  N_40
REMARK   21  A    between atoms: C_33  and  C_34
REMARK   22  A    between atoms: C_41  and  O_43
REMARK   23  A    between atoms: O_43  and  C_44
REMARK   24  A    between atoms: C_44  and  C_45
REMARK                            x       y       z     vdW  Elec       q    Type
REMARK                         _______ _______ _______ _____ _____    ______ ____
ROOT
ATOM      1  C   UNL     1       7.946  -3.113  26.609  0.00  0.00    +0.080 C 
ENDROOT
BRANCH   1   3
ATOM      2  C   UNL     1       7.367  -0.747  27.167  0.00  0.00    +0.234 C 
ATOM      3  N   UNL     1       7.018  -1.998  26.705  0.00  0.00    -0.311 N 
ATOM      4  H   UNL     1       6.026  -2.182  26.628  0.00  0.00    +0.149 HD
ATOM      5  O   UNL     1       8.517  -0.432  27.456  0.00  0.00    -0.274 OA
BRANCH   2   6
ATOM      6  C   UNL     1       6.147   0.202  27.371  0.00  0.00    +0.163 C 
BRANCH   6   9
ATOM      7  N   UNL     1       5.500   2.834  24.799  0.00  0.00    -0.283 N 
ATOM      8  C   UNL     1       5.619   2.301  26.084  0.00  0.00    +0.303 C 
ATOM      9  N   UNL     1       5.873   0.948  26.128  0.00  0.00    -0.288 N 
ATOM     10  H   UNL     1       5.997   0.442  25.273  0.00  0.00    +0.151 HD
ATOM     11  O   UNL     1       5.534   2.978  27.105  0.00  0.00    -0.253 OA
ATOM     12  C   UNL     1       5.616   2.078  23.564  0.00  0.00    +0.134 C 
BRANCH   7  13
ATOM     13  C   UNL     1       5.088   4.242  24.666  0.00  0.00    +0.164 C 
BRANCH  13  17
ATOM     14  C   UNL     1       8.112   6.168  23.977  0.00  0.00    +0.081 A 
ATOM     15  S   UNL     1       7.574   6.410  22.357  0.00  0.00    -0.080 S 
ATOM     16  C   UNL     1       6.141   5.550  22.708  0.00  0.00    +0.071 A 
ATOM     17  C   UNL     1       6.126   5.132  24.025  0.00  0.00    +0.066 A 
ATOM     18  N   UNL     1       7.263   5.513  24.748  0.00  0.00    -0.247 NA
BRANCH  14  20
ATOM     19  C   UNL     1       9.662   6.603  25.901  0.00  0.00    +0.014 C 
ATOM     20  C   UNL     1       9.465   6.710  24.391  0.00  0.00    +0.038 C 
ATOM     21  C   UNL     1      10.610   6.016  23.650  0.00  0.00    +0.014 C 
ENDBRANCH  14  20
ENDBRANCH  13  17
ENDBRANCH   7  13
ENDBRANCH   6   9
BRANCH   6  22
ATOM     22  C   UNL     1       4.914  -0.634  27.817  0.00  0.00    +0.012 C 
ATOM     23  C   UNL     1       3.782  -0.651  26.779  0.00  0.00    +0.009 C 
ATOM     24  C   UNL     1       4.370  -0.162  29.171  0.00  0.00    +0.009 C 
ENDBRANCH   6  22
ENDBRANCH   2   6
ENDBRANCH   1   3
BRANCH   1  25
ATOM     25  C   UNL     1       9.115  -2.734  25.681  0.00  0.00    +0.055 C 
BRANCH  25  26
ATOM     26  C   UNL     1       8.952  -3.093  24.192  0.00  0.00    +0.137 C 
BRANCH  26  27
ATOM     27  O   UNL     1      10.266  -3.121  23.611  0.00  0.00    -0.390 OA
ATOM     28  H   UNL     1      10.903  -3.378  24.307  0.00  0.00    +0.210 HD
ENDBRANCH  26  27
BRANCH  26  29
ATOM     29  C   UNL     1       7.988  -2.230  23.327  0.00  0.00    +0.109 C 
BRANCH  29  30
ATOM     30  N   UNL     1       6.963  -3.091  22.717  0.00  0.00    -0.275 N 
ATOM     31  H   UNL     1       7.202  -3.603  21.877  0.00  0.00    +0.152 HD
ATOM     32  C   UNL     1       5.648  -3.073  23.084  0.00  0.00    +0.401 C 
ATOM     33  O   UNL     1       5.208  -2.437  24.032  0.00  0.00    -0.226 OA
BRANCH  32  34
ATOM     34  O   UNL     1       4.914  -3.837  22.246  0.00  0.00    -0.445 OA
BRANCH  34  35
ATOM     35  C   UNL     1       5.269  -5.231  22.199  0.00  0.00    +0.278 C 
BRANCH  35  36
ATOM     36  C   UNL     1       4.467  -5.949  23.232  0.00  0.00    +0.046 A 
ATOM     37  S   UNL     1       2.772  -5.720  23.384  0.00  0.00    -0.077 S 
ATOM     38  C   UNL     1       2.741  -6.870  24.656  0.00  0.00    +0.156 A 
ATOM     39  N   UNL     1       3.894  -7.421  24.964  0.00  0.00    -0.255 NA
ATOM     40  C   UNL     1       4.879  -6.898  24.149  0.00  0.00    +0.125 A 
ENDBRANCH  35  36
ENDBRANCH  34  35
ENDBRANCH  32  34
ENDBRANCH  29  30
BRANCH  29  41
ATOM     41  C   UNL     1       8.658  -1.305  22.272  0.00  0.00    +0.060 C 
BRANCH  41  42
ATOM     42  C   UNL     1       9.116   0.076  22.701  0.00  0.00    -0.046 A 
ATOM     43  C   UNL     1       8.857   0.523  24.006  0.00  0.00    +0.004 A 
ATOM     44  C   UNL     1       9.294   1.779  24.434  0.00  0.00    +0.000 A 
ATOM     45  C   UNL     1       9.999   2.609  23.565  0.00  0.00    +0.000 A 
ATOM     46  C   UNL     1      10.227   2.200  22.255  0.00  0.00    +0.000 A 
ATOM     47  C   UNL     1       9.766   0.954  21.820  0.00  0.00    +0.004 A 
ENDBRANCH  41  42
ENDBRANCH  29  41
ENDBRANCH  26  29
ENDBRANCH  25  26
ENDBRANCH   1  25
BRANCH   1  48
ATOM     48  C   UNL     1       7.173  -4.347  26.076  0.00  0.00    +0.057 C 
BRANCH  48  49
ATOM     49  C   UNL     1       6.103  -4.854  27.009  0.00  0.00    -0.046 A 
ATOM     50  C   UNL     1       4.769  -4.433  26.863  0.00  0.00    +0.004 A 
ATOM     51  C   UNL     1       3.781  -4.929  27.712  0.00  0.00    +0.000 A 
ATOM     52  C   UNL     1       4.107  -5.843  28.711  0.00  0.00    +0.000 A 
ATOM     53  C   UNL     1       5.430  -6.258  28.871  0.00  0.00    +0.000 A 
ATOM     54  C   UNL     1       6.421  -5.757  28.033  0.00  0.00    +0.004 A 
ENDBRANCH  48  49
ENDBRANCH   1  48
TORSDOF 19
ENDMDL
MODEL 5
REMARK VINA RESULT:      -5.8      2.830      8.825
REMARK  Name = 
REMARK  24 active torsions:
REMARK  status: ('A' for Active; 'I' for Inactive)
REMARK    1  A    between atoms: C_1  and  C_2
REMARK    2  A    between atoms: C_2  and  C_3
REMARK    3  A    between atoms: C_2  and  C_4
REMARK    4  A    between atoms: C_6  and  C_9
REMARK    5  A    between atoms: C_9  and  N_10
REMARK    6  A    between atoms: N_10  and  C_11
REMARK    7  A    between atoms: N_14  and  C_15
REMARK    8  A    between atoms: C_15  and  C_16
REMARK    9  A    between atoms: C_15  and  C_19
REMARK   10  A    between atoms: C_16  and  C_17
REMARK   11  A    between atoms: C_16  and  C_18
REMARK   12  A    between atoms: N_21  and  C_22
REMARK   13  A    between atoms: C_22  and  C_23
REMARK   14  A    between atoms: C_22  and  C_30
REMARK   15  A    between atoms: C_23  and  C_24
REMARK   16  A    between atoms: C_30  and  C_31
REMARK   17  A    between atoms: C_31  and  C_32
REMARK   18  A    between atoms: C_31  and  O_50
REMARK   19  A    between atoms: C_32  and  C_33
REMARK   20  A    between atoms: C_32  and  N_40
REMARK   21  A    between atoms: C_33  and  C_34
REMARK   22  A    between atoms: C_41  and  O_43
REMARK   23  A    between atoms: O_43  and  C_44
REMARK   24  A    between atoms: C_44  and  C_45
REMARK                            x       y       z     vdW  Elec       q    Type
REMARK                         _______ _______ _______ _____ _____    ______ ____
ROOT
ATOM      1  C   UNL     1       7.989  -2.049  23.957  0.00  0.00    +0.080 C 
ENDROOT
BRANCH   1   3
ATOM      2  C   UNL     1       6.012  -1.478  25.376  0.00  0.00    +0.234 C 
ATOM      3  N   UNL     1       7.300  -1.947  25.234  0.00  0.00    -0.311 N 
ATOM      4  H   UNL     1       7.840  -2.026  26.086  0.00  0.00    +0.149 HD
ATOM      5  O   UNL     1       5.293  -1.186  24.425  0.00  0.00    -0.274 OA
BRANCH   2   6
ATOM      6  C   UNL     1       5.587  -1.270  26.861  0.00  0.00    +0.163 C 
BRANCH   6   9
ATOM      7  N   UNL     1       6.032   2.401  27.397  0.00  0.00    -0.283 N 
ATOM      8  C   UNL     1       6.431   1.071  27.251  0.00  0.00    +0.303 C 
ATOM      9  N   UNL     1       5.397   0.168  27.136  0.00  0.00    -0.288 N 
ATOM     10  H   UNL     1       4.453   0.498  27.122  0.00  0.00    +0.151 HD
ATOM     11  O   UNL     1       7.606   0.721  27.198  0.00  0.00    -0.253 OA
ATOM     12  C   UNL     1       4.657   2.864  27.441  0.00  0.00    +0.134 C 
BRANCH   7  13
ATOM     13  C   UNL     1       7.070   3.411  27.669  0.00  0.00    +0.164 C 
BRANCH  13  17
ATOM     14  C   UNL     1       7.569   4.746  24.308  0.00  0.00    +0.081 A 
ATOM     15  S   UNL     1       7.694   6.333  24.969  0.00  0.00    -0.080 S 
ATOM     16  C   UNL     1       7.509   5.689  26.540  0.00  0.00    +0.071 A 
ATOM     17  C   UNL     1       7.375   4.314  26.497  0.00  0.00    +0.066 A 
ATOM     18  N   UNL     1       7.431   3.784  25.202  0.00  0.00    -0.247 NA
BRANCH  14  20
ATOM     19  C   UNL     1       6.772   3.393  22.351  0.00  0.00    +0.014 C 
ATOM     20  C   UNL     1       7.634   4.570  22.804  0.00  0.00    +0.038 C 
ATOM     21  C   UNL     1       7.234   5.846  22.061  0.00  0.00    +0.014 C 
ENDBRANCH  14  20
ENDBRANCH  13  17
ENDBRANCH   7  13
ENDBRANCH   6   9
BRANCH   6  22
ATOM     22  C   UNL     1       4.290  -2.080  27.143  0.00  0.00    +0.012 C 
ATOM     23  C   UNL     1       4.081  -3.251  26.170  0.00  0.00    +0.009 C 
ATOM     24  C   UNL     1       3.050  -1.180  27.148  0.00  0.00    +0.009 C 
ENDBRANCH   6  22
ENDBRANCH   2   6
ENDBRANCH   1   3
BRANCH   1  25
ATOM     25  C   UNL     1       7.875  -3.489  23.422  0.00  0.00    +0.055 C 
BRANCH  25  26
ATOM     26  C   UNL     1       7.852  -4.612  24.476  0.00  0.00    +0.137 C 
BRANCH  26  27
ATOM     27  O   UNL     1       8.753  -5.637  24.028  0.00  0.00    -0.390 OA
ATOM     28  H   UNL     1       8.237  -6.308  23.541  0.00  0.00    +0.210 HD
ENDBRANCH  26  27
BRANCH  26  29
ATOM     29  C   UNL     1       6.477  -5.224  24.870  0.00  0.00    +0.109 C 
BRANCH  29  30
ATOM     30  N   UNL     1       6.621  -6.016  26.101  0.00  0.00    -0.275 N 
ATOM     31  H   UNL     1       6.341  -6.988  26.083  0.00  0.00    +0.152 HD
ATOM     32  C   UNL     1       6.901  -5.470  27.321  0.00  0.00    +0.401 C 
ATOM     33  O   UNL     1       7.181  -4.292  27.498  0.00  0.00    -0.226 OA
BRANCH  32  34
ATOM     34  O   UNL     1       6.806  -6.407  28.290  0.00  0.00    -0.445 OA
BRANCH  34  35
ATOM     35  C   UNL     1       6.084  -6.013  29.472  0.00  0.00    +0.278 C 
BRANCH  35  36
ATOM     36  C   UNL     1       4.631  -5.972  29.136  0.00  0.00    +0.046 A 
ATOM     37  S   UNL     1       3.602  -4.727  29.718  0.00  0.00    -0.077 S 
ATOM     38  C   UNL     1       2.291  -5.426  28.861  0.00  0.00    +0.156 A 
ATOM     39  N   UNL     1       2.567  -6.505  28.164  0.00  0.00    -0.255 NA
ATOM     40  C   UNL     1       3.904  -6.816  28.318  0.00  0.00    +0.125 A 
ENDBRANCH  35  36
ENDBRANCH  34  35
ENDBRANCH  32  34
ENDBRANCH  29  30
BRANCH  29  41
ATOM     41  C   UNL     1       5.739  -6.023  23.760  0.00  0.00    +0.060 C 
BRANCH  41  42
ATOM     42  C   UNL     1       4.229  -6.150  23.833  0.00  0.00    -0.046 A 
ATOM     43  C   UNL     1       3.653  -7.236  24.510  0.00  0.00    +0.004 A 
ATOM     44  C   UNL     1       2.265  -7.359  24.617  0.00  0.00    +0.000 A 
ATOM     45  C   UNL     1       1.431  -6.397  24.051  0.00  0.00    +0.000 A 
ATOM     46  C   UNL     1       1.985  -5.338  23.340  0.00  0.00    +0.000 A 
ATOM     47  C   UNL     1       3.372  -5.230  23.210  0.00  0.00    +0.004 A 
ENDBRANCH  41  42
ENDBRANCH  29  41
ENDBRANCH  26  29
ENDBRANCH  25  26
ENDBRANCH   1  25
BRANCH   1  48
ATOM     48  C   UNL     1       9.469  -1.635  24.166  0.00  0.00    +0.057 C 
BRANCH  48  49
ATOM     49  C   UNL     1       9.798  -0.252  23.665  0.00  0.00    -0.046 A 
ATOM     50  C   UNL     1       9.652   0.069  22.304  0.00  0.00    +0.004 A 
ATOM     51  C   UNL     1       9.932   1.359  21.856  0.00  0.00    +0.000 A 
ATOM     52  C   UNL     1      10.360   2.338  22.749  0.00  0.00    +0.000 A 
ATOM     53  C   UNL     1      10.520   2.025  24.101  0.00  0.00    +0.000 A 
ATOM     54  C   UNL     1      10.252   0.736  24.551  0.00  0.00    +0.004 A 
ENDBRANCH  48  49
ENDBRANCH   1  48
TORSDOF 19
ENDMDL
MODEL 6
REMARK VINA RESULT:      -5.8      2.196      3.140
REMARK  Name = 
REMARK  24 active torsions:
REMARK  status: ('A' for Active; 'I' for Inactive)
REMARK    1  A    between atoms: C_1  and  C_2
REMARK    2  A    between atoms: C_2  and  C_3
REMARK    3  A    between atoms: C_2  and  C_4
REMARK    4  A    between atoms: C_6  and  C_9
REMARK    5  A    between atoms: C_9  and  N_10
REMARK    6  A    between atoms: N_10  and  C_11
REMARK    7  A    between atoms: N_14  and  C_15
REMARK    8  A    between atoms: C_15  and  C_16
REMARK    9  A    between atoms: C_15  and  C_19
REMARK   10  A    between atoms: C_16  and  C_17
REMARK   11  A    between atoms: C_16  and  C_18
REMARK   12  A    between atoms: N_21  and  C_22
REMARK   13  A    between atoms: C_22  and  C_23
REMARK   14  A    between atoms: C_22  and  C_30
REMARK   15  A    between atoms: C_23  and  C_24
REMARK   16  A    between atoms: C_30  and  C_31
REMARK   17  A    between atoms: C_31  and  C_32
REMARK   18  A    between atoms: C_31  and  O_50
REMARK   19  A    between atoms: C_32  and  C_33
REMARK   20  A    between atoms: C_32  and  N_40
REMARK   21  A    between atoms: C_33  and  C_34
REMARK   22  A    between atoms: C_41  and  O_43
REMARK   23  A    between atoms: O_43  and  C_44
REMARK   24  A    between atoms: C_44  and  C_45
REMARK                            x       y       z     vdW  Elec       q    Type
REMARK                         _______ _______ _______ _____ _____    ______ ____
ROOT
ATOM      1  C   UNL     1       6.540   0.165  25.425  0.00  0.00    +0.080 C 
ENDROOT
BRANCH   1   3
ATOM      2  C   UNL     1       5.462   0.806  27.587  0.00  0.00    +0.234 C 
ATOM      3  N   UNL     1       5.407   0.605  26.224  0.00  0.00    -0.311 N 
ATOM      4  H   UNL     1       4.482   0.572  25.818  0.00  0.00    +0.149 HD
ATOM      5  O   UNL     1       6.498   0.719  28.240  0.00  0.00    -0.274 OA
BRANCH   2   6
ATOM      6  C   UNL     1       4.068   1.067  28.232  0.00  0.00    +0.163 C 
BRANCH   6   9
ATOM      7  N   UNL     1       2.293  -2.214  28.431  0.00  0.00    -0.283 N 
ATOM      8  C   UNL     1       2.667  -0.993  27.866  0.00  0.00    +0.303 C 
ATOM      9  N   UNL     1       3.465  -0.207  28.668  0.00  0.00    -0.288 N 
ATOM     10  H   UNL     1       3.759  -0.551  29.560  0.00  0.00    +0.151 HD
ATOM     11  O   UNL     1       2.342  -0.645  26.735  0.00  0.00    -0.253 OA
ATOM     12  C   UNL     1       2.671  -2.677  29.754  0.00  0.00    +0.134 C 
BRANCH   7  13
ATOM     13  C   UNL     1       1.325  -3.050  27.698  0.00  0.00    +0.164 C 
BRANCH  13  17
ATOM     14  C   UNL     1       3.666  -5.217  25.923  0.00  0.00    +0.081 A 
ATOM     15  S   UNL     1       2.508  -6.493  25.977  0.00  0.00    -0.080 S 
ATOM     16  C   UNL     1       1.404  -5.453  26.763  0.00  0.00    +0.071 A 
ATOM     17  C   UNL     1       1.950  -4.195  26.937  0.00  0.00    +0.066 A 
ATOM     18  N   UNL     1       3.249  -4.071  26.429  0.00  0.00    -0.247 NA
BRANCH  14  20
ATOM     19  C   UNL     1       6.003  -6.017  26.360  0.00  0.00    +0.014 C 
ATOM     20  C   UNL     1       5.027  -5.485  25.313  0.00  0.00    +0.038 C 
ATOM     21  C   UNL     1       4.942  -6.443  24.123  0.00  0.00    +0.014 C 
ENDBRANCH  14  20
ENDBRANCH  13  17
ENDBRANCH   7  13
ENDBRANCH   6   9
BRANCH   6  22
ATOM     22  C   UNL     1       4.229   2.058  29.420  0.00  0.00    +0.012 C 
ATOM     23  C   UNL     1       3.064   2.004  30.420  0.00  0.00    +0.009 C 
ATOM     24  C   UNL     1       4.430   3.498  28.934  0.00  0.00    +0.009 C 
ENDBRANCH   6  22
ENDBRANCH   2   6
ENDBRANCH   1   3
BRANCH   1  25
ATOM     25  C   UNL     1       7.087   1.350  24.608  0.00  0.00    +0.055 C 
BRANCH  25  26
ATOM     26  C   UNL     1       8.256   2.133  25.236  0.00  0.00    +0.137 C 
BRANCH  26  27
ATOM     27  O   UNL     1       7.734   2.846  26.369  0.00  0.00    -0.390 OA
ATOM     28  H   UNL     1       7.970   3.789  26.274  0.00  0.00    +0.210 HD
ENDBRANCH  26  27
BRANCH  26  29
ATOM     29  C   UNL     1       9.082   3.083  24.322  0.00  0.00    +0.109 C 
BRANCH  29  30
ATOM     30  N   UNL     1       8.182   3.784  23.393  0.00  0.00    -0.275 N 
ATOM     31  H   UNL     1       7.756   3.253  22.644  0.00  0.00    +0.152 HD
ATOM     32  C   UNL     1       8.060   5.143  23.343  0.00  0.00    +0.401 C 
ATOM     33  O   UNL     1       8.584   5.910  24.139  0.00  0.00    -0.226 OA
BRANCH  32  34
ATOM     34  O   UNL     1       7.298   5.509  22.289  0.00  0.00    -0.445 OA
BRANCH  34  35
ATOM     35  C   UNL     1       5.996   6.032  22.610  0.00  0.00    +0.278 C 
BRANCH  35  36
ATOM     36  C   UNL     1       5.191   4.932  23.217  0.00  0.00    +0.046 A 
ATOM     37  S   UNL     1       4.748   4.944  24.876  0.00  0.00    -0.077 S 
ATOM     38  C   UNL     1       3.898   3.472  24.648  0.00  0.00    +0.156 A 
ATOM     39  N   UNL     1       3.907   2.983  23.427  0.00  0.00    -0.255 NA
ATOM     40  C   UNL     1       4.643   3.818  22.610  0.00  0.00    +0.125 A 
ENDBRANCH  35  36
ENDBRANCH  34  35
ENDBRANCH  32  34
ENDBRANCH  29  30
BRANCH  29  41
ATOM     41  C   UNL     1      10.285   2.441  23.577  0.00  0.00    +0.060 C 
BRANCH  41  42
ATOM     42  C   UNL     1      10.125   1.046  23.001  0.00  0.00    -0.046 A 
ATOM     43  C   UNL     1       9.481   0.871  21.766  0.00  0.00    +0.004 A 
ATOM     44  C   UNL     1       9.347  -0.400  21.202  0.00  0.00    +0.000 A 
ATOM     45  C   UNL     1       9.856  -1.517  21.861  0.00  0.00    +0.000 A 
ATOM     46  C   UNL     1      10.458  -1.366  23.105  0.00  0.00    +0.000 A 
ATOM     47  C   UNL     1      10.568  -0.098  23.682  0.00  0.00    +0.004 A 
ENDBRANCH  41  42
ENDBRANCH  29  41
ENDBRANCH  26  29
ENDBRANCH  25  26
ENDBRANCH   1  25
BRANCH   1  48
ATOM     48  C   UNL     1       6.067  -0.991  24.504  0.00  0.00    +0.057 C 
BRANCH  48  49
ATOM     49  C   UNL     1       6.997  -2.177  24.477  0.00  0.00    -0.046 A 
ATOM     50  C   UNL     1       7.859  -2.434  25.558  0.00  0.00    +0.004 A 
ATOM     51  C   UNL     1       8.694  -3.551  25.536  0.00  0.00    +0.000 A 
ATOM     52  C   UNL     1       8.683  -4.417  24.446  0.00  0.00    +0.000 A 
ATOM     53  C   UNL     1       7.839  -4.162  23.363  0.00  0.00    +0.000 A 
ATOM     54  C   UNL     1       7.012  -3.044  23.376  0.00  0.00    +0.004 A 
ENDBRANCH  48  49
ENDBRANCH   1  48
TORSDOF 19
ENDMDL
MODEL 7
REMARK VINA RESULT:      -5.8      2.777      6.550
REMARK  Name = 
REMARK  24 active torsions:
REMARK  status: ('A' for Active; 'I' for Inactive)
REMARK    1  A    between atoms: C_1  and  C_2
REMARK    2  A    between atoms: C_2  and  C_3
REMARK    3  A    between atoms: C_2  and  C_4
REMARK    4  A    between atoms: C_6  and  C_9
REMARK    5  A    between atoms: C_9  and  N_10
REMARK    6  A    between atoms: N_10  and  C_11
REMARK    7  A    between atoms: N_14  and  C_15
REMARK    8  A    between atoms: C_15  and  C_16
REMARK    9  A    between atoms: C_15  and  C_19
REMARK   10  A    between atoms: C_16  and  C_17
REMARK   11  A    between atoms: C_16  and  C_18
REMARK   12  A    between atoms: N_21  and  C_22
REMARK   13  A    between atoms: C_22  and  C_23
REMARK   14  A    between atoms: C_22  and  C_30
REMARK   15  A    between atoms: C_23  and  C_24
REMARK   16  A    between atoms: C_30  and  C_31
REMARK   17  A    between atoms: C_31  and  C_32
REMARK   18  A    between atoms: C_31  and  O_50
REMARK   19  A    between atoms: C_32  and  C_33
REMARK   20  A    between atoms: C_32  and  N_40
REMARK   21  A    between atoms: C_33  and  C_34
REMARK   22  A    between atoms: C_41  and  O_43
REMARK   23  A    between atoms: O_43  and  C_44
REMARK   24  A    between atoms: C_44  and  C_45
REMARK                            x       y       z     vdW  Elec       q    Type
REMARK                         _______ _______ _______ _____ _____    ______ ____
ROOT
ATOM      1  C   UNL     1       5.723  -4.809  23.815  0.00  0.00    +0.080 C 
ENDROOT
BRANCH   1   3
ATOM      2  C   UNL     1       5.985  -4.970  26.296  0.00  0.00    +0.234 C 
ATOM      3  N   UNL     1       5.472  -4.355  25.174  0.00  0.00    -0.311 N 
ATOM      4  H   UNL     1       4.731  -3.686  25.335  0.00  0.00    +0.149 HD
ATOM      5  O   UNL     1       6.777  -5.907  26.248  0.00  0.00    -0.274 OA
BRANCH   2   6
ATOM      6  C   UNL     1       5.397  -4.420  27.630  0.00  0.00    +0.163 C 
BRANCH   6   9
ATOM      7  N   UNL     1       2.789  -1.750  27.451  0.00  0.00    -0.283 N 
ATOM      8  C   UNL     1       3.932  -2.393  27.931  0.00  0.00    +0.303 C 
ATOM      9  N   UNL     1       4.187  -3.620  27.357  0.00  0.00    -0.288 N 
ATOM     10  H   UNL     1       3.591  -3.956  26.627  0.00  0.00    +0.151 HD
ATOM     11  O   UNL     1       4.676  -1.906  28.776  0.00  0.00    -0.253 OA
ATOM     12  C   UNL     1       1.893  -2.276  26.437  0.00  0.00    +0.134 C 
BRANCH   7  13
ATOM     13  C   UNL     1       2.366  -0.502  28.112  0.00  0.00    +0.164 C 
BRANCH  13  17
ATOM     14  C   UNL     1       3.448   2.386  26.159  0.00  0.00    +0.081 A 
ATOM     15  S   UNL     1       4.421   2.903  27.485  0.00  0.00    -0.080 S 
ATOM     16  C   UNL     1       3.946   1.521  28.368  0.00  0.00    +0.071 A 
ATOM     17  C   UNL     1       3.089   0.730  27.625  0.00  0.00    +0.066 A 
ATOM     18  N   UNL     1       2.828   1.235  26.345  0.00  0.00    -0.247 NA
BRANCH  14  20
ATOM     19  C   UNL     1       1.970   3.264  24.332  0.00  0.00    +0.014 C 
ATOM     20  C   UNL     1       3.380   3.251  24.916  0.00  0.00    +0.038 C 
ATOM     21  C   UNL     1       3.863   4.677  25.185  0.00  0.00    +0.014 C 
ENDBRANCH  14  20
ENDBRANCH  13  17
ENDBRANCH   7  13
ENDBRANCH   6   9
BRANCH   6  22
ATOM     22  C   UNL     1       5.091  -5.607  28.586  0.00  0.00    +0.012 C 
ATOM     23  C   UNL     1       3.703  -6.226  28.363  0.00  0.00    +0.009 C 
ATOM     24  C   UNL     1       5.251  -5.205  30.057  0.00  0.00    +0.009 C 
ENDBRANCH   6  22
ENDBRANCH   2   6
ENDBRANCH   1   3
BRANCH   1  25
ATOM     25  C   UNL     1       6.561  -3.757  23.065  0.00  0.00    +0.055 C 
BRANCH  25  26
ATOM     26  C   UNL     1       8.088  -3.832  23.258  0.00  0.00    +0.137 C 
BRANCH  26  27
ATOM     27  O   UNL     1       8.382  -5.107  23.850  0.00  0.00    -0.390 OA
ATOM     28  H   UNL     1       8.780  -5.679  23.165  0.00  0.00    +0.210 HD
ENDBRANCH  26  27
BRANCH  26  29
ATOM     29  C   UNL     1       8.788  -2.686  24.044  0.00  0.00    +0.109 C 
BRANCH  29  30
ATOM     30  N   UNL     1       7.805  -1.647  24.388  0.00  0.00    -0.275 N 
ATOM     31  H   UNL     1       7.498  -1.015  23.659  0.00  0.00    +0.152 HD
ATOM     32  C   UNL     1       7.448  -1.343  25.670  0.00  0.00    +0.401 C 
ATOM     33  O   UNL     1       7.808  -1.976  26.653  0.00  0.00    -0.226 OA
BRANCH  32  34
ATOM     34  O   UNL     1       6.662  -0.243  25.692  0.00  0.00    -0.445 OA
BRANCH  34  35
ATOM     35  C   UNL     1       7.323   0.990  26.032  0.00  0.00    +0.278 C 
BRANCH  35  36
ATOM     36  C   UNL     1       7.103   1.957  24.916  0.00  0.00    +0.046 A 
ATOM     37  S   UNL     1       7.541   3.611  25.052  0.00  0.00    -0.077 S 
ATOM     38  C   UNL     1       7.012   3.872  23.442  0.00  0.00    +0.156 A 
ATOM     39  N   UNL     1       6.550   2.817  22.808  0.00  0.00    -0.255 NA
ATOM     40  C   UNL     1       6.604   1.723  23.649  0.00  0.00    +0.125 A 
ENDBRANCH  35  36
ENDBRANCH  34  35
ENDBRANCH  32  34
ENDBRANCH  29  30
BRANCH  29  41
ATOM     41  C   UNL     1      10.055  -2.076  23.380  0.00  0.00    +0.060 C 
BRANCH  41  42
ATOM     42  C   UNL     1      10.138  -0.570  23.216  0.00  0.00    -0.046 A 
ATOM     43  C   UNL     1      10.574   0.225  24.288  0.00  0.00    +0.004 A 
ATOM     44  C   UNL     1      10.687   1.611  24.151  0.00  0.00    +0.000 A 
ATOM     45  C   UNL     1      10.368   2.225  22.943  0.00  0.00    +0.000 A 
ATOM     46  C   UNL     1       9.892   1.456  21.885  0.00  0.00    +0.000 A 
ATOM     47  C   UNL     1       9.754   0.073  22.030  0.00  0.00    +0.004 A 
ENDBRANCH  41  42
ENDBRANCH  29  41
ENDBRANCH  26  29
ENDBRANCH  25  26
ENDBRANCH   1  25
BRANCH   1  48
ATOM     48  C   UNL     1       4.357  -5.050  23.121  0.00  0.00    +0.057 C 
BRANCH  48  49
ATOM     49  C   UNL     1       3.388  -5.870  23.935  0.00  0.00    -0.046 A 
ATOM     50  C   UNL     1       3.717  -7.177  24.335  0.00  0.00    +0.004 A 
ATOM     51  C   UNL     1       2.826  -7.916  25.111  0.00  0.00    +0.000 A 
ATOM     52  C   UNL     1       1.605  -7.368  25.495  0.00  0.00    +0.000 A 
ATOM     53  C   UNL     1       1.265  -6.075  25.093  0.00  0.00    +0.000 A 
ATOM     54  C   UNL     1       2.147  -5.338  24.309  0.00  0.00    +0.004 A 
ENDBRANCH  48  49
ENDBRANCH   1  48
TORSDOF 19
ENDMDL
MODEL 8
REMARK VINA RESULT:      -5.7      2.753      7.970
REMARK  Name = 
REMARK  24 active torsions:
REMARK  status: ('A' for Active; 'I' for Inactive)
REMARK    1  A    between atoms: C_1  and  C_2
REMARK    2  A    between atoms: C_2  and  C_3
REMARK    3  A    between atoms: C_2  and  C_4
REMARK    4  A    between atoms: C_6  and  C_9
REMARK    5  A    between atoms: C_9  and  N_10
REMARK    6  A    between atoms: N_10  and  C_11
REMARK    7  A    between atoms: N_14  and  C_15
REMARK    8  A    between atoms: C_15  and  C_16
REMARK    9  A    between atoms: C_15  and  C_19
REMARK   10  A    between atoms: C_16  and  C_17
REMARK   11  A    between atoms: C_16  and  C_18
REMARK   12  A    between atoms: N_21  and  C_22
REMARK   13  A    between atoms: C_22  and  C_23
REMARK   14  A    between atoms: C_22  and  C_30
REMARK   15  A    between atoms: C_23  and  C_24
REMARK   16  A    between atoms: C_30  and  C_31
REMARK   17  A    between atoms: C_31  and  C_32
REMARK   18  A    between atoms: C_31  and  O_50
REMARK   19  A    between atoms: C_32  and  C_33
REMARK   20  A    between atoms: C_32  and  N_40
REMARK   21  A    between atoms: C_33  and  C_34
REMARK   22  A    between atoms: C_41  and  O_43
REMARK   23  A    between atoms: O_43  and  C_44
REMARK   24  A    between atoms: C_44  and  C_45
REMARK                            x       y       z     vdW  Elec       q    Type
REMARK                         _______ _______ _______ _____ _____    ______ ____
ROOT
ATOM      1  C   UNL     1       6.094  -4.602  27.379  0.00  0.00    +0.080 C 
ENDROOT
BRANCH   1   3
ATOM      2  C   UNL     1       4.544  -2.803  28.159  0.00  0.00    +0.234 C 
ATOM      3  N   UNL     1       5.260  -3.430  27.162  0.00  0.00    -0.311 N 
ATOM      4  H   UNL     1       5.021  -3.171  26.214  0.00  0.00    +0.149 HD
ATOM      5  O   UNL     1       4.615  -3.122  29.342  0.00  0.00    -0.274 OA
BRANCH   2   6
ATOM      6  C   UNL     1       3.570  -1.709  27.629  0.00  0.00    +0.163 C 
BRANCH   6   9
ATOM      7  N   UNL     1       4.886   1.124  25.577  0.00  0.00    -0.283 N 
ATOM      8  C   UNL     1       4.058   0.494  26.509  0.00  0.00    +0.303 C 
ATOM      9  N   UNL     1       4.253  -0.865  26.629  0.00  0.00    -0.288 N 
ATOM     10  H   UNL     1       4.975  -1.308  26.098  0.00  0.00    +0.151 HD
ATOM     11  O   UNL     1       3.235   1.093  27.194  0.00  0.00    -0.253 OA
ATOM     12  C   UNL     1       5.888   0.460  24.762  0.00  0.00    +0.134 C 
BRANCH   7  13
ATOM     13  C   UNL     1       4.644   2.547  25.285  0.00  0.00    +0.164 C 
BRANCH  13  17
ATOM     14  C   UNL     1       7.180   5.039  24.456  0.00  0.00    +0.081 A 
ATOM     15  S   UNL     1       8.012   4.662  25.917  0.00  0.00    -0.080 S 
ATOM     16  C   UNL     1       6.846   3.464  26.268  0.00  0.00    +0.071 A 
ATOM     17  C   UNL     1       5.894   3.395  25.268  0.00  0.00    +0.066 A 
ATOM     18  N   UNL     1       6.113   4.298  24.221  0.00  0.00    -0.247 NA
BRANCH  14  20
ATOM     19  C   UNL     1       9.241   6.140  23.542  0.00  0.00    +0.014 C 
ATOM     20  C   UNL     1       7.714   6.148  23.571  0.00  0.00    +0.038 C 
ATOM     21  C   UNL     1       7.149   6.070  22.152  0.00  0.00    +0.014 C 
ENDBRANCH  14  20
ENDBRANCH  13  17
ENDBRANCH   7  13
ENDBRANCH   6   9
BRANCH   6  22
ATOM     22  C   UNL     1       2.306  -2.390  27.032  0.00  0.00    +0.012 C 
ATOM     23  C   UNL     1       1.120  -1.429  26.862  0.00  0.00    +0.009 C 
ATOM     24  C   UNL     1       1.875  -3.607  27.859  0.00  0.00    +0.009 C 
ENDBRANCH   6  22
ENDBRANCH   2   6
ENDBRANCH   1   3
BRANCH   1  25
ATOM     25  C   UNL     1       7.514  -4.332  26.847  0.00  0.00    +0.055 C 
BRANCH  25  26
ATOM     26  C   UNL     1       7.945  -5.136  25.606  0.00  0.00    +0.137 C 
BRANCH  26  27
ATOM     27  O   UNL     1       8.913  -6.105  26.039  0.00  0.00    -0.390 OA
ATOM     28  H   UNL     1       9.223  -6.600  25.256  0.00  0.00    +0.210 HD
ENDBRANCH  26  27
BRANCH  26  29
ATOM     29  C   UNL     1       8.468  -4.354  24.367  0.00  0.00    +0.109 C 
BRANCH  29  30
ATOM     30  N   UNL     1       8.793  -2.972  24.753  0.00  0.00    -0.275 N 
ATOM     31  H   UNL     1       8.174  -2.493  25.395  0.00  0.00    +0.152 HD
ATOM     32  C   UNL     1       9.751  -2.222  24.132  0.00  0.00    +0.401 C 
ATOM     33  O   UNL     1      10.517  -2.653  23.282  0.00  0.00    -0.226 OA
BRANCH  32  34
ATOM     34  O   UNL     1       9.714  -0.947  24.580  0.00  0.00    -0.445 OA
BRANCH  34  35
ATOM     35  C   UNL     1      10.560  -0.015  23.880  0.00  0.00    +0.278 C 
BRANCH  35  36
ATOM     36  C   UNL     1       9.695   0.832  23.009  0.00  0.00    +0.046 A 
ATOM     37  S   UNL     1       9.126   0.280  21.486  0.00  0.00    -0.077 S 
ATOM     38  C   UNL     1       8.275   1.754  21.281  0.00  0.00    +0.156 A 
ATOM     39  N   UNL     1       8.370   2.618  22.268  0.00  0.00    -0.255 NA
ATOM     40  C   UNL     1       9.179   2.090  23.256  0.00  0.00    +0.125 A 
ENDBRANCH  35  36
ENDBRANCH  34  35
ENDBRANCH  32  34
ENDBRANCH  29  30
BRANCH  29  41
ATOM     41  C   UNL     1       7.566  -4.395  23.101  0.00  0.00    +0.060 C 
BRANCH  41  42
ATOM     42  C   UNL     1       6.067  -4.550  23.279  0.00  0.00    -0.046 A 
ATOM     43  C   UNL     1       5.445  -5.757  22.924  0.00  0.00    +0.004 A 
ATOM     44  C   UNL     1       4.070  -5.934  23.106  0.00  0.00    +0.000 A 
ATOM     45  C   UNL     1       3.297  -4.910  23.647  0.00  0.00    +0.000 A 
ATOM     46  C   UNL     1       3.891  -3.693  23.964  0.00  0.00    +0.000 A 
ATOM     47  C   UNL     1       5.261  -3.506  23.757  0.00  0.00    +0.004 A 
ENDBRANCH  41  42
ENDBRANCH  29  41
ENDBRANCH  26  29
ENDBRANCH  25  26
ENDBRANCH   1  25
BRANCH   1  48
ATOM     48  C   UNL     1       5.436  -5.809  26.660  0.00  0.00    +0.057 C 
BRANCH  48  49
ATOM     49  C   UNL     1       4.260  -6.398  27.395  0.00  0.00    -0.046 A 
ATOM     50  C   UNL     1       4.307  -6.583  28.788  0.00  0.00    +0.004 A 
ATOM     51  C   UNL     1       3.202  -7.102  29.462  0.00  0.00    +0.000 A 
ATOM     52  C   UNL     1       2.047  -7.443  28.764  0.00  0.00    +0.000 A 
ATOM     53  C   UNL     1       1.996  -7.274  27.378  0.00  0.00    +0.000 A 
ATOM     54  C   UNL     1       3.100  -6.766  26.700  0.00  0.00    +0.004 A 
ENDBRANCH  48  49
ENDBRANCH   1  48
TORSDOF 19
ENDMDL
MODEL 9
REMARK VINA RESULT:      -5.7      2.657      8.398
REMARK  Name = 
REMARK  24 active torsions:
REMARK  status: ('A' for Active; 'I' for Inactive)
REMARK    1  A    between atoms: C_1  and  C_2
REMARK    2  A    between atoms: C_2  and  C_3
REMARK    3  A    between atoms: C_2  and  C_4
REMARK    4  A    between atoms: C_6  and  C_9
REMARK    5  A    between atoms: C_9  and  N_10
REMARK    6  A    between atoms: N_10  and  C_11
REMARK    7  A    between atoms: N_14  and  C_15
REMARK    8  A    between atoms: C_15  and  C_16
REMARK    9  A    between atoms: C_15  and  C_19
REMARK   10  A    between atoms: C_16  and  C_17
REMARK   11  A    between atoms: C_16  and  C_18
REMARK   12  A    between atoms: N_21  and  C_22
REMARK   13  A    between atoms: C_22  and  C_23
REMARK   14  A    between atoms: C_22  and  C_30
REMARK   15  A    between atoms: C_23  and  C_24
REMARK   16  A    between atoms: C_30  and  C_31
REMARK   17  A    between atoms: C_31  and  C_32
REMARK   18  A    between atoms: C_31  and  O_50
REMARK   19  A    between atoms: C_32  and  C_33
REMARK   20  A    between atoms: C_32  and  N_40
REMARK   21  A    between atoms: C_33  and  C_34
REMARK   22  A    between atoms: C_41  and  O_43
REMARK   23  A    between atoms: O_43  and  C_44
REMARK   24  A    between atoms: C_44  and  C_45
REMARK                            x       y       z     vdW  Elec       q    Type
REMARK                         _______ _______ _______ _____ _____    ______ ____
ROOT
ATOM      1  C   UNL     1       6.406  -0.844  26.483  0.00  0.00    +0.080 C 
ENDROOT
BRANCH   1   3
ATOM      2  C   UNL     1       5.028   1.238  26.578  0.00  0.00    +0.234 C 
ATOM      3  N   UNL     1       6.028   0.430  27.073  0.00  0.00    -0.311 N 
ATOM      4  H   UNL     1       6.646   0.855  27.753  0.00  0.00    +0.149 HD
ATOM      5  O   UNL     1       4.300   0.915  25.644  0.00  0.00    -0.274 OA
BRANCH   2   6
ATOM      6  C   UNL     1       4.965   2.638  27.260  0.00  0.00    +0.163 C 
BRANCH   6   9
ATOM      7  N   UNL     1       6.901   5.194  25.342  0.00  0.00    -0.283 N 
ATOM      8  C   UNL     1       6.626   4.324  26.399  0.00  0.00    +0.303 C 
ATOM      9  N   UNL     1       5.410   3.682  26.317  0.00  0.00    -0.288 N 
ATOM     10  H   UNL     1       4.827   3.831  25.517  0.00  0.00    +0.151 HD
ATOM     11  O   UNL     1       7.408   4.116  27.322  0.00  0.00    -0.253 OA
ATOM     12  C   UNL     1       6.019   5.455  24.219  0.00  0.00    +0.134 C 
BRANCH   7  13
ATOM     13  C   UNL     1       8.114   6.027  25.426  0.00  0.00    +0.164 C 
BRANCH  13  17
ATOM     14  C   UNL     1      10.402   3.785  23.675  0.00  0.00    +0.081 A 
ATOM     15  S   UNL     1      11.479   5.105  23.416  0.00  0.00    -0.080 S 
ATOM     16  C   UNL     1      10.423   6.132  24.281  0.00  0.00    +0.071 A 
ATOM     17  C   UNL     1       9.318   5.435  24.734  0.00  0.00    +0.066 A 
ATOM     18  N   UNL     1       9.331   4.077  24.391  0.00  0.00    -0.247 NA
BRANCH  14  20
ATOM     19  C   UNL     1      10.848   1.370  24.188  0.00  0.00    +0.014 C 
ATOM     20  C   UNL     1      10.747   2.429  23.093  0.00  0.00    +0.038 C 
ATOM     21  C   UNL     1       9.748   1.997  22.018  0.00  0.00    +0.014 C 
ENDBRANCH  14  20
ENDBRANCH  13  17
ENDBRANCH   7  13
ENDBRANCH   6   9
BRANCH   6  22
ATOM     22  C   UNL     1       3.517   2.902  27.761  0.00  0.00    +0.012 C 
ATOM     23  C   UNL     1       3.311   4.324  28.305  0.00  0.00    +0.009 C 
ATOM     24  C   UNL     1       3.086   1.876  28.815  0.00  0.00    +0.009 C 
ENDBRANCH   6  22
ENDBRANCH   2   6
ENDBRANCH   1   3
BRANCH   1  25
ATOM     25  C   UNL     1       5.971  -1.993  27.411  0.00  0.00    +0.055 C 
BRANCH  25  26
ATOM     26  C   UNL     1       4.491  -2.413  27.334  0.00  0.00    +0.137 C 
BRANCH  26  27
ATOM     27  O   UNL     1       4.193  -3.154  28.529  0.00  0.00    -0.390 OA
ATOM     28  H   UNL     1       4.454  -2.613  29.298  0.00  0.00    +0.210 HD
ENDBRANCH  26  27
BRANCH  26  29
ATOM     29  C   UNL     1       4.009  -3.187  26.073  0.00  0.00    +0.109 C 
BRANCH  29  30
ATOM     30  N   UNL     1       4.248  -4.627  26.253  0.00  0.00    -0.275 N 
ATOM     31  H   UNL     1       5.105  -5.022  25.889  0.00  0.00    +0.152 HD
ATOM     32  C   UNL     1       3.291  -5.501  26.683  0.00  0.00    +0.401 C 
ATOM     33  O   UNL     1       2.182  -5.167  27.078  0.00  0.00    -0.226 OA
BRANCH  32  34
ATOM     34  O   UNL     1       3.739  -6.773  26.591  0.00  0.00    -0.445 OA
BRANCH  34  35
ATOM     35  C   UNL     1       4.281  -7.154  25.313  0.00  0.00    +0.278 C 
BRANCH  35  36
ATOM     36  C   UNL     1       3.153  -7.261  24.343  0.00  0.00    +0.046 A 
ATOM     37  S   UNL     1       1.928  -8.453  24.506  0.00  0.00    -0.077 S 
ATOM     38  C   UNL     1       1.143  -7.821  23.119  0.00  0.00    +0.156 A 
ATOM     39  N   UNL     1       1.716  -6.781  22.555  0.00  0.00    -0.255 NA
ATOM     40  C   UNL     1       2.863  -6.459  23.255  0.00  0.00    +0.125 A 
ENDBRANCH  35  36
ENDBRANCH  34  35
ENDBRANCH  32  34
ENDBRANCH  29  30
BRANCH  29  41
ATOM     41  C   UNL     1       4.560  -2.683  24.709  0.00  0.00    +0.060 C 
BRANCH  41  42
ATOM     42  C   UNL     1       5.509  -3.576  23.932  0.00  0.00    -0.046 A 
ATOM     43  C   UNL     1       6.569  -4.212  24.597  0.00  0.00    +0.004 A 
ATOM     44  C   UNL     1       7.439  -5.062  23.909  0.00  0.00    +0.000 A 
ATOM     45  C   UNL     1       7.263  -5.292  22.547  0.00  0.00    +0.000 A 
ATOM     46  C   UNL     1       6.244  -4.635  21.864  0.00  0.00    +0.000 A 
ATOM     47  C   UNL     1       5.390  -3.764  22.547  0.00  0.00    +0.004 A 
ENDBRANCH  41  42
ENDBRANCH  29  41
ENDBRANCH  26  29
ENDBRANCH  25  26
ENDBRANCH   1  25
BRANCH   1  48
ATOM     48  C   UNL     1       7.941  -0.842  26.260  0.00  0.00    +0.057 C 
BRANCH  48  49
ATOM     49  C   UNL     1       8.360  -1.171  24.850  0.00  0.00    -0.046 A 
ATOM     50  C   UNL     1       9.502  -1.954  24.607  0.00  0.00    +0.004 A 
ATOM     51  C   UNL     1       9.864  -2.276  23.300  0.00  0.00    +0.000 A 
ATOM     52  C   UNL     1       9.101  -1.825  22.227  0.00  0.00    +0.000 A 
ATOM     53  C   UNL     1       7.971  -1.037  22.457  0.00  0.00    +0.000 A 
ATOM     54  C   UNL     1       7.612  -0.704  23.760  0.00  0.00    +0.004 A 
ENDBRANCH  48  49
ENDBRANCH   1  48
TORSDOF 19
ENDMDL
