MODEL 1
REMARK VINA RESULT:      -5.7      0.000      0.000
REMARK  Name = 
REMARK  6 active torsions:
REMARK  status: ('A' for Active; 'I' for Inactive)
REMARK    1  A    between atoms: C_3  and  C_19
REMARK    2  A    between atoms: N_5  and  C1*_6
REMARK    3  A    between atoms: C2*_8  and  O2*_18
REMARK    4  A    between atoms: C3*_10  and  O3*_17
REMARK    5  A    between atoms: C4*_12  and  C5*_15
REMARK    6  A    between atoms: C5*_15  and  O5*_16
REMARK                            x       y       z     vdW  Elec       q    Type
REMARK                         _______ _______ _______ _____ _____    ______ ____
ROOT
ATOM      1  C1* UNL     1      10.486  -0.149  23.510  0.00  0.00    +0.270 C 
ATOM      2  O4* UNL     1      10.286   0.752  22.396  0.00  0.00    -0.344 OA
ATOM      3  C4* UNL     1       9.570   1.917  22.871  0.00  0.00    +0.177 C 
ATOM      4  C3* UNL     1       9.208   1.685  24.340  0.00  0.00    +0.178 C 
ATOM      5  C2* UNL     1      10.269   0.695  24.777  0.00  0.00    +0.196 C 
ENDROOT
BRANCH   1   7
ATOM      6  C   UNL     1       8.734  -1.522  22.320  0.00  0.00    +0.223 A 
ATOM      7  N   UNL     1       9.613  -1.297  23.334  0.00  0.00    -0.220 N 
ATOM      8  N   UNL     1       9.687  -2.365  24.157  0.00  0.00    -0.142 NA
ATOM      9  C   UNL     1       8.771  -3.196  23.622  0.00  0.00    +0.236 A 
ATOM     10  N   UNL     1       8.170  -2.697  22.475  0.00  0.00    -0.211 NA
BRANCH   9  11
ATOM     11  C   UNL     1       8.416  -4.509  24.192  0.00  0.00    +0.281 C 
ATOM     12  N   UNL     1       7.070  -4.692  24.381  0.00  0.00    -0.323 N 
ATOM     13  H   UNL     1       6.747  -5.547  24.807  0.00  0.00    +0.145 HD
ATOM     14  H   UNL     1       6.425  -3.942  24.163  0.00  0.00    +0.145 HD
ATOM     15  O   UNL     1       9.221  -5.383  24.502  0.00  0.00    -0.267 OA
ENDBRANCH   9  11
ENDBRANCH   1   7
BRANCH   4  16
ATOM     16  O3* UNL     1       7.905   1.120  24.499  0.00  0.00    -0.386 OA
ATOM     17  H3* UNL     1       8.007   0.163  24.314  0.00  0.00    +0.210 HD
ENDBRANCH   4  16
BRANCH   5  18
ATOM     18  O2* UNL     1       9.915   0.034  25.986  0.00  0.00    -0.385 OA
ATOM     19  H2* UNL     1       9.508   0.700  26.590  0.00  0.00    +0.210 HD
ENDBRANCH   5  18
BRANCH   3  20
ATOM     20  C5* UNL     1       8.371   2.197  21.965  0.00  0.00    +0.190 C 
BRANCH  20  21
ATOM     21  O5* UNL     1       8.490   1.504  20.729  0.00  0.00    -0.392 OA
ATOM     22  H5* UNL     1       7.592   1.185  20.513  0.00  0.00    +0.210 HD
ENDBRANCH  20  21
ENDBRANCH   3  20
TORSDOF 6
ENDMDL
MODEL 2
REMARK VINA RESULT:      -5.7      1.780      2.724
REMARK  Name = 
REMARK  6 active torsions:
REMARK  status: ('A' for Active; 'I' for Inactive)
REMARK    1  A    between atoms: C_3  and  C_19
REMARK    2  A    between atoms: N_5  and  C1*_6
REMARK    3  A    between atoms: C2*_8  and  O2*_18
REMARK    4  A    between atoms: C3*_10  and  O3*_17
REMARK    5  A    between atoms: C4*_12  and  C5*_15
REMARK    6  A    between atoms: C5*_15  and  O5*_16
REMARK                            x       y       z     vdW  Elec       q    Type
REMARK                         _______ _______ _______ _____ _____    ______ ____
ROOT
ATOM      1  C1* UNL     1       8.089  -0.877  22.653  0.00  0.00    +0.270 C 
ATOM      2  O4* UNL     1       7.618   0.409  23.118  0.00  0.00    -0.344 OA
ATOM      3  C4* UNL     1       8.662   1.388  22.900  0.00  0.00    +0.177 C 
ATOM      4  C3* UNL     1       9.895   0.653  22.367  0.00  0.00    +0.178 C 
ATOM      5  C2* UNL     1       9.282  -0.578  21.731  0.00  0.00    +0.196 C 
ENDROOT
BRANCH   1   7
ATOM      6  C   UNL     1       8.127  -1.417  25.118  0.00  0.00    +0.223 A 
ATOM      7  N   UNL     1       8.354  -1.715  23.810  0.00  0.00    -0.220 N 
ATOM      8  N   UNL     1       8.767  -2.992  23.669  0.00  0.00    -0.142 NA
ATOM      9  C   UNL     1       8.837  -3.408  24.949  0.00  0.00    +0.236 A 
ATOM     10  N   UNL     1       8.437  -2.449  25.868  0.00  0.00    -0.211 NA
BRANCH   9  11
ATOM     11  C   UNL     1       9.302  -4.747  25.357  0.00  0.00    +0.281 C 
ATOM     12  N   UNL     1       9.532  -4.873  26.703  0.00  0.00    -0.323 N 
ATOM     13  H   UNL     1       9.894  -5.745  27.058  0.00  0.00    +0.145 HD
ATOM     14  H   UNL     1       9.411  -4.073  27.311  0.00  0.00    +0.145 HD
ATOM     15  O   UNL     1       9.498  -5.688  24.593  0.00  0.00    -0.267 OA
ENDBRANCH   9  11
ENDBRANCH   1   7
BRANCH   4  16
ATOM     16  O3* UNL     1      10.800   0.278  23.407  0.00  0.00    -0.386 OA
ATOM     17  H3* UNL     1      10.913   1.079  23.962  0.00  0.00    +0.210 HD
ENDBRANCH   4  16
BRANCH   5  18
ATOM     18  O2* UNL     1      10.248  -1.599  21.509  0.00  0.00    -0.385 OA
ATOM     19  H2* UNL     1       9.892  -2.442  21.879  0.00  0.00    +0.210 HD
ENDBRANCH   5  18
BRANCH   3  20
ATOM     20  C5* UNL     1       8.909   2.181  24.183  0.00  0.00    +0.190 C 
BRANCH  20  21
ATOM     21  O5* UNL     1       9.988   3.092  24.023  0.00  0.00    -0.392 OA
ATOM     22  H5* UNL     1       9.711   3.917  24.465  0.00  0.00    +0.210 HD
ENDBRANCH  20  21
ENDBRANCH   3  20
TORSDOF 6
ENDMDL
MODEL 3
REMARK VINA RESULT:      -5.6      2.095      5.511
REMARK  Name = 
REMARK  6 active torsions:
REMARK  status: ('A' for Active; 'I' for Inactive)
REMARK    1  A    between atoms: C_3  and  C_19
REMARK    2  A    between atoms: N_5  and  C1*_6
REMARK    3  A    between atoms: C2*_8  and  O2*_18
REMARK    4  A    between atoms: C3*_10  and  O3*_17
REMARK    5  A    between atoms: C4*_12  and  C5*_15
REMARK    6  A    between atoms: C5*_15  and  O5*_16
REMARK                            x       y       z     vdW  Elec       q    Type
REMARK                         _______ _______ _______ _____ _____    ______ ____
ROOT
ATOM      1  C1* UNL     1       7.802  -3.318  22.796  0.00  0.00    +0.270 C 
ATOM      2  O4* UNL     1       8.504  -4.435  23.390  0.00  0.00    -0.344 OA
ATOM      3  C4* UNL     1       7.953  -4.676  24.706  0.00  0.00    +0.177 C 
ATOM      4  C3* UNL     1       6.921  -3.582  24.996  0.00  0.00    +0.178 C 
ATOM      5  C2* UNL     1       6.502  -3.162  23.601  0.00  0.00    +0.196 C 
ENDROOT
BRANCH   1   7
ATOM      6  C   UNL     1       9.982  -2.116  23.221  0.00  0.00    +0.223 A 
ATOM      7  N   UNL     1       8.697  -2.172  22.776  0.00  0.00    -0.220 N 
ATOM      8  N   UNL     1       8.344  -1.020  22.167  0.00  0.00    -0.142 NA
ATOM      9  C   UNL     1       9.449  -0.266  22.331  0.00  0.00    +0.236 A 
ATOM     10  N   UNL     1      10.483  -0.928  22.977  0.00  0.00    -0.211 NA
BRANCH   9  11
ATOM     11  C   UNL     1       9.565   1.135  21.885  0.00  0.00    +0.281 C 
ATOM     12  N   UNL     1       8.615   1.512  20.972  0.00  0.00    -0.323 N 
ATOM     13  H   UNL     1       8.651   2.442  20.583  0.00  0.00    +0.145 HD
ATOM     14  H   UNL     1       7.938   0.835  20.641  0.00  0.00    +0.145 HD
ATOM     15  O   UNL     1      10.430   1.923  22.256  0.00  0.00    -0.267 OA
ENDBRANCH   9  11
ENDBRANCH   1   7
BRANCH   4  16
ATOM     16  O3* UNL     1       7.484  -2.473  25.701  0.00  0.00    -0.386 OA
ATOM     17  H3* UNL     1       7.493  -2.737  26.645  0.00  0.00    +0.210 HD
ENDBRANCH   4  16
BRANCH   5  18
ATOM     18  O2* UNL     1       5.843  -1.901  23.600  0.00  0.00    -0.385 OA
ATOM     19  H2* UNL     1       5.587  -1.690  24.529  0.00  0.00    +0.210 HD
ENDBRANCH   5  18
BRANCH   3  20
ATOM     20  C5* UNL     1       9.080  -4.765  25.735  0.00  0.00    +0.190 C 
BRANCH  20  21
ATOM     21  O5* UNL     1      10.285  -5.226  25.137  0.00  0.00    -0.392 OA
ATOM     22  H5* UNL     1      11.010  -4.802  25.635  0.00  0.00    +0.210 HD
ENDBRANCH  20  21
ENDBRANCH   3  20
TORSDOF 6
ENDMDL
MODEL 4
REMARK VINA RESULT:      -5.6      1.747      2.075
REMARK  Name = 
REMARK  6 active torsions:
REMARK  status: ('A' for Active; 'I' for Inactive)
REMARK    1  A    between atoms: C_3  and  C_19
REMARK    2  A    between atoms: N_5  and  C1*_6
REMARK    3  A    between atoms: C2*_8  and  O2*_18
REMARK    4  A    between atoms: C3*_10  and  O3*_17
REMARK    5  A    between atoms: C4*_12  and  C5*_15
REMARK    6  A    between atoms: C5*_15  and  O5*_16
REMARK                            x       y       z     vdW  Elec       q    Type
REMARK                         _______ _______ _______ _____ _____    ______ ____
ROOT
ATOM      1  C1* UNL     1       9.084  -0.046  25.352  0.00  0.00    +0.270 C 
ATOM      2  O4* UNL     1      10.052   0.747  24.628  0.00  0.00    -0.344 OA
ATOM      3  C4* UNL     1       9.349   1.546  23.647  0.00  0.00    +0.177 C 
ATOM      4  C3* UNL     1       7.870   1.152  23.686  0.00  0.00    +0.178 C 
ATOM      5  C2* UNL     1       7.721   0.616  25.096  0.00  0.00    +0.196 C 
ENDROOT
BRANCH   1   7
ATOM      6  C   UNL     1      10.000  -1.921  23.931  0.00  0.00    +0.223 A 
ATOM      7  N   UNL     1       9.223  -1.432  24.936  0.00  0.00    -0.220 N 
ATOM      8  N   UNL     1       8.644  -2.433  25.631  0.00  0.00    -0.142 NA
ATOM      9  C   UNL     1       9.058  -3.523  24.955  0.00  0.00    +0.236 A 
ATOM     10  N   UNL     1       9.909  -3.230  23.898  0.00  0.00    -0.211 NA
BRANCH   9  11
ATOM     11  C   UNL     1       8.651  -4.902  25.282  0.00  0.00    +0.281 C 
ATOM     12  N   UNL     1       9.699  -5.769  25.457  0.00  0.00    -0.323 N 
ATOM     13  H   UNL     1       9.505  -6.741  25.640  0.00  0.00    +0.145 HD
ATOM     14  H   UNL     1      10.649  -5.442  25.325  0.00  0.00    +0.145 HD
ATOM     15  O   UNL     1       7.490  -5.289  25.380  0.00  0.00    -0.267 OA
ENDBRANCH   9  11
ENDBRANCH   1   7
BRANCH   4  16
ATOM     16  O3* UNL     1       7.550   0.137  22.732  0.00  0.00    -0.386 OA
ATOM     17  H3* UNL     1       8.059   0.362  21.925  0.00  0.00    +0.210 HD
ENDBRANCH   4  16
BRANCH   5  18
ATOM     18  O2* UNL     1       6.541  -0.165  25.247  0.00  0.00    -0.385 OA
ATOM     19  H2* UNL     1       5.774   0.380  24.950  0.00  0.00    +0.210 HD
ENDBRANCH   5  18
BRANCH   3  20
ATOM     20  C5* UNL     1      10.006   1.386  22.276  0.00  0.00    +0.190 C 
BRANCH  20  21
ATOM     21  O5* UNL     1       9.270   2.072  21.271  0.00  0.00    -0.392 OA
ATOM     22  H5* UNL     1       8.562   2.554  21.740  0.00  0.00    +0.210 HD
ENDBRANCH  20  21
ENDBRANCH   3  20
TORSDOF 6
ENDMDL
MODEL 5
REMARK VINA RESULT:      -5.5      2.571      5.137
REMARK  Name = 
REMARK  6 active torsions:
REMARK  status: ('A' for Active; 'I' for Inactive)
REMARK    1  A    between atoms: C_3  and  C_19
REMARK    2  A    between atoms: N_5  and  C1*_6
REMARK    3  A    between atoms: C2*_8  and  O2*_18
REMARK    4  A    between atoms: C3*_10  and  O3*_17
REMARK    5  A    between atoms: C4*_12  and  C5*_15
REMARK    6  A    between atoms: C5*_15  and  O5*_16
REMARK                            x       y       z     vdW  Elec       q    Type
REMARK                         _______ _______ _______ _____ _____    ______ ____
ROOT
ATOM      1  C1* UNL     1       9.060  -1.895  24.984  0.00  0.00    +0.270 C 
ATOM      2  O4* UNL     1       7.679  -2.244  25.237  0.00  0.00    -0.344 OA
ATOM      3  C4* UNL     1       7.182  -3.002  24.109  0.00  0.00    +0.177 C 
ATOM      4  C3* UNL     1       8.281  -3.038  23.042  0.00  0.00    +0.178 C 
ATOM      5  C2* UNL     1       9.535  -2.842  23.870  0.00  0.00    +0.196 C 
ENDROOT
BRANCH   1   7
ATOM      6  C   UNL     1       8.497   0.536  25.364  0.00  0.00    +0.223 A 
ATOM      7  N   UNL     1       9.129  -0.471  24.702  0.00  0.00    -0.220 N 
ATOM      8  N   UNL     1       9.976   0.017  23.771  0.00  0.00    -0.142 NA
ATOM      9  C   UNL     1       9.765   1.345  23.868  0.00  0.00    +0.236 A 
ATOM     10  N   UNL     1       8.855   1.692  24.856  0.00  0.00    -0.211 NA
BRANCH   9  11
ATOM     11  C   UNL     1      10.419   2.349  23.008  0.00  0.00    +0.281 C 
ATOM     12  N   UNL     1      10.125   2.221  21.675  0.00  0.00    -0.323 N 
ATOM     13  H   UNL     1      10.567   2.842  21.015  0.00  0.00    +0.145 HD
ATOM     14  H   UNL     1       9.533   1.462  21.361  0.00  0.00    +0.145 HD
ATOM     15  O   UNL     1      11.180   3.227  23.405  0.00  0.00    -0.267 OA
ENDBRANCH   9  11
ENDBRANCH   1   7
BRANCH   4  16
ATOM     16  O3* UNL     1       8.147  -1.986  22.084  0.00  0.00    -0.386 OA
ATOM     17  H3* UNL     1       7.186  -1.913  21.903  0.00  0.00    +0.210 HD
ENDBRANCH   4  16
BRANCH   5  18
ATOM     18  O2* UNL     1      10.646  -2.454  23.070  0.00  0.00    -0.385 OA
ATOM     19  H2* UNL     1      10.546  -2.876  22.184  0.00  0.00    +0.210 HD
ENDBRANCH   5  18
BRANCH   3  20
ATOM     20  C5* UNL     1       5.858  -2.411  23.626  0.00  0.00    +0.190 C 
BRANCH  20  21
ATOM     21  O5* UNL     1       5.918  -0.991  23.574  0.00  0.00    -0.392 OA
ATOM     22  H5* UNL     1       5.329  -0.725  22.843  0.00  0.00    +0.210 HD
ENDBRANCH  20  21
ENDBRANCH   3  20
TORSDOF 6
ENDMDL
MODEL 6
REMARK VINA RESULT:      -5.4      1.917      3.137
REMARK  Name = 
REMARK  6 active torsions:
REMARK  status: ('A' for Active; 'I' for Inactive)
REMARK    1  A    between atoms: C_3  and  C_19
REMARK    2  A    between atoms: N_5  and  C1*_6
REMARK    3  A    between atoms: C2*_8  and  O2*_18
REMARK    4  A    between atoms: C3*_10  and  O3*_17
REMARK    5  A    between atoms: C4*_12  and  C5*_15
REMARK    6  A    between atoms: C5*_15  and  O5*_16
REMARK                            x       y       z     vdW  Elec       q    Type
REMARK                         _______ _______ _______ _____ _____    ______ ____
ROOT
ATOM      1  C1* UNL     1       7.855  -1.474  22.546  0.00  0.00    +0.270 C 
ATOM      2  O4* UNL     1       7.271  -0.550  23.492  0.00  0.00    -0.344 OA
ATOM      3  C4* UNL     1       8.276   0.423  23.865  0.00  0.00    +0.177 C 
ATOM      4  C3* UNL     1       9.594   0.022  23.196  0.00  0.00    +0.178 C 
ATOM      5  C2* UNL     1       9.114  -0.780  22.003  0.00  0.00    +0.196 C 
ENDROOT
BRANCH   1   7
ATOM      6  C   UNL     1       7.797  -3.993  22.717  0.00  0.00    +0.223 A 
ATOM      7  N   UNL     1       8.051  -2.751  23.213  0.00  0.00    -0.220 N 
ATOM      8  N   UNL     1       8.652  -2.825  24.419  0.00  0.00    -0.142 NA
ATOM      9  C   UNL     1       8.680  -4.154  24.639  0.00  0.00    +0.236 A 
ATOM     10  N   UNL     1       8.160  -4.901  23.591  0.00  0.00    -0.211 NA
BRANCH   9  11
ATOM     11  C   UNL     1       9.197  -4.777  25.871  0.00  0.00    +0.281 C 
ATOM     12  N   UNL     1      10.308  -5.557  25.681  0.00  0.00    -0.323 N 
ATOM     13  H   UNL     1      10.699  -6.053  26.467  0.00  0.00    +0.145 HD
ATOM     14  H   UNL     1      10.677  -5.687  24.746  0.00  0.00    +0.145 HD
ATOM     15  O   UNL     1       8.699  -4.651  26.987  0.00  0.00    -0.267 OA
ENDBRANCH   9  11
ENDBRANCH   1   7
BRANCH   4  16
ATOM     16  O3* UNL     1      10.412  -0.788  24.043  0.00  0.00    -0.386 OA
ATOM     17  H3* UNL     1       9.946  -1.647  24.119  0.00  0.00    +0.210 HD
ENDBRANCH   4  16
BRANCH   5  18
ATOM     18  O2* UNL     1      10.152  -1.581  21.448  0.00  0.00    -0.385 OA
ATOM     19  H2* UNL     1      10.916  -1.565  22.071  0.00  0.00    +0.210 HD
ENDBRANCH   5  18
BRANCH   3  20
ATOM     20  C5* UNL     1       8.353   0.537  25.386  0.00  0.00    +0.190 C 
BRANCH  20  21
ATOM     21  O5* UNL     1       7.889  -0.652  26.014  0.00  0.00    -0.392 OA
ATOM     22  H5* UNL     1       8.612  -0.944  26.602  0.00  0.00    +0.210 HD
ENDBRANCH  20  21
ENDBRANCH   3  20
TORSDOF 6
ENDMDL
MODEL 7
REMARK VINA RESULT:      -5.3      2.783      3.884
REMARK  Name = 
REMARK  6 active torsions:
REMARK  status: ('A' for Active; 'I' for Inactive)
REMARK    1  A    between atoms: C_3  and  C_19
REMARK    2  A    between atoms: N_5  and  C1*_6
REMARK    3  A    between atoms: C2*_8  and  O2*_18
REMARK    4  A    between atoms: C3*_10  and  O3*_17
REMARK    5  A    between atoms: C4*_12  and  C5*_15
REMARK    6  A    between atoms: C5*_15  and  O5*_16
REMARK                            x       y       z     vdW  Elec       q    Type
REMARK                         _______ _______ _______ _____ _____    ______ ____
ROOT
ATOM      1  C1* UNL     1       8.768  -3.940  24.592  0.00  0.00    +0.270 C 
ATOM      2  O4* UNL     1       9.754  -3.297  23.752  0.00  0.00    -0.344 OA
ATOM      3  C4* UNL     1       9.832  -1.900  24.123  0.00  0.00    +0.177 C 
ATOM      4  C3* UNL     1       8.759  -1.630  25.182  0.00  0.00    +0.178 C 
ATOM      5  C2* UNL     1       8.563  -3.003  25.793  0.00  0.00    +0.196 C 
ENDROOT
BRANCH   1   7
ATOM      6  C   UNL     1       7.413  -3.963  22.462  0.00  0.00    +0.223 A 
ATOM      7  N   UNL     1       7.595  -4.230  23.784  0.00  0.00    -0.220 N 
ATOM      8  N   UNL     1       6.560  -4.940  24.282  0.00  0.00    -0.142 NA
ATOM      9  C   UNL     1       5.737  -5.021  23.217  0.00  0.00    +0.236 A 
ATOM     10  N   UNL     1       6.249  -4.428  22.072  0.00  0.00    -0.211 NA
BRANCH   9  11
ATOM     11  C   UNL     1       4.411  -5.665  23.247  0.00  0.00    +0.281 C 
ATOM     12  N   UNL     1       4.416  -6.934  23.767  0.00  0.00    -0.323 N 
ATOM     13  H   UNL     1       3.556  -7.460  23.782  0.00  0.00    +0.145 HD
ATOM     14  H   UNL     1       5.290  -7.356  24.055  0.00  0.00    +0.145 HD
ATOM     15  O   UNL     1       3.371  -5.155  22.838  0.00  0.00    -0.267 OA
ENDBRANCH   9  11
ENDBRANCH   1   7
BRANCH   4  16
ATOM     16  O3* UNL     1       7.536  -1.159  24.612  0.00  0.00    -0.386 OA
ATOM     17  H3* UNL     1       7.712  -0.235  24.334  0.00  0.00    +0.210 HD
ENDBRANCH   4  16
BRANCH   5  18
ATOM     18  O2* UNL     1       7.348  -3.088  26.529  0.00  0.00    -0.385 OA
ATOM     19  H2* UNL     1       6.665  -3.494  25.944  0.00  0.00    +0.210 HD
ENDBRANCH   5  18
BRANCH   3  20
ATOM     20  C5* UNL     1       9.720  -1.023  22.877  0.00  0.00    +0.190 C 
BRANCH  20  21
ATOM     21  O5* UNL     1      10.311  -1.656  21.749  0.00  0.00    -0.392 OA
ATOM     22  H5* UNL     1      10.934  -1.005  21.372  0.00  0.00    +0.210 HD
ENDBRANCH  20  21
ENDBRANCH   3  20
TORSDOF 6
ENDMDL
MODEL 8
REMARK VINA RESULT:      -5.2      2.416      3.631
REMARK  Name = 
REMARK  6 active torsions:
REMARK  status: ('A' for Active; 'I' for Inactive)
REMARK    1  A    between atoms: C_3  and  C_19
REMARK    2  A    between atoms: N_5  and  C1*_6
REMARK    3  A    between atoms: C2*_8  and  O2*_18
REMARK    4  A    between atoms: C3*_10  and  O3*_17
REMARK    5  A    between atoms: C4*_12  and  C5*_15
REMARK    6  A    between atoms: C5*_15  and  O5*_16
REMARK                            x       y       z     vdW  Elec       q    Type
REMARK                         _______ _______ _______ _____ _____    ______ ____
ROOT
ATOM      1  C1* UNL     1       7.801  -0.821  22.837  0.00  0.00    +0.270 C 
ATOM      2  O4* UNL     1       7.749  -0.209  24.147  0.00  0.00    -0.344 OA
ATOM      3  C4* UNL     1       9.064  -0.291  24.745  0.00  0.00    +0.177 C 
ATOM      4  C3* UNL     1       9.965  -1.093  23.801  0.00  0.00    +0.178 C 
ATOM      5  C2* UNL     1       9.290  -0.882  22.461  0.00  0.00    +0.196 C 
ENDROOT
BRANCH   1   7
ATOM      6  C   UNL     1       5.856  -2.324  23.414  0.00  0.00    +0.223 A 
ATOM      7  N   UNL     1       7.092  -2.089  22.895  0.00  0.00    -0.220 N 
ATOM      8  N   UNL     1       7.582  -3.192  22.292  0.00  0.00    -0.142 NA
ATOM      9  C   UNL     1       6.615  -4.099  22.537  0.00  0.00    +0.236 A 
ATOM     10  N   UNL     1       5.529  -3.581  23.227  0.00  0.00    -0.211 NA
BRANCH   9  11
ATOM     11  C   UNL     1       6.690  -5.515  22.130  0.00  0.00    +0.281 C 
ATOM     12  N   UNL     1       5.476  -6.072  21.818  0.00  0.00    -0.323 N 
ATOM     13  H   UNL     1       5.435  -7.049  21.572  0.00  0.00    +0.145 HD
ATOM     14  H   UNL     1       4.631  -5.522  21.913  0.00  0.00    +0.145 HD
ATOM     15  O   UNL     1       7.721  -6.180  22.078  0.00  0.00    -0.267 OA
ENDBRANCH   9  11
ENDBRANCH   1   7
BRANCH   4  16
ATOM     16  O3* UNL     1       9.996  -2.484  24.128  0.00  0.00    -0.386 OA
ATOM     17  H3* UNL     1       9.591  -2.945  23.364  0.00  0.00    +0.210 HD
ENDBRANCH   4  16
BRANCH   5  18
ATOM     18  O2* UNL     1       9.714  -1.837  21.495  0.00  0.00    -0.385 OA
ATOM     19  H2* UNL     1       9.622  -2.735  21.894  0.00  0.00    +0.210 HD
ENDBRANCH   5  18
BRANCH   3  20
ATOM     20  C5* UNL     1       8.961  -0.867  26.156  0.00  0.00    +0.190 C 
BRANCH  20  21
ATOM     21  O5* UNL     1       8.082  -1.984  26.191  0.00  0.00    -0.392 OA
ATOM     22  H5* UNL     1       8.652  -2.770  26.299  0.00  0.00    +0.210 HD
ENDBRANCH  20  21
ENDBRANCH   3  20
TORSDOF 6
ENDMDL
MODEL 9
REMARK VINA RESULT:      -5.2      3.082      5.794
REMARK  Name = 
REMARK  6 active torsions:
REMARK  status: ('A' for Active; 'I' for Inactive)
REMARK    1  A    between atoms: C_3  and  C_19
REMARK    2  A    between atoms: N_5  and  C1*_6
REMARK    3  A    between atoms: C2*_8  and  O2*_18
REMARK    4  A    between atoms: C3*_10  and  O3*_17
REMARK    5  A    between atoms: C4*_12  and  C5*_15
REMARK    6  A    between atoms: C5*_15  and  O5*_16
REMARK                            x       y       z     vdW  Elec       q    Type
REMARK                         _______ _______ _______ _____ _____    ______ ____
ROOT
ATOM      1  C1* UNL     1       5.174  -3.238  23.366  0.00  0.00    +0.270 C 
ATOM      2  O4* UNL     1       5.062  -3.993  22.137  0.00  0.00    -0.344 OA
ATOM      3  C4* UNL     1       5.472  -5.357  22.397  0.00  0.00    +0.177 C 
ATOM      4  C3* UNL     1       5.971  -5.434  23.844  0.00  0.00    +0.178 C 
ATOM      5  C2* UNL     1       5.237  -4.279  24.495  0.00  0.00    +0.196 C 
ENDROOT
BRANCH   1   7
ATOM      6  C   UNL     1       6.492  -1.149  23.888  0.00  0.00    +0.223 A 
ATOM      7  N   UNL     1       6.307  -2.335  23.248  0.00  0.00    -0.220 N 
ATOM      8  N   UNL     1       7.401  -2.675  22.533  0.00  0.00    -0.142 NA
ATOM      9  C   UNL     1       8.205  -1.612  22.727  0.00  0.00    +0.236 A 
ATOM     10  N   UNL     1       7.665  -0.653  23.572  0.00  0.00    -0.211 NA
BRANCH   9  11
ATOM     11  C   UNL     1       9.532  -1.456  22.103  0.00  0.00    +0.281 C 
ATOM     12  N   UNL     1       9.533  -0.669  20.979  0.00  0.00    -0.323 N 
ATOM     13  H   UNL     1      10.393  -0.548  20.467  0.00  0.00    +0.145 HD
ATOM     14  H   UNL     1       8.662  -0.284  20.634  0.00  0.00    +0.145 HD
ATOM     15  O   UNL     1      10.567  -1.980  22.506  0.00  0.00    -0.267 OA
ENDBRANCH   9  11
ENDBRANCH   1   7
BRANCH   4  16
ATOM     16  O3* UNL     1       7.384  -5.246  23.945  0.00  0.00    -0.386 OA
ATOM     17  H3* UNL     1       7.784  -5.937  23.375  0.00  0.00    +0.210 HD
ENDBRANCH   4  16
BRANCH   5  18
ATOM     18  O2* UNL     1       5.825  -3.907  25.736  0.00  0.00    -0.385 OA
ATOM     19  H2* UNL     1       5.124  -3.497  26.296  0.00  0.00    +0.210 HD
ENDBRANCH   5  18
BRANCH   3  20
ATOM     20  C5* UNL     1       6.498  -5.800  21.355  0.00  0.00    +0.190 C 
BRANCH  20  21
ATOM     21  O5* UNL     1       6.001  -5.616  20.036  0.00  0.00    -0.392 OA
ATOM     22  H5* UNL     1       5.506  -6.429  19.819  0.00  0.00    +0.210 HD
ENDBRANCH  20  21
ENDBRANCH   3  20
TORSDOF 6
ENDMDL
