MODEL 1
REMARK VINA RESULT:      -7.3      0.000      0.000
REMARK  Name = 
REMARK  21 active torsions:
REMARK  status: ('A' for Active; 'I' for Inactive)
REMARK    1  A    between atoms: C_1  and  C_2
REMARK    2  A    between atoms: C_2  and  C_3
REMARK    3  A    between atoms: C_2  and  C_4
REMARK    4  A    between atoms: C_9  and  C_12
REMARK    5  A    between atoms: C_18  and  O_21
REMARK    6  A    between atoms: O_21  and  C_22
REMARK    7  A    between atoms: C_23  and  O_25
REMARK    8  A    between atoms: O_25  and  C_26
REMARK    9  A    between atoms: C_29  and  C_49
REMARK   10  A    between atoms: C_33  and  C_35
REMARK   11  A    between atoms: C_35  and  C_36
REMARK   12  A    between atoms: C_35  and  N_40
REMARK   13  A    between atoms: C_36  and  C_37
REMARK   14  A    between atoms: C_36  and  C_38
REMARK   15  A    between atoms: C_36  and  C_39
REMARK   16  A    between atoms: C_41  and  O_43
REMARK   17  A    between atoms: O_43  and  C_44
REMARK   18  A    between atoms: N_51  and  C_52
REMARK   19  A    between atoms: C_52  and  C_57
REMARK   20  A    between atoms: C_54  and  C_55
REMARK   21  A    between atoms: C_57  and  O_59
REMARK                            x       y       z     vdW  Elec       q    Type
REMARK                         _______ _______ _______ _____ _____    ______ ____
ROOT
ATOM      1  C   UNL     1       7.842  -5.120  26.796  0.00  0.00    +0.193 C 
ATOM      2  C   UNL     1       7.148  -5.371  25.430  0.00  0.00    +0.153 C 
ATOM      3  N   UNL     1       7.238  -4.123  24.675  0.00  0.00    -0.285 N 
ATOM      4  C   UNL     1       6.422  -3.712  23.633  0.00  0.00    +0.237 C 
ATOM      5  O   UNL     1       6.518  -2.530  23.276  0.00  0.00    -0.274 OA
ATOM      6  C   UNL     1       8.046  -3.132  25.401  0.00  0.00    +0.166 C 
ATOM      7  C   UNL     1       8.755  -3.931  26.504  0.00  0.00    +0.078 C 
ENDROOT
BRANCH   6   8
ATOM      8  C   UNL     1       9.109  -2.417  24.522  0.00  0.00    +0.235 C 
ATOM      9  N   UNL     1       8.842  -1.087  24.252  0.00  0.00    -0.298 N 
ATOM     10  H   UNL     1       7.846  -0.868  24.152  0.00  0.00    +0.150 HD
ATOM     11  O   UNL     1      10.089  -2.975  24.025  0.00  0.00    -0.274 OA
BRANCH   9  12
ATOM     12  C   UNL     1       9.757  -0.283  23.446  0.00  0.00    +0.138 C 
ATOM     13  C   UNL     1       9.928   1.210  23.740  0.00  0.00    +0.048 C 
ATOM     14  C   UNL     1      11.012   0.251  24.129  0.00  0.00    +0.048 C 
BRANCH  12  15
ATOM     15  C   UNL     1       9.908  -0.722  22.006  0.00  0.00    +0.329 C 
ATOM     16  O   UNL     1       9.161  -0.337  21.118  0.00  0.00    -0.249 OA
BRANCH  15  17
ATOM     17  O   UNL     1      10.956  -1.556  21.810  0.00  0.00    -0.479 OA
ATOM     18  H   UNL     1      11.808  -1.098  22.003  0.00  0.00    +0.295 HD
ENDBRANCH  15  17
ENDBRANCH  12  15
BRANCH  13  19
ATOM     19  C   UNL     1       9.156   1.860  24.805  0.00  0.00    -0.028 C 
ATOM     20  C   UNL     1       8.897   3.169  24.883  0.00  0.00    +0.004 C 
ENDBRANCH  13  19
ENDBRANCH   9  12
ENDBRANCH   6   8
BRANCH   1  21
ATOM     21  O   UNL     1       6.933  -4.772  27.870  0.00  0.00    -0.486 OA
BRANCH  21  24
ATOM     22  C   UNL     1       4.716  -1.989  26.945  0.00  0.00    +0.094 A 
ATOM     23  C   UNL     1       5.878  -2.684  27.231  0.00  0.00    +0.076 A 
ATOM     24  C   UNL     1       5.806  -4.040  27.520  0.00  0.00    +0.132 A 
ATOM     25  C   UNL     1       4.537  -4.682  27.513  0.00  0.00    +0.043 A 
ATOM     26  C   UNL     1       4.351  -6.058  27.787  0.00  0.00    +0.017 A 
ATOM     27  C   UNL     1       3.076  -6.645  27.819  0.00  0.00    +0.047 A 
ATOM     28  C   UNL     1       1.949  -5.870  27.564  0.00  0.00    +0.136 A 
ATOM     29  C   UNL     1       2.125  -4.508  27.256  0.00  0.00    +0.085 A 
ATOM     30 BR   UNL     1       0.573  -3.451  26.843  0.00  0.00    -0.044 Br
ATOM     31  C   UNL     1       3.392  -3.894  27.229  0.00  0.00    +0.093 A 
ATOM     32  N   UNL     1       3.497  -2.581  26.937  0.00  0.00    -0.244 NA
BRANCH  22  39
ATOM     33  C   UNL     1       6.076   1.527  23.168  0.00  0.00    +0.221 C 
ATOM     34  N   UNL     1       5.475   2.016  24.309  0.00  0.00    -0.264 N 
ATOM     35  H   UNL     1       5.350   3.008  24.452  0.00  0.00    +0.157 HD
ATOM     36  C   UNL     1       5.150   1.189  25.351  0.00  0.00    +0.165 A 
ATOM     37  S   UNL     1       4.666   1.974  26.784  0.00  0.00    -0.060 S 
ATOM     38  C   UNL     1       4.505   0.442  27.550  0.00  0.00    +0.078 A 
ATOM     39  C   UNL     1       4.784  -0.563  26.643  0.00  0.00    +0.098 A 
ATOM     40  N   UNL     1       5.157  -0.118  25.383  0.00  0.00    -0.223 NA
ATOM     41  O   UNL     1       6.412   0.359  22.984  0.00  0.00    -0.275 OA
BRANCH  33  43
ATOM     42  C   UNL     1       6.143   3.997  22.694  0.00  0.00    +0.017 C 
ATOM     43  C   UNL     1       6.306   2.598  22.094  0.00  0.00    +0.069 C 
ATOM     44  C   UNL     1       7.700   2.453  21.486  0.00  0.00    +0.017 C 
ENDBRANCH  33  43
ENDBRANCH  22  39
BRANCH  28  45
ATOM     45  O   UNL     1       0.665  -6.339  27.642  0.00  0.00    -0.494 OA
ATOM     46  C   UNL     1       0.444  -7.555  28.345  0.00  0.00    +0.277 C 
ENDBRANCH  28  45
ENDBRANCH  21  24
ENDBRANCH   1  21
BRANCH   4  47
ATOM     47  C   UNL     1       5.493  -4.723  22.844  0.00  0.00    +0.168 C 
BRANCH  47  48
ATOM     48  N   UNL     1       4.691  -5.520  23.794  0.00  0.00    -0.269 N 
ATOM     49  H   UNL     1       5.146  -6.251  24.324  0.00  0.00    +0.153 HD
ATOM     50  C   UNL     1       3.320  -5.590  23.757  0.00  0.00    +0.401 C 
ATOM     51  O   UNL     1       2.605  -4.885  23.061  0.00  0.00    -0.226 OA
BRANCH  50  52
ATOM     52  O   UNL     1       2.868  -6.591  24.566  0.00  0.00    -0.447 OA
BRANCH  52  53
ATOM     53  C   UNL     1       1.597  -7.174  24.212  0.00  0.00    +0.178 C 
ATOM     54  C   UNL     1       1.377  -8.498  24.959  0.00  0.00    +0.045 C 
ATOM     55  C   UNL     1       0.677  -9.450  23.983  0.00  0.00    +0.004 C 
ATOM     56  C   UNL     1       0.443  -8.649  22.711  0.00  0.00    +0.004 C 
ATOM     57  C   UNL     1       1.528  -7.581  22.740  0.00  0.00    +0.045 C 
ENDBRANCH  52  53
ENDBRANCH  50  52
ENDBRANCH  47  48
BRANCH  47  58
ATOM     58  C   UNL     1       6.339  -5.664  21.875  0.00  0.00    -0.011 C 
ATOM     59  C   UNL     1       6.172  -7.143  22.290  0.00  0.00    +0.013 C 
ATOM     60  C   UNL     1       7.854  -5.357  21.961  0.00  0.00    +0.013 C 
ATOM     61  C   UNL     1       5.953  -5.516  20.386  0.00  0.00    +0.013 C 
ENDBRANCH  47  58
ENDBRANCH   4  47
TORSDOF 15
ENDMDL
MODEL 2
REMARK VINA RESULT:      -6.1      3.648      8.411
REMARK  Name = 
REMARK  21 active torsions:
REMARK  status: ('A' for Active; 'I' for Inactive)
REMARK    1  A    between atoms: C_1  and  C_2
REMARK    2  A    between atoms: C_2  and  C_3
REMARK    3  A    between atoms: C_2  and  C_4
REMARK    4  A    between atoms: C_9  and  C_12
REMARK    5  A    between atoms: C_18  and  O_21
REMARK    6  A    between atoms: O_21  and  C_22
REMARK    7  A    between atoms: C_23  and  O_25
REMARK    8  A    between atoms: O_25  and  C_26
REMARK    9  A    between atoms: C_29  and  C_49
REMARK   10  A    between atoms: C_33  and  C_35
REMARK   11  A    between atoms: C_35  and  C_36
REMARK   12  A    between atoms: C_35  and  N_40
REMARK   13  A    between atoms: C_36  and  C_37
REMARK   14  A    between atoms: C_36  and  C_38
REMARK   15  A    between atoms: C_36  and  C_39
REMARK   16  A    between atoms: C_41  and  O_43
REMARK   17  A    between atoms: O_43  and  C_44
REMARK   18  A    between atoms: N_51  and  C_52
REMARK   19  A    between atoms: C_52  and  C_57
REMARK   20  A    between atoms: C_54  and  C_55
REMARK   21  A    between atoms: C_57  and  O_59
REMARK                            x       y       z     vdW  Elec       q    Type
REMARK                         _______ _______ _______ _____ _____    ______ ____
ROOT
ATOM      1  C   UNL     1       7.561  -0.008  24.476  0.00  0.00    +0.193 C 
ATOM      2  C   UNL     1       6.304   0.837  24.136  0.00  0.00    +0.153 C 
ATOM      3  N   UNL     1       6.651   2.233  24.390  0.00  0.00    -0.285 N 
ATOM      4  C   UNL     1       5.783   3.280  24.656  0.00  0.00    +0.237 C 
ATOM      5  O   UNL     1       6.283   4.336  25.065  0.00  0.00    -0.274 OA
ATOM      6  C   UNL     1       8.073   2.360  24.745  0.00  0.00    +0.166 C 
ATOM      7  C   UNL     1       8.696   1.008  24.368  0.00  0.00    +0.078 C 
ENDROOT
BRANCH   6   8
ATOM      8  C   UNL     1       8.815   3.495  23.988  0.00  0.00    +0.235 C 
ATOM      9  N   UNL     1       9.165   4.582  24.768  0.00  0.00    -0.298 N 
ATOM     10  H   UNL     1       8.499   4.799  25.515  0.00  0.00    +0.150 HD
ATOM     11  O   UNL     1       9.029   3.497  22.774  0.00  0.00    -0.274 OA
BRANCH   9  12
ATOM     12  C   UNL     1       9.877   5.722  24.196  0.00  0.00    +0.138 C 
ATOM     13  C   UNL     1       9.120   6.754  23.353  0.00  0.00    +0.048 C 
ATOM     14  C   UNL     1       9.546   7.107  24.746  0.00  0.00    +0.048 C 
BRANCH  12  15
ATOM     15  C   UNL     1      11.324   5.469  23.835  0.00  0.00    +0.329 C 
ATOM     16  O   UNL     1      12.255   5.943  24.470  0.00  0.00    -0.249 OA
BRANCH  15  17
ATOM     17  O   UNL     1      11.472   4.657  22.762  0.00  0.00    -0.479 OA
ATOM     18  H   UNL     1      12.245   4.056  22.882  0.00  0.00    +0.295 HD
ENDBRANCH  15  17
ENDBRANCH  12  15
BRANCH  13  19
ATOM     19  C   UNL     1       7.687   6.596  23.081  0.00  0.00    -0.028 C 
ATOM     20  C   UNL     1       7.148   6.385  21.876  0.00  0.00    +0.004 C 
ENDBRANCH  13  19
ENDBRANCH   9  12
ENDBRANCH   6   8
BRANCH   1  21
ATOM     21  O   UNL     1       7.553  -0.577  25.808  0.00  0.00    -0.486 OA
BRANCH  21  24
ATOM     22  C   UNL     1       5.259  -3.444  25.623  0.00  0.00    +0.094 A 
ATOM     23  C   UNL     1       6.325  -2.612  25.327  0.00  0.00    +0.076 A 
ATOM     24  C   UNL     1       6.534  -1.475  26.097  0.00  0.00    +0.132 A 
ATOM     25  C   UNL     1       5.647  -1.195  27.172  0.00  0.00    +0.043 A 
ATOM     26  C   UNL     1       5.772  -0.070  28.021  0.00  0.00    +0.017 A 
ATOM     27  C   UNL     1       4.846   0.199  29.042  0.00  0.00    +0.047 A 
ATOM     28  C   UNL     1       3.774  -0.662  29.250  0.00  0.00    +0.136 A 
ATOM     29  C   UNL     1       3.658  -1.803  28.434  0.00  0.00    +0.085 A 
ATOM     30 BR   UNL     1       2.212  -3.026  28.761  0.00  0.00    -0.044 Br
ATOM     31  C   UNL     1       4.567  -2.088  27.397  0.00  0.00    +0.093 A 
ATOM     32  N   UNL     1       4.400  -3.192  26.641  0.00  0.00    -0.244 NA
BRANCH  22  39
ATOM     33  C   UNL     1       1.861  -7.478  24.813  0.00  0.00    +0.221 C 
ATOM     34  N   UNL     1       2.928  -7.357  23.946  0.00  0.00    -0.264 N 
ATOM     35  H   UNL     1       3.094  -8.041  23.221  0.00  0.00    +0.157 HD
ATOM     36  C   UNL     1       3.878  -6.387  24.121  0.00  0.00    +0.165 A 
ATOM     37  S   UNL     1       5.263  -6.536  23.138  0.00  0.00    -0.060 S 
ATOM     38  C   UNL     1       5.932  -5.146  23.901  0.00  0.00    +0.078 A 
ATOM     39  C   UNL     1       5.031  -4.638  24.816  0.00  0.00    +0.098 A 
ATOM     40  N   UNL     1       3.854  -5.365  24.934  0.00  0.00    -0.223 NA
ATOM     41  O   UNL     1       1.674  -6.790  25.814  0.00  0.00    -0.275 OA
BRANCH  33  43
ATOM     42  C   UNL     1       0.887  -8.789  22.899  0.00  0.00    +0.017 C 
ATOM     43  C   UNL     1       0.876  -8.585  24.415  0.00  0.00    +0.069 C 
ATOM     44  C   UNL     1       1.232  -9.894  25.118  0.00  0.00    +0.017 C 
ENDBRANCH  33  43
ENDBRANCH  22  39
BRANCH  28  45
ATOM     45  O   UNL     1       2.785  -0.443  30.173  0.00  0.00    -0.494 OA
ATOM     46  C   UNL     1       2.038   0.762  30.072  0.00  0.00    +0.277 C 
ENDBRANCH  28  45
ENDBRANCH  21  24
ENDBRANCH   1  21
BRANCH   4  47
ATOM     47  C   UNL     1       4.234   3.187  24.341  0.00  0.00    +0.168 C 
BRANCH  47  48
ATOM     48  N   UNL     1       3.905   4.017  23.164  0.00  0.00    -0.269 N 
ATOM     49  H   UNL     1       4.266   4.961  23.117  0.00  0.00    +0.153 HD
ATOM     50  C   UNL     1       2.868   3.742  22.307  0.00  0.00    +0.401 C 
ATOM     51  O   UNL     1       2.215   2.710  22.313  0.00  0.00    -0.226 OA
BRANCH  50  52
ATOM     52  O   UNL     1       2.634   4.801  21.481  0.00  0.00    -0.447 OA
BRANCH  52  53
ATOM     53  C   UNL     1       1.577   4.635  20.513  0.00  0.00    +0.178 C 
ATOM     54  C   UNL     1       2.097   3.919  19.256  0.00  0.00    +0.045 C 
ATOM     55  C   UNL     1       1.402   4.568  18.055  0.00  0.00    +0.004 C 
ATOM     56  C   UNL     1       0.445   5.602  18.631  0.00  0.00    +0.004 C 
ATOM     57  C   UNL     1       1.061   5.969  19.973  0.00  0.00    +0.045 C 
ENDBRANCH  52  53
ENDBRANCH  50  52
ENDBRANCH  47  48
BRANCH  47  58
ATOM     58  C   UNL     1       3.352   3.602  25.602  0.00  0.00    -0.011 C 
ATOM     59  C   UNL     1       3.070   5.121  25.577  0.00  0.00    +0.013 C 
ATOM     60  C   UNL     1       4.089   3.318  26.933  0.00  0.00    +0.013 C 
ATOM     61  C   UNL     1       2.006   2.846  25.684  0.00  0.00    +0.013 C 
ENDBRANCH  47  58
ENDBRANCH   4  47
TORSDOF 15
ENDMDL
MODEL 3
REMARK VINA RESULT:      -5.7      1.404      2.044
REMARK  Name = 
REMARK  21 active torsions:
REMARK  status: ('A' for Active; 'I' for Inactive)
REMARK    1  A    between atoms: C_1  and  C_2
REMARK    2  A    between atoms: C_2  and  C_3
REMARK    3  A    between atoms: C_2  and  C_4
REMARK    4  A    between atoms: C_9  and  C_12
REMARK    5  A    between atoms: C_18  and  O_21
REMARK    6  A    between atoms: O_21  and  C_22
REMARK    7  A    between atoms: C_23  and  O_25
REMARK    8  A    between atoms: O_25  and  C_26
REMARK    9  A    between atoms: C_29  and  C_49
REMARK   10  A    between atoms: C_33  and  C_35
REMARK   11  A    between atoms: C_35  and  C_36
REMARK   12  A    between atoms: C_35  and  N_40
REMARK   13  A    between atoms: C_36  and  C_37
REMARK   14  A    between atoms: C_36  and  C_38
REMARK   15  A    between atoms: C_36  and  C_39
REMARK   16  A    between atoms: C_41  and  O_43
REMARK   17  A    between atoms: O_43  and  C_44
REMARK   18  A    between atoms: N_51  and  C_52
REMARK   19  A    between atoms: C_52  and  C_57
REMARK   20  A    between atoms: C_54  and  C_55
REMARK   21  A    between atoms: C_57  and  O_59
REMARK                            x       y       z     vdW  Elec       q    Type
REMARK                         _______ _______ _______ _____ _____    ______ ____
ROOT
ATOM      1  C   UNL     1       8.656  -4.102  25.870  0.00  0.00    +0.193 C 
ATOM      2  C   UNL     1       7.713  -4.620  24.751  0.00  0.00    +0.153 C 
ATOM      3  N   UNL     1       7.181  -3.442  24.069  0.00  0.00    -0.285 N 
ATOM      4  C   UNL     1       6.011  -3.356  23.329  0.00  0.00    +0.237 C 
ATOM      5  O   UNL     1       5.622  -2.222  23.023  0.00  0.00    -0.274 OA
ATOM      6  C   UNL     1       7.809  -2.215  24.582  0.00  0.00    +0.166 C 
ATOM      7  C   UNL     1       9.022  -2.699  25.389  0.00  0.00    +0.078 C 
ENDROOT
BRANCH   6   8
ATOM      8  C   UNL     1       8.289  -1.239  23.473  0.00  0.00    +0.235 C 
ATOM      9  N   UNL     1       8.047   0.098  23.730  0.00  0.00    -0.298 N 
ATOM     10  H   UNL     1       7.182   0.280  24.248  0.00  0.00    +0.150 HD
ATOM     11  O   UNL     1       8.785  -1.594  22.401  0.00  0.00    -0.274 OA
BRANCH   9  12
ATOM     12  C   UNL     1       8.451   1.133  22.781  0.00  0.00    +0.138 C 
ATOM     13  C   UNL     1       9.722   1.951  23.034  0.00  0.00    +0.048 C 
ATOM     14  C   UNL     1       9.724   0.890  21.975  0.00  0.00    +0.048 C 
BRANCH  12  15
ATOM     15  C   UNL     1       7.319   1.828  22.058  0.00  0.00    +0.329 C 
ATOM     16  O   UNL     1       7.507   2.683  21.204  0.00  0.00    -0.249 OA
BRANCH  15  17
ATOM     17  O   UNL     1       6.095   1.392  22.440  0.00  0.00    -0.479 OA
ATOM     18  H   UNL     1       5.391   1.783  21.870  0.00  0.00    +0.295 HD
ENDBRANCH  15  17
ENDBRANCH  12  15
BRANCH  13  19
ATOM     19  C   UNL     1      10.527   1.734  24.240  0.00  0.00    -0.028 C 
ATOM     20  C   UNL     1      11.264   0.647  24.492  0.00  0.00    +0.004 C 
ENDBRANCH  13  19
ENDBRANCH   9  12
ENDBRANCH   6   8
BRANCH   1  21
ATOM     21  O   UNL     1       8.037  -4.014  27.177  0.00  0.00    -0.486 OA
BRANCH  21  24
ATOM     22  C   UNL     1       4.940  -2.034  27.075  0.00  0.00    +0.094 A 
ATOM     23  C   UNL     1       6.284  -2.350  26.974  0.00  0.00    +0.076 A 
ATOM     24  C   UNL     1       6.696  -3.655  27.208  0.00  0.00    +0.132 A 
ATOM     25  C   UNL     1       5.723  -4.637  27.545  0.00  0.00    +0.043 A 
ATOM     26  C   UNL     1       6.032  -5.995  27.797  0.00  0.00    +0.017 A 
ATOM     27  C   UNL     1       5.049  -6.924  28.175  0.00  0.00    +0.047 A 
ATOM     28  C   UNL     1       3.724  -6.520  28.298  0.00  0.00    +0.136 A 
ATOM     29  C   UNL     1       3.399  -5.180  28.016  0.00  0.00    +0.085 A 
ATOM     30 BR   UNL     1       1.559  -4.636  28.126  0.00  0.00    -0.044 Br
ATOM     31  C   UNL     1       4.368  -4.227  27.646  0.00  0.00    +0.093 A 
ATOM     32  N   UNL     1       3.999  -2.954  27.398  0.00  0.00    -0.244 NA
BRANCH  22  39
ATOM     33  C   UNL     1       6.641   2.810  25.620  0.00  0.00    +0.221 C 
ATOM     34  N   UNL     1       5.282   2.632  25.781  0.00  0.00    -0.264 N 
ATOM     35  H   UNL     1       4.637   3.403  25.685  0.00  0.00    +0.157 HD
ATOM     36  C   UNL     1       4.770   1.437  26.211  0.00  0.00    +0.165 A 
ATOM     37  S   UNL     1       3.113   1.457  26.616  0.00  0.00    -0.060 S 
ATOM     38  C   UNL     1       3.222  -0.199  27.069  0.00  0.00    +0.078 A 
ATOM     39  C   UNL     1       4.502  -0.664  26.833  0.00  0.00    +0.098 A 
ATOM     40  N   UNL     1       5.382   0.291  26.342  0.00  0.00    -0.223 NA
ATOM     41  O   UNL     1       7.505   1.973  25.873  0.00  0.00    -0.275 OA
BRANCH  33  43
ATOM     42  C   UNL     1       6.030   5.250  25.588  0.00  0.00    +0.017 C 
ATOM     43  C   UNL     1       7.013   4.195  25.075  0.00  0.00    +0.069 C 
ATOM     44  C   UNL     1       8.436   4.566  25.487  0.00  0.00    +0.017 C 
ENDBRANCH  33  43
ENDBRANCH  22  39
BRANCH  28  45
ATOM     45  O   UNL     1       2.712  -7.338  28.728  0.00  0.00    -0.494 OA
ATOM     46  C   UNL     1       2.640  -7.629  30.118  0.00  0.00    +0.277 C 
ENDBRANCH  28  45
ENDBRANCH  21  24
ENDBRANCH   1  21
BRANCH   4  47
ATOM     47  C   UNL     1       5.263  -4.643  22.790  0.00  0.00    +0.168 C 
BRANCH  47  48
ATOM     48  N   UNL     1       4.618  -5.360  23.909  0.00  0.00    -0.269 N 
ATOM     49  H   UNL     1       5.136  -6.084  24.388  0.00  0.00    +0.153 HD
ATOM     50  C   UNL     1       3.261  -5.373  24.121  0.00  0.00    +0.401 C 
ATOM     51  O   UNL     1       2.456  -4.671  23.527  0.00  0.00    -0.226 OA
BRANCH  50  52
ATOM     52  O   UNL     1       2.929  -6.314  25.049  0.00  0.00    -0.447 OA
BRANCH  52  53
ATOM     53  C   UNL     1       1.761  -7.112  24.761  0.00  0.00    +0.178 C 
ATOM     54  C   UNL     1       1.633  -8.272  25.760  0.00  0.00    +0.045 C 
ATOM     55  C   UNL     1       1.122  -9.483  24.974  0.00  0.00    +0.004 C 
ATOM     56  C   UNL     1       0.899  -8.995  23.550  0.00  0.00    +0.004 C 
ATOM     57  C   UNL     1       1.853  -7.817  23.408  0.00  0.00    +0.045 C 
ENDBRANCH  52  53
ENDBRANCH  50  52
ENDBRANCH  47  48
BRANCH  47  58
ATOM     58  C   UNL     1       6.248  -5.601  21.985  0.00  0.00    -0.011 C 
ATOM     59  C   UNL     1       5.673  -5.897  20.581  0.00  0.00    +0.013 C 
ATOM     60  C   UNL     1       6.412  -6.972  22.685  0.00  0.00    +0.013 C 
ATOM     61  C   UNL     1       7.674  -5.024  21.829  0.00  0.00    +0.013 C 
ENDBRANCH  47  58
ENDBRANCH   4  47
TORSDOF 15
ENDMDL
MODEL 4
REMARK VINA RESULT:      -5.6      2.093      2.786
REMARK  Name = 
REMARK  21 active torsions:
REMARK  status: ('A' for Active; 'I' for Inactive)
REMARK    1  A    between atoms: C_1  and  C_2
REMARK    2  A    between atoms: C_2  and  C_3
REMARK    3  A    between atoms: C_2  and  C_4
REMARK    4  A    between atoms: C_9  and  C_12
REMARK    5  A    between atoms: C_18  and  O_21
REMARK    6  A    between atoms: O_21  and  C_22
REMARK    7  A    between atoms: C_23  and  O_25
REMARK    8  A    between atoms: O_25  and  C_26
REMARK    9  A    between atoms: C_29  and  C_49
REMARK   10  A    between atoms: C_33  and  C_35
REMARK   11  A    between atoms: C_35  and  C_36
REMARK   12  A    between atoms: C_35  and  N_40
REMARK   13  A    between atoms: C_36  and  C_37
REMARK   14  A    between atoms: C_36  and  C_38
REMARK   15  A    between atoms: C_36  and  C_39
REMARK   16  A    between atoms: C_41  and  O_43
REMARK   17  A    between atoms: O_43  and  C_44
REMARK   18  A    between atoms: N_51  and  C_52
REMARK   19  A    between atoms: C_52  and  C_57
REMARK   20  A    between atoms: C_54  and  C_55
REMARK   21  A    between atoms: C_57  and  O_59
REMARK                            x       y       z     vdW  Elec       q    Type
REMARK                         _______ _______ _______ _____ _____    ______ ____
ROOT
ATOM      1  C   UNL     1       7.349  -5.560  27.231  0.00  0.00    +0.193 C 
ATOM      2  C   UNL     1       6.258  -5.515  26.128  0.00  0.00    +0.153 C 
ATOM      3  N   UNL     1       6.413  -4.240  25.431  0.00  0.00    -0.285 N 
ATOM      4  C   UNL     1       5.452  -3.560  24.699  0.00  0.00    +0.237 C 
ATOM      5  O   UNL     1       5.712  -2.393  24.378  0.00  0.00    -0.274 OA
ATOM      6  C   UNL     1       7.600  -3.521  25.919  0.00  0.00    +0.166 C 
ATOM      7  C   UNL     1       8.390  -4.562  26.724  0.00  0.00    +0.078 C 
ENDROOT
BRANCH   6   8
ATOM      8  C   UNL     1       8.504  -2.954  24.790  0.00  0.00    +0.235 C 
ATOM      9  N   UNL     1       8.445  -1.581  24.633  0.00  0.00    -0.298 N 
ATOM     10  H   UNL     1       7.525  -1.172  24.822  0.00  0.00    +0.150 HD
ATOM     11  O   UNL     1       9.178  -3.646  24.026  0.00  0.00    -0.274 OA
BRANCH   9  12
ATOM     12  C   UNL     1       9.247  -0.904  23.617  0.00  0.00    +0.138 C 
ATOM     13  C   UNL     1       9.393   0.621  23.645  0.00  0.00    +0.048 C 
ATOM     14  C   UNL     1      10.544  -0.239  24.071  0.00  0.00    +0.048 C 
BRANCH  12  15
ATOM     15  C   UNL     1       9.273  -1.572  22.260  0.00  0.00    +0.329 C 
ATOM     16  O   UNL     1       8.256  -1.812  21.624  0.00  0.00    -0.249 OA
BRANCH  15  17
ATOM     17  O   UNL     1      10.524  -1.849  21.825  0.00  0.00    -0.479 OA
ATOM     18  H   UNL     1      10.512  -2.589  21.173  0.00  0.00    +0.295 HD
ENDBRANCH  15  17
ENDBRANCH  12  15
BRANCH  13  19
ATOM     19  C   UNL     1       8.706   1.422  24.663  0.00  0.00    -0.028 C 
ATOM     20  C   UNL     1       8.740   2.756  24.749  0.00  0.00    +0.004 C 
ENDBRANCH  13  19
ENDBRANCH   9  12
ENDBRANCH   6   8
BRANCH   1  21
ATOM     21  O   UNL     1       6.889  -5.147  28.541  0.00  0.00    -0.486 OA
BRANCH  21  24
ATOM     22  C   UNL     1       4.115  -2.735  28.464  0.00  0.00    +0.094 A 
ATOM     23  C   UNL     1       5.391  -3.251  28.325  0.00  0.00    +0.076 A 
ATOM     24  C   UNL     1       5.618  -4.591  28.609  0.00  0.00    +0.132 A 
ATOM     25  C   UNL     1       4.530  -5.401  29.035  0.00  0.00    +0.043 A 
ATOM     26  C   UNL     1       4.647  -6.777  29.344  0.00  0.00    +0.017 A 
ATOM     27  C   UNL     1       3.558  -7.532  29.809  0.00  0.00    +0.047 A 
ATOM     28  C   UNL     1       2.314  -6.931  29.966  0.00  0.00    +0.136 A 
ATOM     29  C   UNL     1       2.176  -5.571  29.628  0.00  0.00    +0.085 A 
ATOM     30 BR   UNL     1       0.443  -4.755  29.786  0.00  0.00    -0.044 Br
ATOM     31  C   UNL     1       3.255  -4.791  29.171  0.00  0.00    +0.093 A 
ATOM     32  N   UNL     1       3.065  -3.489  28.872  0.00  0.00    -0.244 NA
BRANCH  22  39
ATOM     33  C   UNL     1       6.269   2.137  28.772  0.00  0.00    +0.221 C 
ATOM     34  N   UNL     1       5.062   2.013  28.115  0.00  0.00    -0.264 N 
ATOM     35  H   UNL     1       4.574   2.822  27.758  0.00  0.00    +0.157 HD
ATOM     36  C   UNL     1       4.414   0.810  28.045  0.00  0.00    +0.165 A 
ATOM     37  S   UNL     1       2.820   0.873  27.441  0.00  0.00    -0.060 S 
ATOM     38  C   UNL     1       2.677  -0.824  27.690  0.00  0.00    +0.078 A 
ATOM     39  C   UNL     1       3.871  -1.327  28.170  0.00  0.00    +0.098 A 
ATOM     40  N   UNL     1       4.860  -0.374  28.371  0.00  0.00    -0.223 NA
ATOM     41  O   UNL     1       6.849   1.237  29.375  0.00  0.00    -0.275 OA
BRANCH  33  43
ATOM     42  C   UNL     1       6.650   4.137  27.294  0.00  0.00    +0.017 C 
ATOM     43  C   UNL     1       6.864   3.549  28.691  0.00  0.00    +0.069 C 
ATOM     44  C   UNL     1       6.228   4.458  29.740  0.00  0.00    +0.017 C 
ENDBRANCH  33  43
ENDBRANCH  22  39
BRANCH  28  45
ATOM     45  O   UNL     1       1.216  -7.568  30.479  0.00  0.00    -0.494 OA
ATOM     46  C   UNL     1       1.094  -8.967  30.252  0.00  0.00    +0.277 C 
ENDBRANCH  28  45
ENDBRANCH  21  24
ENDBRANCH   1  21
BRANCH   4  47
ATOM     47  C   UNL     1       4.131  -4.267  24.187  0.00  0.00    +0.168 C 
BRANCH  47  48
ATOM     48  N   UNL     1       3.271  -4.625  25.334  0.00  0.00    -0.269 N 
ATOM     49  H   UNL     1       3.629  -5.264  26.031  0.00  0.00    +0.153 HD
ATOM     50  C   UNL     1       1.909  -4.446  25.346  0.00  0.00    +0.401 C 
ATOM     51  O   UNL     1       1.280  -3.827  24.502  0.00  0.00    -0.226 OA
BRANCH  50  52
ATOM     52  O   UNL     1       1.349  -5.099  26.404  0.00  0.00    -0.447 OA
BRANCH  52  53
ATOM     53  C   UNL     1       0.873  -6.437  26.148  0.00  0.00    +0.178 C 
ATOM     54  C   UNL     1       2.003  -7.462  26.333  0.00  0.00    +0.045 C 
ATOM     55  C   UNL     1       1.819  -8.528  25.247  0.00  0.00    +0.004 C 
ATOM     56  C   UNL     1       0.555  -8.144  24.492  0.00  0.00    +0.004 C 
ATOM     57  C   UNL     1       0.443  -6.640  24.695  0.00  0.00    +0.045 C 
ENDBRANCH  52  53
ENDBRANCH  50  52
ENDBRANCH  47  48
BRANCH  47  58
ATOM     58  C   UNL     1       4.458  -5.543  23.292  0.00  0.00    -0.011 C 
ATOM     59  C   UNL     1       5.554  -5.201  22.258  0.00  0.00    +0.013 C 
ATOM     60  C   UNL     1       3.223  -6.004  22.480  0.00  0.00    +0.013 C 
ATOM     61  C   UNL     1       4.914  -6.770  24.115  0.00  0.00    +0.013 C 
ENDBRANCH  47  58
ENDBRANCH   4  47
TORSDOF 15
ENDMDL
MODEL 5
REMARK VINA RESULT:      -5.6      3.818      9.240
REMARK  Name = 
REMARK  21 active torsions:
REMARK  status: ('A' for Active; 'I' for Inactive)
REMARK    1  A    between atoms: C_1  and  C_2
REMARK    2  A    between atoms: C_2  and  C_3
REMARK    3  A    between atoms: C_2  and  C_4
REMARK    4  A    between atoms: C_9  and  C_12
REMARK    5  A    between atoms: C_18  and  O_21
REMARK    6  A    between atoms: O_21  and  C_22
REMARK    7  A    between atoms: C_23  and  O_25
REMARK    8  A    between atoms: O_25  and  C_26
REMARK    9  A    between atoms: C_29  and  C_49
REMARK   10  A    between atoms: C_33  and  C_35
REMARK   11  A    between atoms: C_35  and  C_36
REMARK   12  A    between atoms: C_35  and  N_40
REMARK   13  A    between atoms: C_36  and  C_37
REMARK   14  A    between atoms: C_36  and  C_38
REMARK   15  A    between atoms: C_36  and  C_39
REMARK   16  A    between atoms: C_41  and  O_43
REMARK   17  A    between atoms: O_43  and  C_44
REMARK   18  A    between atoms: N_51  and  C_52
REMARK   19  A    between atoms: C_52  and  C_57
REMARK   20  A    between atoms: C_54  and  C_55
REMARK   21  A    between atoms: C_57  and  O_59
REMARK                            x       y       z     vdW  Elec       q    Type
REMARK                         _______ _______ _______ _____ _____    ______ ____
ROOT
ATOM      1  C   UNL     1       9.307   0.076  22.654  0.00  0.00    +0.193 C 
ATOM      2  C   UNL     1       8.536   0.141  23.999  0.00  0.00    +0.153 C 
ATOM      3  N   UNL     1       7.419  -0.795  23.891  0.00  0.00    -0.285 N 
ATOM      4  C   UNL     1       6.236  -0.780  24.613  0.00  0.00    +0.237 C 
ATOM      5  O   UNL     1       5.326  -1.520  24.218  0.00  0.00    -0.274 OA
ATOM      6  C   UNL     1       7.490  -1.548  22.629  0.00  0.00    +0.166 C 
ATOM      7  C   UNL     1       8.905  -1.286  22.092  0.00  0.00    +0.078 C 
ENDROOT
BRANCH   6   8
ATOM      8  C   UNL     1       7.280  -3.078  22.792  0.00  0.00    +0.235 C 
ATOM      9  N   UNL     1       6.030  -3.537  22.418  0.00  0.00    -0.298 N 
ATOM     10  H   UNL     1       5.265  -2.880  22.603  0.00  0.00    +0.150 HD
ATOM     11  O   UNL     1       8.111  -3.846  23.281  0.00  0.00    -0.274 OA
BRANCH   9  12
ATOM     12  C   UNL     1       5.689  -4.955  22.507  0.00  0.00    +0.138 C 
ATOM     13  C   UNL     1       5.306  -5.567  23.858  0.00  0.00    +0.048 C 
ATOM     14  C   UNL     1       4.242  -5.312  22.833  0.00  0.00    +0.048 C 
BRANCH  12  15
ATOM     15  C   UNL     1       6.400  -5.855  21.521  0.00  0.00    +0.329 C 
ATOM     16  O   UNL     1       7.403  -6.490  21.812  0.00  0.00    -0.249 OA
BRANCH  15  17
ATOM     17  O   UNL     1       5.799  -5.897  20.308  0.00  0.00    -0.479 OA
ATOM     18  H   UNL     1       5.952  -5.057  19.814  0.00  0.00    +0.295 HD
ENDBRANCH  15  17
ENDBRANCH  12  15
BRANCH  13  19
ATOM     19  C   UNL     1       5.307  -4.755  25.079  0.00  0.00    -0.028 C 
ATOM     20  C   UNL     1       4.235  -4.489  25.832  0.00  0.00    +0.004 C 
ENDBRANCH  13  19
ENDBRANCH   9  12
ENDBRANCH   6   8
BRANCH   1  21
ATOM     21  O   UNL     1       8.942   1.111  21.707  0.00  0.00    -0.486 OA
BRANCH  21  24
ATOM     22  C   UNL     1       6.313   3.505  22.642  0.00  0.00    +0.094 A 
ATOM     23  C   UNL     1       6.907   2.349  22.167  0.00  0.00    +0.076 A 
ATOM     24  C   UNL     1       8.290   2.224  22.221  0.00  0.00    +0.132 A 
ATOM     25  C   UNL     1       9.060   3.288  22.765  0.00  0.00    +0.043 A 
ATOM     26  C   UNL     1      10.470   3.263  22.872  0.00  0.00    +0.017 A 
ATOM     27  C   UNL     1      11.199   4.356  23.370  0.00  0.00    +0.047 A 
ATOM     28  C   UNL     1      10.532   5.502  23.787  0.00  0.00    +0.136 A 
ATOM     29  C   UNL     1       9.126   5.526  23.717  0.00  0.00    +0.085 A 
ATOM     30 BR   UNL     1       8.199   7.086  24.351  0.00  0.00    -0.044 Br
ATOM     31  C   UNL     1       8.374   4.448  23.212  0.00  0.00    +0.093 A 
ATOM     32  N   UNL     1       7.029   4.532  23.160  0.00  0.00    -0.244 NA
BRANCH  22  39
ATOM     33  C   UNL     1       2.052   5.083  25.441  0.00  0.00    +0.221 C 
ATOM     34  N   UNL     1       1.854   4.722  24.124  0.00  0.00    -0.264 N 
ATOM     35  H   UNL     1       0.928   4.700  23.721  0.00  0.00    +0.157 HD
ATOM     36  C   UNL     1       2.882   4.248  23.356  0.00  0.00    +0.165 A 
ATOM     37  S   UNL     1       2.427   3.596  21.847  0.00  0.00    -0.060 S 
ATOM     38  C   UNL     1       4.074   3.205  21.539  0.00  0.00    +0.078 A 
ATOM     39  C   UNL     1       4.861   3.644  22.586  0.00  0.00    +0.098 A 
ATOM     40  N   UNL     1       4.161   4.240  23.625  0.00  0.00    -0.223 NA
ATOM     41  O   UNL     1       3.112   4.984  26.055  0.00  0.00    -0.275 OA
BRANCH  33  43
ATOM     42  C   UNL     1       0.444   4.822  27.358  0.00  0.00    +0.017 C 
ATOM     43  C   UNL     1       0.793   5.644  26.115  0.00  0.00    +0.069 C 
ATOM     44  C   UNL     1       1.002   7.107  26.502  0.00  0.00    +0.017 C 
ENDBRANCH  33  43
ENDBRANCH  22  39
BRANCH  28  45
ATOM     45  O   UNL     1      11.161   6.639  24.219  0.00  0.00    -0.494 OA
ATOM     46  C   UNL     1      11.288   6.835  25.621  0.00  0.00    +0.277 C 
ENDBRANCH  28  45
ENDBRANCH  21  24
ENDBRANCH   1  21
BRANCH   4  47
ATOM     47  C   UNL     1       6.082   0.049  25.954  0.00  0.00    +0.168 C 
BRANCH  47  48
ATOM     48  N   UNL     1       6.638   1.406  25.777  0.00  0.00    -0.269 N 
ATOM     49  H   UNL     1       7.635   1.511  25.642  0.00  0.00    +0.153 HD
ATOM     50  C   UNL     1       5.971   2.552  26.133  0.00  0.00    +0.401 C 
ATOM     51  O   UNL     1       4.798   2.599  26.472  0.00  0.00    -0.226 OA
BRANCH  50  52
ATOM     52  O   UNL     1       6.812   3.625  26.107  0.00  0.00    -0.447 OA
BRANCH  52  53
ATOM     53  C   UNL     1       7.189   4.172  27.388  0.00  0.00    +0.178 C 
ATOM     54  C   UNL     1       6.735   3.249  28.530  0.00  0.00    +0.045 C 
ATOM     55  C   UNL     1       6.273   4.154  29.677  0.00  0.00    +0.004 C 
ATOM     56  C   UNL     1       6.526   5.582  29.213  0.00  0.00    +0.004 C 
ATOM     57  C   UNL     1       6.481   5.491  27.694  0.00  0.00    +0.045 C 
ENDBRANCH  52  53
ENDBRANCH  50  52
ENDBRANCH  47  48
BRANCH  47  58
ATOM     58  C   UNL     1       6.764  -0.696  27.186  0.00  0.00    -0.011 C 
ATOM     59  C   UNL     1       5.915  -0.499  28.462  0.00  0.00    +0.013 C 
ATOM     60  C   UNL     1       8.164  -0.116  27.502  0.00  0.00    +0.013 C 
ATOM     61  C   UNL     1       6.967  -2.210  26.951  0.00  0.00    +0.013 C 
ENDBRANCH  47  58
ENDBRANCH   4  47
TORSDOF 15
ENDMDL
MODEL 6
REMARK VINA RESULT:      -5.5      2.924      6.294
REMARK  Name = 
REMARK  21 active torsions:
REMARK  status: ('A' for Active; 'I' for Inactive)
REMARK    1  A    between atoms: C_1  and  C_2
REMARK    2  A    between atoms: C_2  and  C_3
REMARK    3  A    between atoms: C_2  and  C_4
REMARK    4  A    between atoms: C_9  and  C_12
REMARK    5  A    between atoms: C_18  and  O_21
REMARK    6  A    between atoms: O_21  and  C_22
REMARK    7  A    between atoms: C_23  and  O_25
REMARK    8  A    between atoms: O_25  and  C_26
REMARK    9  A    between atoms: C_29  and  C_49
REMARK   10  A    between atoms: C_33  and  C_35
REMARK   11  A    between atoms: C_35  and  C_36
REMARK   12  A    between atoms: C_35  and  N_40
REMARK   13  A    between atoms: C_36  and  C_37
REMARK   14  A    between atoms: C_36  and  C_38
REMARK   15  A    between atoms: C_36  and  C_39
REMARK   16  A    between atoms: C_41  and  O_43
REMARK   17  A    between atoms: O_43  and  C_44
REMARK   18  A    between atoms: N_51  and  C_52
REMARK   19  A    between atoms: C_52  and  C_57
REMARK   20  A    between atoms: C_54  and  C_55
REMARK   21  A    between atoms: C_57  and  O_59
REMARK                            x       y       z     vdW  Elec       q    Type
REMARK                         _______ _______ _______ _____ _____    ______ ____
ROOT
ATOM      1  C   UNL     1       7.188   1.206  28.367  0.00  0.00    +0.193 C 
ATOM      2  C   UNL     1       7.478  -0.098  27.577  0.00  0.00    +0.153 C 
ATOM      3  N   UNL     1       7.022   0.127  26.207  0.00  0.00    -0.285 N 
ATOM      4  C   UNL     1       6.664  -0.832  25.272  0.00  0.00    +0.237 C 
ATOM      5  O   UNL     1       6.093  -0.434  24.249  0.00  0.00    -0.274 OA
ATOM      6  C   UNL     1       6.580   1.519  26.027  0.00  0.00    +0.166 C 
ATOM      7  C   UNL     1       7.101   2.262  27.265  0.00  0.00    +0.078 C 
ENDROOT
BRANCH   6   8
ATOM      8  C   UNL     1       7.140   2.199  24.748  0.00  0.00    +0.235 C 
ATOM      9  N   UNL     1       8.324   1.664  24.276  0.00  0.00    -0.298 N 
ATOM     10  H   UNL     1       8.956   1.324  25.007  0.00  0.00    +0.150 HD
ATOM     11  O   UNL     1       6.637   3.187  24.209  0.00  0.00    -0.274 OA
BRANCH   9  12
ATOM     12  C   UNL     1       8.965   2.196  23.075  0.00  0.00    +0.138 C 
ATOM     13  C   UNL     1       9.253   1.273  21.887  0.00  0.00    +0.048 C 
ATOM     14  C   UNL     1       8.129   2.260  21.801  0.00  0.00    +0.048 C 
BRANCH  12  15
ATOM     15  C   UNL     1       9.929   3.338  23.306  0.00  0.00    +0.329 C 
ATOM     16  O   UNL     1      11.118   3.163  23.534  0.00  0.00    -0.249 OA
BRANCH  15  17
ATOM     17  O   UNL     1       9.345   4.556  23.214  0.00  0.00    -0.479 OA
ATOM     18  H   UNL     1       8.457   4.552  23.643  0.00  0.00    +0.295 HD
ENDBRANCH  15  17
ENDBRANCH  12  15
BRANCH  13  19
ATOM     19  C   UNL     1       8.924  -0.155  21.948  0.00  0.00    -0.028 C 
ATOM     20  C   UNL     1       9.655  -1.140  21.416  0.00  0.00    +0.004 C 
ENDBRANCH  13  19
ENDBRANCH   9  12
ENDBRANCH   6   8
BRANCH   1  21
ATOM     21  O   UNL     1       5.946   1.189  29.111  0.00  0.00    -0.486 OA
BRANCH  21  24
ATOM     22  C   UNL     1       3.288  -0.504  27.218  0.00  0.00    +0.094 A 
ATOM     23  C   UNL     1       4.422  -0.330  27.991  0.00  0.00    +0.076 A 
ATOM     24  C   UNL     1       4.787   0.951  28.384  0.00  0.00    +0.132 A 
ATOM     25  C   UNL     1       3.982   2.053  27.984  0.00  0.00    +0.043 A 
ATOM     26  C   UNL     1       4.257   3.396  28.333  0.00  0.00    +0.017 A 
ATOM     27  C   UNL     1       3.465   4.462  27.876  0.00  0.00    +0.047 A 
ATOM     28  C   UNL     1       2.365   4.210  27.065  0.00  0.00    +0.136 A 
ATOM     29  C   UNL     1       2.060   2.874  26.739  0.00  0.00    +0.085 A 
ATOM     30 BR   UNL     1       0.503   2.521  25.669  0.00  0.00    -0.044 Br
ATOM     31  C   UNL     1       2.845   1.790  27.175  0.00  0.00    +0.093 A 
ATOM     32  N   UNL     1       2.510   0.532  26.822  0.00  0.00    -0.244 NA
BRANCH  22  39
ATOM     33  C   UNL     1       4.303  -4.328  23.637  0.00  0.00    +0.221 C 
ATOM     34  N   UNL     1       3.419  -4.624  24.654  0.00  0.00    -0.264 N 
ATOM     35  H   UNL     1       2.935  -5.510  24.687  0.00  0.00    +0.157 HD
ATOM     36  C   UNL     1       3.058  -3.680  25.577  0.00  0.00    +0.165 A 
ATOM     37  S   UNL     1       1.764  -4.114  26.599  0.00  0.00    -0.060 S 
ATOM     38  C   UNL     1       1.857  -2.568  27.347  0.00  0.00    +0.078 A 
ATOM     39  C   UNL     1       2.901  -1.848  26.799  0.00  0.00    +0.098 A 
ATOM     40  N   UNL     1       3.581  -2.500  25.780  0.00  0.00    -0.223 NA
ATOM     41  O   UNL     1       4.809  -3.227  23.430  0.00  0.00    -0.275 OA
BRANCH  33  43
ATOM     42  C   UNL     1       5.960  -5.316  22.022  0.00  0.00    +0.017 C 
ATOM     43  C   UNL     1       4.626  -5.532  22.742  0.00  0.00    +0.069 C 
ATOM     44  C   UNL     1       4.684  -6.814  23.570  0.00  0.00    +0.017 C 
ENDBRANCH  33  43
ENDBRANCH  22  39
BRANCH  28  45
ATOM     45  O   UNL     1       1.579   5.188  26.516  0.00  0.00    -0.494 OA
ATOM     46  C   UNL     1       1.373   6.375  27.272  0.00  0.00    +0.277 C 
ENDBRANCH  28  45
ENDBRANCH  21  24
ENDBRANCH   1  21
BRANCH   4  47
ATOM     47  C   UNL     1       7.069  -2.354  25.434  0.00  0.00    +0.168 C 
BRANCH  47  48
ATOM     48  N   UNL     1       6.584  -2.872  26.729  0.00  0.00    -0.269 N 
ATOM     49  H   UNL     1       6.693  -2.299  27.555  0.00  0.00    +0.153 HD
ATOM     50  C   UNL     1       6.324  -4.199  26.967  0.00  0.00    +0.401 C 
ATOM     51  O   UNL     1       6.298  -5.068  26.109  0.00  0.00    -0.226 OA
BRANCH  50  52
ATOM     52  O   UNL     1       6.150  -4.424  28.300  0.00  0.00    -0.447 OA
BRANCH  52  53
ATOM     53  C   UNL     1       4.842  -4.875  28.707  0.00  0.00    +0.178 C 
ATOM     54  C   UNL     1       4.787  -5.087  30.228  0.00  0.00    +0.045 C 
ATOM     55  C   UNL     1       3.923  -6.328  30.474  0.00  0.00    +0.004 C 
ATOM     56  C   UNL     1       3.438  -6.780  29.104  0.00  0.00    +0.004 C 
ATOM     57  C   UNL     1       4.494  -6.253  28.144  0.00  0.00    +0.045 C 
ENDBRANCH  52  53
ENDBRANCH  50  52
ENDBRANCH  47  48
BRANCH  47  58
ATOM     58  C   UNL     1       8.641  -2.563  25.283  0.00  0.00    -0.011 C 
ATOM     59  C   UNL     1       9.231  -3.124  26.597  0.00  0.00    +0.013 C 
ATOM     60  C   UNL     1       9.373  -1.225  25.015  0.00  0.00    +0.013 C 
ATOM     61  C   UNL     1       9.026  -3.505  24.120  0.00  0.00    +0.013 C 
ENDBRANCH  47  58
ENDBRANCH   4  47
TORSDOF 15
ENDMDL
MODEL 7
REMARK VINA RESULT:      -5.4      2.567      6.098
REMARK  Name = 
REMARK  21 active torsions:
REMARK  status: ('A' for Active; 'I' for Inactive)
REMARK    1  A    between atoms: C_1  and  C_2
REMARK    2  A    between atoms: C_2  and  C_3
REMARK    3  A    between atoms: C_2  and  C_4
REMARK    4  A    between atoms: C_9  and  C_12
REMARK    5  A    between atoms: C_18  and  O_21
REMARK    6  A    between atoms: O_21  and  C_22
REMARK    7  A    between atoms: C_23  and  O_25
REMARK    8  A    between atoms: O_25  and  C_26
REMARK    9  A    between atoms: C_29  and  C_49
REMARK   10  A    between atoms: C_33  and  C_35
REMARK   11  A    between atoms: C_35  and  C_36
REMARK   12  A    between atoms: C_35  and  N_40
REMARK   13  A    between atoms: C_36  and  C_37
REMARK   14  A    between atoms: C_36  and  C_38
REMARK   15  A    between atoms: C_36  and  C_39
REMARK   16  A    between atoms: C_41  and  O_43
REMARK   17  A    between atoms: O_43  and  C_44
REMARK   18  A    between atoms: N_51  and  C_52
REMARK   19  A    between atoms: C_52  and  C_57
REMARK   20  A    between atoms: C_54  and  C_55
REMARK   21  A    between atoms: C_57  and  O_59
REMARK                            x       y       z     vdW  Elec       q    Type
REMARK                         _______ _______ _______ _____ _____    ______ ____
ROOT
ATOM      1  C   UNL     1       7.599   0.235  27.830  0.00  0.00    +0.193 C 
ATOM      2  C   UNL     1       7.619  -1.127  27.087  0.00  0.00    +0.153 C 
ATOM      3  N   UNL     1       7.076  -0.889  25.752  0.00  0.00    -0.285 N 
ATOM      4  C   UNL     1       6.496  -1.818  24.902  0.00  0.00    +0.237 C 
ATOM      5  O   UNL     1       5.897  -1.378  23.913  0.00  0.00    -0.274 OA
ATOM      6  C   UNL     1       6.828   0.546  25.539  0.00  0.00    +0.166 C 
ATOM      7  C   UNL     1       7.565   1.249  26.688  0.00  0.00    +0.078 C 
ENDROOT
BRANCH   6   8
ATOM      8  C   UNL     1       7.360   1.085  24.183  0.00  0.00    +0.235 C 
ATOM      9  N   UNL     1       8.731   1.252  24.122  0.00  0.00    -0.298 N 
ATOM     10  H   UNL     1       9.163   1.540  25.005  0.00  0.00    +0.150 HD
ATOM     11  O   UNL     1       6.642   1.418  23.238  0.00  0.00    -0.274 OA
BRANCH   9  12
ATOM     12  C   UNL     1       9.377   1.743  22.906  0.00  0.00    +0.138 C 
ATOM     13  C   UNL     1       9.529   3.249  22.674  0.00  0.00    +0.048 C 
ATOM     14  C   UNL     1      10.728   2.435  23.057  0.00  0.00    +0.048 C 
BRANCH  12  15
ATOM     15  C   UNL     1       9.199   0.874  21.681  0.00  0.00    +0.329 C 
ATOM     16  O   UNL     1       9.779  -0.193  21.540  0.00  0.00    -0.249 OA
BRANCH  15  17
ATOM     17  O   UNL     1       8.324   1.388  20.785  0.00  0.00    -0.479 OA
ATOM     18  H   UNL     1       7.888   0.668  20.270  0.00  0.00    +0.295 HD
ENDBRANCH  15  17
ENDBRANCH  12  15
BRANCH  13  19
ATOM     19  C   UNL     1       9.004   4.216  23.644  0.00  0.00    -0.028 C 
ATOM     20  C   UNL     1       9.666   5.279  24.112  0.00  0.00    +0.004 C 
ENDBRANCH  13  19
ENDBRANCH   9  12
ENDBRANCH   6   8
BRANCH   1  21
ATOM     21  O   UNL     1       6.441   0.433  28.680  0.00  0.00    -0.486 OA
BRANCH  21  24
ATOM     22  C   UNL     1       3.270  -0.561  27.108  0.00  0.00    +0.094 A 
ATOM     23  C   UNL     1       4.469  -0.663  27.792  0.00  0.00    +0.076 A 
ATOM     24  C   UNL     1       5.206   0.485  28.047  0.00  0.00    +0.132 A 
ATOM     25  C   UNL     1       4.709   1.740  27.599  0.00  0.00    +0.043 A 
ATOM     26  C   UNL     1       5.375   2.970  27.810  0.00  0.00    +0.017 A 
ATOM     27  C   UNL     1       4.876   4.183  27.308  0.00  0.00    +0.047 A 
ATOM     28  C   UNL     1       3.686   4.199  26.590  0.00  0.00    +0.136 A 
ATOM     29  C   UNL     1       2.996   2.986  26.403  0.00  0.00    +0.085 A 
ATOM     30 BR   UNL     1       1.319   3.016  25.464  0.00  0.00    -0.044 Br
ATOM     31  C   UNL     1       3.481   1.756  26.887  0.00  0.00    +0.093 A 
ATOM     32  N   UNL     1       2.781   0.624  26.668  0.00  0.00    -0.244 NA
BRANCH  22  39
ATOM     33  C   UNL     1       3.044  -4.897  24.005  0.00  0.00    +0.221 C 
ATOM     34  N   UNL     1       2.124  -4.795  25.028  0.00  0.00    -0.264 N 
ATOM     35  H   UNL     1       1.396  -5.485  25.150  0.00  0.00    +0.157 HD
ATOM     36  C   UNL     1       2.075  -3.687  25.830  0.00  0.00    +0.165 A 
ATOM     37  S   UNL     1       0.723  -3.592  26.864  0.00  0.00    -0.060 S 
ATOM     38  C   UNL     1       1.287  -2.070  27.435  0.00  0.00    +0.078 A 
ATOM     39  C   UNL     1       2.492  -1.765  26.833  0.00  0.00    +0.098 A 
ATOM     40  N   UNL     1       2.932  -2.704  25.910  0.00  0.00    -0.223 NA
ATOM     41  O   UNL     1       3.855  -4.030  23.686  0.00  0.00    -0.275 OA
BRANCH  33  43
ATOM     42  C   UNL     1       3.272  -7.394  24.216  0.00  0.00    +0.017 C 
ATOM     43  C   UNL     1       2.978  -6.236  23.259  0.00  0.00    +0.069 C 
ATOM     44  C   UNL     1       1.603  -6.425  22.621  0.00  0.00    +0.017 C 
ENDBRANCH  33  43
ENDBRANCH  22  39
BRANCH  28  45
ATOM     45  O   UNL     1       3.160   5.320  26.005  0.00  0.00    -0.494 OA
ATOM     46  C   UNL     1       3.829   5.850  24.867  0.00  0.00    +0.277 C 
ENDBRANCH  28  45
ENDBRANCH  21  24
ENDBRANCH   1  21
BRANCH   4  47
ATOM     47  C   UNL     1       6.687  -3.376  25.107  0.00  0.00    +0.168 C 
BRANCH  47  48
ATOM     48  N   UNL     1       6.649  -3.706  26.546  0.00  0.00    -0.269 N 
ATOM     49  H   UNL     1       7.241  -3.186  27.181  0.00  0.00    +0.153 HD
ATOM     50  C   UNL     1       6.151  -4.886  27.042  0.00  0.00    +0.401 C 
ATOM     51  O   UNL     1       5.537  -5.713  26.385  0.00  0.00    -0.226 OA
BRANCH  50  52
ATOM     52  O   UNL     1       6.482  -5.033  28.356  0.00  0.00    -0.447 OA
BRANCH  52  53
ATOM     53  C   UNL     1       5.382  -5.161  29.281  0.00  0.00    +0.178 C 
ATOM     54  C   UNL     1       4.718  -6.541  29.150  0.00  0.00    +0.045 C 
ATOM     55  C   UNL     1       3.211  -6.329  29.322  0.00  0.00    +0.004 C 
ATOM     56  C   UNL     1       3.027  -4.846  29.613  0.00  0.00    +0.004 C 
ATOM     57  C   UNL     1       4.242  -4.189  28.976  0.00  0.00    +0.045 C 
ENDBRANCH  52  53
ENDBRANCH  50  52
ENDBRANCH  47  48
BRANCH  47  58
ATOM     58  C   UNL     1       8.033  -3.896  24.432  0.00  0.00    -0.011 C 
ATOM     59  C   UNL     1       9.075  -4.241  25.521  0.00  0.00    +0.013 C 
ATOM     60  C   UNL     1       8.681  -2.812  23.538  0.00  0.00    +0.013 C 
ATOM     61  C   UNL     1       7.828  -5.134  23.528  0.00  0.00    +0.013 C 
ENDBRANCH  47  58
ENDBRANCH   4  47
TORSDOF 15
ENDMDL
MODEL 8
REMARK VINA RESULT:      -5.3      3.470      8.050
REMARK  Name = 
REMARK  21 active torsions:
REMARK  status: ('A' for Active; 'I' for Inactive)
REMARK    1  A    between atoms: C_1  and  C_2
REMARK    2  A    between atoms: C_2  and  C_3
REMARK    3  A    between atoms: C_2  and  C_4
REMARK    4  A    between atoms: C_9  and  C_12
REMARK    5  A    between atoms: C_18  and  O_21
REMARK    6  A    between atoms: O_21  and  C_22
REMARK    7  A    between atoms: C_23  and  O_25
REMARK    8  A    between atoms: O_25  and  C_26
REMARK    9  A    between atoms: C_29  and  C_49
REMARK   10  A    between atoms: C_33  and  C_35
REMARK   11  A    between atoms: C_35  and  C_36
REMARK   12  A    between atoms: C_35  and  N_40
REMARK   13  A    between atoms: C_36  and  C_37
REMARK   14  A    between atoms: C_36  and  C_38
REMARK   15  A    between atoms: C_36  and  C_39
REMARK   16  A    between atoms: C_41  and  O_43
REMARK   17  A    between atoms: O_43  and  C_44
REMARK   18  A    between atoms: N_51  and  C_52
REMARK   19  A    between atoms: C_52  and  C_57
REMARK   20  A    between atoms: C_54  and  C_55
REMARK   21  A    between atoms: C_57  and  O_59
REMARK                            x       y       z     vdW  Elec       q    Type
REMARK                         _______ _______ _______ _____ _____    ______ ____
ROOT
ATOM      1  C   UNL     1       7.220  -0.420  23.857  0.00  0.00    +0.193 C 
ATOM      2  C   UNL     1       6.021   0.566  23.881  0.00  0.00    +0.153 C 
ATOM      3  N   UNL     1       6.553   1.868  24.276  0.00  0.00    -0.285 N 
ATOM      4  C   UNL     1       5.858   2.922  24.849  0.00  0.00    +0.237 C 
ATOM      5  O   UNL     1       6.529   3.851  25.315  0.00  0.00    -0.274 OA
ATOM      6  C   UNL     1       8.020   1.821  24.382  0.00  0.00    +0.166 C 
ATOM      7  C   UNL     1       8.424   0.507  23.699  0.00  0.00    +0.078 C 
ENDROOT
BRANCH   6   8
ATOM      8  C   UNL     1       8.743   3.005  23.683  0.00  0.00    +0.235 C 
ATOM      9  N   UNL     1       9.287   3.943  24.541  0.00  0.00    -0.298 N 
ATOM     10  H   UNL     1       8.749   4.092  25.401  0.00  0.00    +0.150 HD
ATOM     11  O   UNL     1       8.787   3.169  22.462  0.00  0.00    -0.274 OA
BRANCH   9  12
ATOM     12  C   UNL     1      10.005   5.107  24.028  0.00  0.00    +0.138 C 
ATOM     13  C   UNL     1       9.236   6.245  23.349  0.00  0.00    +0.048 C 
ATOM     14  C   UNL     1       9.778   6.442  24.733  0.00  0.00    +0.048 C 
BRANCH  12  15
ATOM     15  C   UNL     1      11.409   4.837  23.534  0.00  0.00    +0.329 C 
ATOM     16  O   UNL     1      12.389   5.411  23.986  0.00  0.00    -0.249 OA
BRANCH  15  17
ATOM     17  O   UNL     1      11.461   3.890  22.568  0.00  0.00    -0.479 OA
ATOM     18  H   UNL     1      11.651   3.004  22.957  0.00  0.00    +0.295 HD
ENDBRANCH  15  17
ENDBRANCH  12  15
BRANCH  13  19
ATOM     19  C   UNL     1       7.782   6.169  23.174  0.00  0.00    -0.028 C 
ATOM     20  C   UNL     1       7.140   6.217  22.002  0.00  0.00    +0.004 C 
ENDBRANCH  13  19
ENDBRANCH   9  12
ENDBRANCH   6   8
BRANCH   1  21
ATOM     21  O   UNL     1       7.373  -1.201  25.067  0.00  0.00    -0.486 OA
BRANCH  21  24
ATOM     22  C   UNL     1       4.100  -1.767  26.642  0.00  0.00    +0.094 A 
ATOM     23  C   UNL     1       5.144  -1.880  25.742  0.00  0.00    +0.076 A 
ATOM     24  C   UNL     1       6.316  -1.169  25.968  0.00  0.00    +0.132 A 
ATOM     25  C   UNL     1       6.413  -0.344  27.121  0.00  0.00    +0.043 A 
ATOM     26  C   UNL     1       7.560   0.416  27.450  0.00  0.00    +0.017 A 
ATOM     27  C   UNL     1       7.599   1.258  28.573  0.00  0.00    +0.047 A 
ATOM     28  C   UNL     1       6.491   1.352  29.408  0.00  0.00    +0.136 A 
ATOM     29  C   UNL     1       5.356   0.574  29.111  0.00  0.00    +0.085 A 
ATOM     30 BR   UNL     1       3.847   0.656  30.299  0.00  0.00    -0.044 Br
ATOM     31  C   UNL     1       5.289  -0.269  27.985  0.00  0.00    +0.093 A 
ATOM     32  N   UNL     1       4.170  -0.983  27.745  0.00  0.00    -0.244 NA
BRANCH  22  39
ATOM     33  C   UNL     1       2.052  -5.974  24.077  0.00  0.00    +0.221 C 
ATOM     34  N   UNL     1       1.225  -5.291  24.944  0.00  0.00    -0.264 N 
ATOM     35  H   UNL     1       0.251  -5.540  25.046  0.00  0.00    +0.157 HD
ATOM     36  C   UNL     1       1.654  -4.166  25.594  0.00  0.00    +0.165 A 
ATOM     37  S   UNL     1       0.443  -3.289  26.414  0.00  0.00    -0.060 S 
ATOM     38  C   UNL     1       1.621  -2.122  26.872  0.00  0.00    +0.078 A 
ATOM     39  C   UNL     1       2.864  -2.509  26.409  0.00  0.00    +0.098 A 
ATOM     40  N   UNL     1       2.867  -3.686  25.674  0.00  0.00    -0.223 NA
ATOM     41  O   UNL     1       3.196  -5.643  23.771  0.00  0.00    -0.275 OA
BRANCH  33  43
ATOM     42  C   UNL     1       1.562  -7.260  21.970  0.00  0.00    +0.017 C 
ATOM     43  C   UNL     1       1.410  -7.240  23.493  0.00  0.00    +0.069 C 
ATOM     44  C   UNL     1       2.050  -8.490  24.096  0.00  0.00    +0.017 C 
ENDBRANCH  33  43
ENDBRANCH  22  39
BRANCH  28  45
ATOM     45  O   UNL     1       6.413   2.197  30.483  0.00  0.00    -0.494 OA
ATOM     46  C   UNL     1       7.094   3.443  30.399  0.00  0.00    +0.277 C 
ENDBRANCH  28  45
ENDBRANCH  21  24
ENDBRANCH   1  21
BRANCH   4  47
ATOM     47  C   UNL     1       4.277   3.004  24.809  0.00  0.00    +0.168 C 
BRANCH  47  48
ATOM     48  N   UNL     1       3.849   4.066  23.875  0.00  0.00    -0.269 N 
ATOM     49  H   UNL     1       3.205   4.773  24.204  0.00  0.00    +0.153 HD
ATOM     50  C   UNL     1       3.971   3.971  22.511  0.00  0.00    +0.401 C 
ATOM     51  O   UNL     1       4.588   3.095  21.926  0.00  0.00    -0.226 OA
BRANCH  50  52
ATOM     52  O   UNL     1       3.263   4.961  21.896  0.00  0.00    -0.447 OA
BRANCH  52  53
ATOM     53  C   UNL     1       1.953   4.603  21.409  0.00  0.00    +0.178 C 
ATOM     54  C   UNL     1       1.223   3.705  22.420  0.00  0.00    +0.045 C 
ATOM     55  C   UNL     1       0.443   2.664  21.609  0.00  0.00    +0.004 C 
ATOM     56  C   UNL     1       0.677   3.011  20.146  0.00  0.00    +0.004 C 
ATOM     57  C   UNL     1       2.012   3.742  20.147  0.00  0.00    +0.045 C 
ENDBRANCH  52  53
ENDBRANCH  50  52
ENDBRANCH  47  48
BRANCH  47  58
ATOM     58  C   UNL     1       3.664   3.234  26.262  0.00  0.00    -0.011 C 
ATOM     59  C   UNL     1       2.840   1.999  26.692  0.00  0.00    +0.013 C 
ATOM     60  C   UNL     1       2.691   4.437  26.288  0.00  0.00    +0.013 C 
ATOM     61  C   UNL     1       4.734   3.521  27.340  0.00  0.00    +0.013 C 
ENDBRANCH  47  58
ENDBRANCH   4  47
TORSDOF 15
ENDMDL
MODEL 9
REMARK VINA RESULT:      -5.2      3.314      8.611
REMARK  Name = 
REMARK  21 active torsions:
REMARK  status: ('A' for Active; 'I' for Inactive)
REMARK    1  A    between atoms: C_1  and  C_2
REMARK    2  A    between atoms: C_2  and  C_3
REMARK    3  A    between atoms: C_2  and  C_4
REMARK    4  A    between atoms: C_9  and  C_12
REMARK    5  A    between atoms: C_18  and  O_21
REMARK    6  A    between atoms: O_21  and  C_22
REMARK    7  A    between atoms: C_23  and  O_25
REMARK    8  A    between atoms: O_25  and  C_26
REMARK    9  A    between atoms: C_29  and  C_49
REMARK   10  A    between atoms: C_33  and  C_35
REMARK   11  A    between atoms: C_35  and  C_36
REMARK   12  A    between atoms: C_35  and  N_40
REMARK   13  A    between atoms: C_36  and  C_37
REMARK   14  A    between atoms: C_36  and  C_38
REMARK   15  A    between atoms: C_36  and  C_39
REMARK   16  A    between atoms: C_41  and  O_43
REMARK   17  A    between atoms: O_43  and  C_44
REMARK   18  A    between atoms: N_51  and  C_52
REMARK   19  A    between atoms: C_52  and  C_57
REMARK   20  A    between atoms: C_54  and  C_55
REMARK   21  A    between atoms: C_57  and  O_59
REMARK                            x       y       z     vdW  Elec       q    Type
REMARK                         _______ _______ _______ _____ _____    ______ ____
ROOT
ATOM      1  C   UNL     1       5.089   0.613  25.467  0.00  0.00    +0.193 C 
ATOM      2  C   UNL     1       6.343   0.568  24.553  0.00  0.00    +0.153 C 
ATOM      3  N   UNL     1       7.262  -0.402  25.143  0.00  0.00    -0.285 N 
ATOM      4  C   UNL     1       8.635  -0.475  24.966  0.00  0.00    +0.237 C 
ATOM      5  O   UNL     1       9.260  -1.226  25.726  0.00  0.00    -0.274 OA
ATOM      6  C   UNL     1       6.640  -1.076  26.293  0.00  0.00    +0.166 C 
ATOM      7  C   UNL     1       5.148  -0.729  26.195  0.00  0.00    +0.078 C 
ENDROOT
BRANCH   6   8
ATOM      8  C   UNL     1       6.807  -2.620  26.288  0.00  0.00    +0.235 C 
ATOM      9  N   UNL     1       7.262  -3.152  25.095  0.00  0.00    -0.298 N 
ATOM     10  H   UNL     1       6.934  -2.658  24.260  0.00  0.00    +0.150 HD
ATOM     11  O   UNL     1       6.501  -3.356  27.229  0.00  0.00    -0.274 OA
BRANCH   9  12
ATOM     12  C   UNL     1       7.477  -4.589  24.944  0.00  0.00    +0.138 C 
ATOM     13  C   UNL     1       6.327  -5.492  24.488  0.00  0.00    +0.048 C 
ATOM     14  C   UNL     1       7.433  -5.163  23.531  0.00  0.00    +0.048 C 
BRANCH  12  15
ATOM     15  C   UNL     1       8.494  -5.195  25.886  0.00  0.00    +0.329 C 
ATOM     16  O   UNL     1       9.697  -5.018  25.759  0.00  0.00    -0.249 OA
BRANCH  15  17
ATOM     17  O   UNL     1       7.934  -5.924  26.879  0.00  0.00    -0.479 OA
ATOM     18  H   UNL     1       8.626  -6.403  27.394  0.00  0.00    +0.295 HD
ENDBRANCH  15  17
ENDBRANCH  12  15
BRANCH  13  19
ATOM     19  C   UNL     1       4.994  -4.939  24.230  0.00  0.00    -0.028 C 
ATOM     20  C   UNL     1       4.168  -5.333  23.254  0.00  0.00    +0.004 C 
ENDBRANCH  13  19
ENDBRANCH   9  12
ENDBRANCH   6   8
BRANCH   1  21
ATOM     21  O   UNL     1       5.100   1.687  26.440  0.00  0.00    -0.486 OA
BRANCH  21  24
ATOM     22  C   UNL     1       2.423   0.582  28.704  0.00  0.00    +0.094 A 
ATOM     23  C   UNL     1       3.484   0.516  27.819  0.00  0.00    +0.076 A 
ATOM     24  C   UNL     1       4.071   1.693  27.372  0.00  0.00    +0.132 A 
ATOM     25  C   UNL     1       3.566   2.938  27.838  0.00  0.00    +0.043 A 
ATOM     26  C   UNL     1       4.091   4.194  27.453  0.00  0.00    +0.017 A 
ATOM     27  C   UNL     1       3.533   5.403  27.897  0.00  0.00    +0.047 A 
ATOM     28  C   UNL     1       2.437   5.388  28.753  0.00  0.00    +0.136 A 
ATOM     29  C   UNL     1       1.926   4.144  29.171  0.00  0.00    +0.085 A 
ATOM     30 BR   UNL     1       0.451   4.123  30.402  0.00  0.00    -0.044 Br
ATOM     31  C   UNL     1       2.462   2.919  28.731  0.00  0.00    +0.093 A 
ATOM     32  N   UNL     1       1.924   1.758  29.157  0.00  0.00    -0.244 NA
BRANCH  22  39
ATOM     33  C   UNL     1       1.913  -4.626  27.660  0.00  0.00    +0.221 C 
ATOM     34  N   UNL     1       1.363  -4.153  28.833  0.00  0.00    -0.264 N 
ATOM     35  H   UNL     1       0.831  -4.758  29.444  0.00  0.00    +0.157 HD
ATOM     36  C   UNL     1       1.396  -2.821  29.146  0.00  0.00    +0.165 A 
ATOM     37  S   UNL     1       0.446  -2.361  30.485  0.00  0.00    -0.060 S 
ATOM     38  C   UNL     1       0.913  -0.724  30.232  0.00  0.00    +0.078 A 
ATOM     39  C   UNL     1       1.799  -0.651  29.175  0.00  0.00    +0.098 A 
ATOM     40  N   UNL     1       2.066  -1.865  28.558  0.00  0.00    -0.223 NA
ATOM     41  O   UNL     1       2.432  -3.935  26.786  0.00  0.00    -0.275 OA
BRANCH  33  43
ATOM     42  C   UNL     1       2.978  -6.671  26.652  0.00  0.00    +0.017 C 
ATOM     43  C   UNL     1       1.828  -6.152  27.518  0.00  0.00    +0.069 C 
ATOM     44  C   UNL     1       1.870  -6.818  28.892  0.00  0.00    +0.017 C 
ENDBRANCH  33  43
ENDBRANCH  22  39
BRANCH  28  45
ATOM     45  O   UNL     1       1.784   6.514  29.180  0.00  0.00    -0.494 OA
ATOM     46  C   UNL     1       0.818   7.091  28.311  0.00  0.00    +0.277 C 
ENDBRANCH  28  45
ENDBRANCH  21  24
ENDBRANCH   1  21
BRANCH   4  47
ATOM     47  C   UNL     1       9.368   0.267  23.775  0.00  0.00    +0.168 C 
BRANCH  47  48
ATOM     48  N   UNL     1       8.747   1.586  23.541  0.00  0.00    -0.269 N 
ATOM     49  H   UNL     1       7.837   1.625  23.102  0.00  0.00    +0.153 HD
ATOM     50  C   UNL     1       9.449   2.767  23.542  0.00  0.00    +0.401 C 
ATOM     51  O   UNL     1      10.611   2.885  23.898  0.00  0.00    -0.226 OA
BRANCH  50  52
ATOM     52  O   UNL     1       8.685   3.780  23.042  0.00  0.00    -0.447 OA
BRANCH  52  53
ATOM     53  C   UNL     1       7.376   3.941  23.626  0.00  0.00    +0.178 C 
ATOM     54  C   UNL     1       6.309   4.109  22.533  0.00  0.00    +0.045 C 
ATOM     55  C   UNL     1       5.300   5.139  23.050  0.00  0.00    +0.004 C 
ATOM     56  C   UNL     1       5.756   5.504  24.456  0.00  0.00    +0.004 C 
ATOM     57  C   UNL     1       7.252   5.226  24.444  0.00  0.00    +0.045 C 
ENDBRANCH  52  53
ENDBRANCH  50  52
ENDBRANCH  47  48
BRANCH  47  58
ATOM     58  C   UNL     1       9.368  -0.613  22.447  0.00  0.00    -0.011 C 
ATOM     59  C   UNL     1       9.331   0.302  21.202  0.00  0.00    +0.013 C 
ATOM     60  C   UNL     1       8.114  -1.517  22.359  0.00  0.00    +0.013 C 
ATOM     61  C   UNL     1      10.588  -1.557  22.336  0.00  0.00    +0.013 C 
ENDBRANCH  47  58
ENDBRANCH   4  47
TORSDOF 15
ENDMDL
