MODEL 1
REMARK VINA RESULT:      -6.9      0.000      0.000
REMARK  Name = 
REMARK  16 active torsions:
REMARK  status: ('A' for Active; 'I' for Inactive)
REMARK    1  A    between atoms: C_1  and  C_2
REMARK    2  A    between atoms: C_2  and  C_3
REMARK    3  A    between atoms: C_2  and  C_4
REMARK    4  A    between atoms: C_4  and  N_5
REMARK    5  A    between atoms: N_5  and  C_6
REMARK    6  A    between atoms: N_5  and  S_34
REMARK    7  A    between atoms: C_6  and  C_7
REMARK    8  A    between atoms: C_7  and  C_9
REMARK    9  A    between atoms: C_7  and  O_33
REMARK   10  A    between atoms: C_9  and  C_11
REMARK   11  A    between atoms: C_9  and  N_18
REMARK   12  A    between atoms: C_11  and  C_12
REMARK   13  A    between atoms: C_19  and  O_21
REMARK   14  A    between atoms: O_21  and  C_22
REMARK   15  A    between atoms: S_34  and  C_37
REMARK   16  A    between atoms: C_40  and  N_43
REMARK                            x       y       z     vdW  Elec       q    Type
REMARK                         _______ _______ _______ _____ _____    ______ ____
ROOT
ATOM      1  C   UNL     1       7.891  -4.704  26.953  0.00  0.00    +0.151 C 
ENDROOT
BRANCH   1   2
ATOM      2  O   UNL     1       8.306  -6.063  26.716  0.00  0.00    -0.389 OA
ATOM      3  H   UNL     1       9.171  -6.052  26.274  0.00  0.00    +0.210 HD
ENDBRANCH   1   2
BRANCH   1   4
ATOM      4  C   UNL     1       6.573  -4.783  27.730  0.00  0.00    +0.142 C 
BRANCH   4   5
ATOM      5  N   UNL     1       5.194  -4.575  27.105  0.00  0.00    -0.174 NA
BRANCH   5   6
ATOM      6  S   UNL     1       4.414  -6.202  27.302  0.00  0.00    +0.061 S 
ATOM      7  O   UNL     1       3.423  -6.051  28.351  0.00  0.00    -0.153 OA
ATOM      8  O   UNL     1       5.484  -7.173  27.436  0.00  0.00    -0.153 OA
BRANCH   6   9
ATOM      9  C   UNL     1       3.547  -6.564  25.801  0.00  0.00    +0.106 A 
ATOM     10  C   UNL     1       4.000  -6.008  24.601  0.00  0.00    +0.030 A 
ATOM     11  C   UNL     1       3.361  -6.332  23.404  0.00  0.00    +0.024 A 
ATOM     12  C   UNL     1       2.234  -7.156  23.399  0.00  0.00    +0.025 A 
ATOM     13  C   UNL     1       1.731  -7.619  24.621  0.00  0.00    +0.024 A 
ATOM     14  C   UNL     1       2.366  -7.304  25.828  0.00  0.00    +0.030 A 
BRANCH  12  15
ATOM     15  N   UNL     1       1.787  -7.715  22.200  0.00  0.00    -0.358 N 
ATOM     16  H   UNL     1       2.253  -8.570  21.919  0.00  0.00    +0.142 HD
ATOM     17  H   UNL     1       1.651  -7.061  21.437  0.00  0.00    +0.142 HD
ENDBRANCH  12  15
ENDBRANCH   6   9
ENDBRANCH   5   6
BRANCH   5  18
ATOM     18  C   UNL     1       4.320  -3.477  27.694  0.00  0.00    +0.112 C 
BRANCH  18  20
ATOM     19  C   UNL     1       4.291  -2.513  25.320  0.00  0.00    +0.008 C 
ATOM     20  C   UNL     1       3.558  -2.618  26.659  0.00  0.00    -0.001 C 
ATOM     21  C   UNL     1       2.142  -3.140  26.370  0.00  0.00    +0.008 C 
ENDBRANCH  18  20
ENDBRANCH   5  18
ENDBRANCH   4   5
ENDBRANCH   1   4
BRANCH   1  22
ATOM     22  C   UNL     1       7.951  -3.930  25.608  0.00  0.00    +0.110 C 
BRANCH  22  23
ATOM     23  N   UNL     1       8.683  -2.663  25.836  0.00  0.00    -0.275 N 
ATOM     24  H   UNL     1       9.604  -2.578  25.424  0.00  0.00    +0.152 HD
ATOM     25  C   UNL     1       8.181  -1.512  26.332  0.00  0.00    +0.401 C 
ATOM     26  O   UNL     1       7.115  -1.372  26.909  0.00  0.00    -0.226 OA
BRANCH  25  27
ATOM     27  O   UNL     1       9.047  -0.499  26.075  0.00  0.00    -0.444 OA
BRANCH  27  28
ATOM     28  C   UNL     1       8.901   0.136  24.784  0.00  0.00    +0.212 C 
ATOM     29  C   UNL     1      10.165  -0.109  23.960  0.00  0.00    +0.090 C 
ATOM     30  C   UNL     1       9.986  -1.046  22.780  0.00  0.00    +0.040 C 
ATOM     31  C   UNL     1       9.696  -0.139  21.596  0.00  0.00    +0.163 C 
ATOM     32  O   UNL     1       9.676   1.205  22.079  0.00  0.00    -0.351 OA
ATOM     33  C   UNL     1      10.410   1.227  23.304  0.00  0.00    +0.257 C 
ATOM     34  O   UNL     1       9.927   2.222  24.190  0.00  0.00    -0.347 OA
ATOM     35  C   UNL     1       8.821   1.658  24.907  0.00  0.00    +0.208 C 
ENDBRANCH  27  28
ENDBRANCH  25  27
ENDBRANCH  22  23
BRANCH  22  36
ATOM     36  C   UNL     1       8.422  -4.715  24.339  0.00  0.00    +0.060 C 
BRANCH  36  37
ATOM     37  C   UNL     1       7.282  -4.766  23.320  0.00  0.00    -0.046 A 
ATOM     38  C   UNL     1       6.586  -3.610  22.940  0.00  0.00    +0.004 A 
ATOM     39  C   UNL     1       5.955  -3.557  21.694  0.00  0.00    +0.000 A 
ATOM     40  C   UNL     1       6.071  -4.631  20.812  0.00  0.00    +0.000 A 
ATOM     41  C   UNL     1       6.625  -5.829  21.255  0.00  0.00    +0.000 A 
ATOM     42  C   UNL     1       7.132  -5.924  22.549  0.00  0.00    +0.004 A 
ENDBRANCH  36  37
ENDBRANCH  22  36
ENDBRANCH   1  22
TORSDOF 14
ENDMDL
MODEL 2
REMARK VINA RESULT:      -6.9      3.111      7.062
REMARK  Name = 
REMARK  16 active torsions:
REMARK  status: ('A' for Active; 'I' for Inactive)
REMARK    1  A    between atoms: C_1  and  C_2
REMARK    2  A    between atoms: C_2  and  C_3
REMARK    3  A    between atoms: C_2  and  C_4
REMARK    4  A    between atoms: C_4  and  N_5
REMARK    5  A    between atoms: N_5  and  C_6
REMARK    6  A    between atoms: N_5  and  S_34
REMARK    7  A    between atoms: C_6  and  C_7
REMARK    8  A    between atoms: C_7  and  C_9
REMARK    9  A    between atoms: C_7  and  O_33
REMARK   10  A    between atoms: C_9  and  C_11
REMARK   11  A    between atoms: C_9  and  N_18
REMARK   12  A    between atoms: C_11  and  C_12
REMARK   13  A    between atoms: C_19  and  O_21
REMARK   14  A    between atoms: O_21  and  C_22
REMARK   15  A    between atoms: S_34  and  C_37
REMARK   16  A    between atoms: C_40  and  N_43
REMARK                            x       y       z     vdW  Elec       q    Type
REMARK                         _______ _______ _______ _____ _____    ______ ____
ROOT
ATOM      1  C   UNL     1       9.499   1.099  24.963  0.00  0.00    +0.151 C 
ENDROOT
BRANCH   1   2
ATOM      2  O   UNL     1      10.078   0.014  25.714  0.00  0.00    -0.389 OA
ATOM      3  H   UNL     1      10.078   0.252  26.656  0.00  0.00    +0.210 HD
ENDBRANCH   1   2
BRANCH   1   4
ATOM      4  C   UNL     1       8.040   1.209  25.418  0.00  0.00    +0.142 C 
BRANCH   4   5
ATOM      5  N   UNL     1       6.896   0.372  24.846  0.00  0.00    -0.174 NA
BRANCH   5   6
ATOM      6  S   UNL     1       6.085  -0.272  26.337  0.00  0.00    +0.061 S 
ATOM      7  O   UNL     1       4.660  -0.241  26.067  0.00  0.00    -0.153 OA
ATOM      8  O   UNL     1       6.635   0.454  27.467  0.00  0.00    -0.153 OA
BRANCH   6   9
ATOM      9  C   UNL     1       6.556  -1.970  26.510  0.00  0.00    +0.106 A 
ATOM     10  C   UNL     1       7.895  -2.328  26.328  0.00  0.00    +0.030 A 
ATOM     11  C   UNL     1       8.289  -3.653  26.520  0.00  0.00    +0.024 A 
ATOM     12  C   UNL     1       7.348  -4.638  26.829  0.00  0.00    +0.025 A 
ATOM     13  C   UNL     1       5.996  -4.280  26.903  0.00  0.00    +0.024 A 
ATOM     14  C   UNL     1       5.590  -2.953  26.718  0.00  0.00    +0.030 A 
BRANCH  12  15
ATOM     15  N   UNL     1       7.773  -5.878  27.309  0.00  0.00    -0.358 N 
ATOM     16  H   UNL     1       7.516  -6.084  28.268  0.00  0.00    +0.142 HD
ATOM     17  H   UNL     1       8.730  -6.129  27.086  0.00  0.00    +0.142 HD
ENDBRANCH  12  15
ENDBRANCH   6   9
ENDBRANCH   5   6
BRANCH   5  18
ATOM     18  C   UNL     1       5.895   1.081  23.945  0.00  0.00    +0.112 C 
BRANCH  18  20
ATOM     19  C   UNL     1       6.079   3.108  22.390  0.00  0.00    +0.008 C 
ATOM     20  C   UNL     1       6.079   2.612  23.836  0.00  0.00    -0.001 C 
ATOM     21  C   UNL     1       5.000   3.402  24.595  0.00  0.00    +0.008 C 
ENDBRANCH  18  20
ENDBRANCH   5  18
ENDBRANCH   4   5
ENDBRANCH   1   4
BRANCH   1  22
ATOM     22  C   UNL     1       9.826   0.886  23.460  0.00  0.00    +0.110 C 
BRANCH  22  23
ATOM     23  N   UNL     1       8.998  -0.236  22.962  0.00  0.00    -0.275 N 
ATOM     24  H   UNL     1       8.187  -0.002  22.402  0.00  0.00    +0.152 HD
ATOM     25  C   UNL     1       9.319  -1.547  22.963  0.00  0.00    +0.401 C 
ATOM     26  O   UNL     1      10.224  -2.074  23.591  0.00  0.00    -0.226 OA
BRANCH  25  27
ATOM     27  O   UNL     1       8.479  -2.215  22.132  0.00  0.00    -0.444 OA
BRANCH  27  28
ATOM     28  C   UNL     1       7.401  -2.932  22.776  0.00  0.00    +0.212 C 
ATOM     29  C   UNL     1       7.283  -4.323  22.154  0.00  0.00    +0.090 C 
ATOM     30  C   UNL     1       7.701  -5.466  23.060  0.00  0.00    +0.040 C 
ATOM     31  C   UNL     1       6.416  -5.932  23.724  0.00  0.00    +0.163 C 
ATOM     32  O   UNL     1       5.360  -5.091  23.256  0.00  0.00    -0.351 OA
ATOM     33  C   UNL     1       5.793  -4.514  22.024  0.00  0.00    +0.257 C 
ATOM     34  O   UNL     1       5.224  -3.233  21.814  0.00  0.00    -0.347 OA
ATOM     35  C   UNL     1       6.045  -2.281  22.505  0.00  0.00    +0.208 C 
ENDBRANCH  27  28
ENDBRANCH  25  27
ENDBRANCH  22  23
BRANCH  22  36
ATOM     36  C   UNL     1       9.817   2.144  22.529  0.00  0.00    +0.060 C 
BRANCH  36  37
ATOM     37  C   UNL     1      10.294   3.365  23.319  0.00  0.00    -0.046 A 
ATOM     38  C   UNL     1      11.644   3.741  23.340  0.00  0.00    +0.004 A 
ATOM     39  C   UNL     1      11.989   5.072  23.588  0.00  0.00    +0.000 A 
ATOM     40  C   UNL     1      10.989   6.029  23.755  0.00  0.00    +0.000 A 
ATOM     41  C   UNL     1       9.664   5.623  23.889  0.00  0.00    +0.000 A 
ATOM     42  C   UNL     1       9.335   4.275  23.778  0.00  0.00    +0.004 A 
ENDBRANCH  36  37
ENDBRANCH  22  36
ENDBRANCH   1  22
TORSDOF 14
ENDMDL
MODEL 3
REMARK VINA RESULT:      -6.6      3.386      7.464
REMARK  Name = 
REMARK  16 active torsions:
REMARK  status: ('A' for Active; 'I' for Inactive)
REMARK    1  A    between atoms: C_1  and  C_2
REMARK    2  A    between atoms: C_2  and  C_3
REMARK    3  A    between atoms: C_2  and  C_4
REMARK    4  A    between atoms: C_4  and  N_5
REMARK    5  A    between atoms: N_5  and  C_6
REMARK    6  A    between atoms: N_5  and  S_34
REMARK    7  A    between atoms: C_6  and  C_7
REMARK    8  A    between atoms: C_7  and  C_9
REMARK    9  A    between atoms: C_7  and  O_33
REMARK   10  A    between atoms: C_9  and  C_11
REMARK   11  A    between atoms: C_9  and  N_18
REMARK   12  A    between atoms: C_11  and  C_12
REMARK   13  A    between atoms: C_19  and  O_21
REMARK   14  A    between atoms: O_21  and  C_22
REMARK   15  A    between atoms: S_34  and  C_37
REMARK   16  A    between atoms: C_40  and  N_43
REMARK                            x       y       z     vdW  Elec       q    Type
REMARK                         _______ _______ _______ _____ _____    ______ ____
ROOT
ATOM      1  C   UNL     1       8.696  -0.803  26.096  0.00  0.00    +0.151 C 
ENDROOT
BRANCH   1   2
ATOM      2  O   UNL     1       9.232  -0.746  27.432  0.00  0.00    -0.389 OA
ATOM      3  H   UNL     1       8.688  -0.136  27.960  0.00  0.00    +0.210 HD
ENDBRANCH   1   2
BRANCH   1   4
ATOM      4  C   UNL     1       7.176  -0.663  26.234  0.00  0.00    +0.142 C 
BRANCH   4   5
ATOM      5  N   UNL     1       6.463   0.636  26.606  0.00  0.00    -0.174 NA
BRANCH   5   6
ATOM      6  S   UNL     1       5.797   1.198  25.013  0.00  0.00    +0.061 S 
ATOM      7  O   UNL     1       4.462   1.696  25.287  0.00  0.00    -0.153 OA
ATOM      8  O   UNL     1       5.999   0.120  24.064  0.00  0.00    -0.153 OA
BRANCH   6   9
ATOM      9  C   UNL     1       6.776   2.573  24.480  0.00  0.00    +0.106 A 
ATOM     10  C   UNL     1       7.744   3.097  25.342  0.00  0.00    +0.030 A 
ATOM     11  C   UNL     1       8.562   4.142  24.911  0.00  0.00    +0.024 A 
ATOM     12  C   UNL     1       8.381   4.713  23.649  0.00  0.00    +0.025 A 
ATOM     13  C   UNL     1       7.339   4.246  22.840  0.00  0.00    +0.024 A 
ATOM     14  C   UNL     1       6.515   3.195  23.260  0.00  0.00    +0.030 A 
BRANCH  12  15
ATOM     15  N   UNL     1       9.374   5.535  23.111  0.00  0.00    -0.358 N 
ATOM     16  H   UNL     1       9.584   6.370  23.647  0.00  0.00    +0.142 HD
ATOM     17  H   UNL     1       9.308   5.703  22.113  0.00  0.00    +0.142 HD
ENDBRANCH  12  15
ENDBRANCH   6   9
ENDBRANCH   5   6
BRANCH   5  18
ATOM     18  C   UNL     1       5.366   0.555  27.657  0.00  0.00    +0.112 C 
BRANCH  18  20
ATOM     19  C   UNL     1       6.968   1.452  29.444  0.00  0.00    +0.008 C 
ATOM     20  C   UNL     1       5.550   1.492  28.872  0.00  0.00    -0.001 C 
ATOM     21  C   UNL     1       5.222   2.960  28.554  0.00  0.00    +0.008 C 
ENDBRANCH  18  20
ENDBRANCH   5  18
ENDBRANCH   4   5
ENDBRANCH   1   4
BRANCH   1  22
ATOM     22  C   UNL     1       9.297  -2.042  25.379  0.00  0.00    +0.110 C 
BRANCH  22  23
ATOM     23  N   UNL     1       8.382  -3.187  25.590  0.00  0.00    -0.275 N 
ATOM     24  H   UNL     1       7.422  -2.976  25.833  0.00  0.00    +0.152 HD
ATOM     25  C   UNL     1       8.608  -4.479  25.270  0.00  0.00    +0.401 C 
ATOM     26  O   UNL     1       9.684  -4.979  24.983  0.00  0.00    -0.226 OA
BRANCH  25  27
ATOM     27  O   UNL     1       7.434  -5.159  25.296  0.00  0.00    -0.444 OA
BRANCH  27  28
ATOM     28  C   UNL     1       6.569  -4.955  24.155  0.00  0.00    +0.212 C 
ATOM     29  C   UNL     1       7.419  -4.893  22.886  0.00  0.00    +0.090 C 
ATOM     30  C   UNL     1       7.264  -6.081  21.955  0.00  0.00    +0.040 C 
ATOM     31  C   UNL     1       6.198  -5.663  20.956  0.00  0.00    +0.163 C 
ATOM     32  O   UNL     1       5.759  -4.353  21.319  0.00  0.00    -0.351 OA
ATOM     33  C   UNL     1       6.792  -3.763  22.109  0.00  0.00    +0.257 C 
ATOM     34  O   UNL     1       6.272  -2.844  23.054  0.00  0.00    -0.347 OA
ATOM     35  C   UNL     1       5.871  -3.595  24.208  0.00  0.00    +0.208 C 
ENDBRANCH  27  28
ENDBRANCH  25  27
ENDBRANCH  22  23
BRANCH  22  36
ATOM     36  C   UNL     1       9.762  -1.868  23.894  0.00  0.00    +0.060 C 
BRANCH  36  37
ATOM     37  C   UNL     1       9.595  -0.405  23.477  0.00  0.00    -0.046 A 
ATOM     38  C   UNL     1      10.455   0.595  23.951  0.00  0.00    +0.004 A 
ATOM     39  C   UNL     1      10.642   1.762  23.205  0.00  0.00    +0.000 A 
ATOM     40  C   UNL     1      10.018   1.899  21.965  0.00  0.00    +0.000 A 
ATOM     41  C   UNL     1       9.049   0.978  21.577  0.00  0.00    +0.000 A 
ATOM     42  C   UNL     1       8.763  -0.116  22.390  0.00  0.00    +0.004 A 
ENDBRANCH  36  37
ENDBRANCH  22  36
ENDBRANCH   1  22
TORSDOF 14
ENDMDL
MODEL 4
REMARK VINA RESULT:      -6.6      3.795      8.230
REMARK  Name = 
REMARK  16 active torsions:
REMARK  status: ('A' for Active; 'I' for Inactive)
REMARK    1  A    between atoms: C_1  and  C_2
REMARK    2  A    between atoms: C_2  and  C_3
REMARK    3  A    between atoms: C_2  and  C_4
REMARK    4  A    between atoms: C_4  and  N_5
REMARK    5  A    between atoms: N_5  and  C_6
REMARK    6  A    between atoms: N_5  and  S_34
REMARK    7  A    between atoms: C_6  and  C_7
REMARK    8  A    between atoms: C_7  and  C_9
REMARK    9  A    between atoms: C_7  and  O_33
REMARK   10  A    between atoms: C_9  and  C_11
REMARK   11  A    between atoms: C_9  and  N_18
REMARK   12  A    between atoms: C_11  and  C_12
REMARK   13  A    between atoms: C_19  and  O_21
REMARK   14  A    between atoms: O_21  and  C_22
REMARK   15  A    between atoms: S_34  and  C_37
REMARK   16  A    between atoms: C_40  and  N_43
REMARK                            x       y       z     vdW  Elec       q    Type
REMARK                         _______ _______ _______ _____ _____    ______ ____
ROOT
ATOM      1  C   UNL     1       9.391   0.871  24.962  0.00  0.00    +0.151 C 
ENDROOT
BRANCH   1   2
ATOM      2  O   UNL     1      10.562   0.268  25.547  0.00  0.00    -0.389 OA
ATOM      3  H   UNL     1      11.331   0.830  25.351  0.00  0.00    +0.210 HD
ENDBRANCH   1   2
BRANCH   1   4
ATOM      4  C   UNL     1       8.184   0.240  25.665  0.00  0.00    +0.142 C 
BRANCH   4   5
ATOM      5  N   UNL     1       7.082   1.037  26.361  0.00  0.00    -0.174 NA
BRANCH   5   6
ATOM      6  S   UNL     1       5.703   0.926  25.185  0.00  0.00    +0.061 S 
ATOM      7  O   UNL     1       4.493   0.881  25.985  0.00  0.00    -0.153 OA
ATOM      8  O   UNL     1       6.016  -0.150  24.264  0.00  0.00    -0.153 OA
BRANCH   6   9
ATOM      9  C   UNL     1       5.670   2.434  24.258  0.00  0.00    +0.106 A 
ATOM     10  C   UNL     1       5.398   3.635  24.919  0.00  0.00    +0.030 A 
ATOM     11  C   UNL     1       5.427   4.837  24.210  0.00  0.00    +0.024 A 
ATOM     12  C   UNL     1       5.662   4.845  22.833  0.00  0.00    +0.025 A 
ATOM     13  C   UNL     1       5.827   3.624  22.169  0.00  0.00    +0.024 A 
ATOM     14  C   UNL     1       5.805   2.413  22.870  0.00  0.00    +0.030 A 
BRANCH  12  15
ATOM     15  N   UNL     1       5.986   6.042  22.190  0.00  0.00    -0.358 N 
ATOM     16  H   UNL     1       5.593   6.879  22.607  0.00  0.00    +0.142 HD
ATOM     17  H   UNL     1       5.919   6.028  21.178  0.00  0.00    +0.142 HD
ENDBRANCH  12  15
ENDBRANCH   6   9
ENDBRANCH   5   6
BRANCH   5  18
ATOM     18  C   UNL     1       6.654   0.575  27.747  0.00  0.00    +0.112 C 
BRANCH  18  20
ATOM     19  C   UNL     1       7.586   1.440  29.971  0.00  0.00    +0.008 C 
ATOM     20  C   UNL     1       6.606   1.684  28.823  0.00  0.00    -0.001 C 
ATOM     21  C   UNL     1       6.896   3.084  28.257  0.00  0.00    +0.008 C 
ENDBRANCH  18  20
ENDBRANCH   5  18
ENDBRANCH   4   5
ENDBRANCH   1   4
BRANCH   1  22
ATOM     22  C   UNL     1       9.515   0.789  23.417  0.00  0.00    +0.110 C 
BRANCH  22  23
ATOM     23  N   UNL     1       8.703  -0.357  22.948  0.00  0.00    -0.275 N 
ATOM     24  H   UNL     1       7.824  -0.148  22.490  0.00  0.00    +0.152 HD
ATOM     25  C   UNL     1       9.096  -1.645  22.845  0.00  0.00    +0.401 C 
ATOM     26  O   UNL     1      10.092  -2.143  23.344  0.00  0.00    -0.226 OA
BRANCH  25  27
ATOM     27  O   UNL     1       8.210  -2.322  22.071  0.00  0.00    -0.444 OA
BRANCH  27  28
ATOM     28  C   UNL     1       7.136  -2.980  22.781  0.00  0.00    +0.212 C 
ATOM     29  C   UNL     1       7.483  -4.458  22.957  0.00  0.00    +0.090 C 
ATOM     30  C   UNL     1       7.793  -4.877  24.382  0.00  0.00    +0.040 C 
ATOM     31  C   UNL     1       6.473  -5.382  24.941  0.00  0.00    +0.163 C 
ATOM     32  O   UNL     1       5.486  -5.226  23.920  0.00  0.00    -0.351 OA
ATOM     33  C   UNL     1       6.175  -5.153  22.671  0.00  0.00    +0.257 C 
ATOM     34  O   UNL     1       5.476  -4.357  21.730  0.00  0.00    -0.347 OA
ATOM     35  C   UNL     1       5.841  -2.991  21.968  0.00  0.00    +0.208 C 
ENDBRANCH  27  28
ENDBRANCH  25  27
ENDBRANCH  22  23
BRANCH  22  36
ATOM     36  C   UNL     1       9.288   2.104  22.598  0.00  0.00    +0.060 C 
BRANCH  36  37
ATOM     37  C   UNL     1       9.935   3.279  23.335  0.00  0.00    -0.046 A 
ATOM     38  C   UNL     1      11.315   3.512  23.273  0.00  0.00    +0.004 A 
ATOM     39  C   UNL     1      11.811   4.803  23.475  0.00  0.00    +0.000 A 
ATOM     40  C   UNL     1      10.926   5.862  23.678  0.00  0.00    +0.000 A 
ATOM     41  C   UNL     1       9.577   5.599  23.894  0.00  0.00    +0.000 A 
ATOM     42  C   UNL     1       9.104   4.291  23.829  0.00  0.00    +0.004 A 
ENDBRANCH  36  37
ENDBRANCH  22  36
ENDBRANCH   1  22
TORSDOF 14
ENDMDL
MODEL 5
REMARK VINA RESULT:      -6.5      2.755      7.803
REMARK  Name = 
REMARK  16 active torsions:
REMARK  status: ('A' for Active; 'I' for Inactive)
REMARK    1  A    between atoms: C_1  and  C_2
REMARK    2  A    between atoms: C_2  and  C_3
REMARK    3  A    between atoms: C_2  and  C_4
REMARK    4  A    between atoms: C_4  and  N_5
REMARK    5  A    between atoms: N_5  and  C_6
REMARK    6  A    between atoms: N_5  and  S_34
REMARK    7  A    between atoms: C_6  and  C_7
REMARK    8  A    between atoms: C_7  and  C_9
REMARK    9  A    between atoms: C_7  and  O_33
REMARK   10  A    between atoms: C_9  and  C_11
REMARK   11  A    between atoms: C_9  and  N_18
REMARK   12  A    between atoms: C_11  and  C_12
REMARK   13  A    between atoms: C_19  and  O_21
REMARK   14  A    between atoms: O_21  and  C_22
REMARK   15  A    between atoms: S_34  and  C_37
REMARK   16  A    between atoms: C_40  and  N_43
REMARK                            x       y       z     vdW  Elec       q    Type
REMARK                         _______ _______ _______ _____ _____    ______ ____
ROOT
ATOM      1  C   UNL     1       7.598  -2.449  26.604  0.00  0.00    +0.151 C 
ENDROOT
BRANCH   1   2
ATOM      2  O   UNL     1       6.180  -2.228  26.473  0.00  0.00    -0.389 OA
ATOM      3  H   UNL     1       5.720  -2.749  27.152  0.00  0.00    +0.210 HD
ENDBRANCH   1   2
BRANCH   1   4
ATOM      4  C   UNL     1       8.283  -1.198  26.046  0.00  0.00    +0.142 C 
BRANCH   4   5
ATOM      5  N   UNL     1       7.869  -0.495  24.753  0.00  0.00    -0.174 NA
BRANCH   5   6
ATOM      6  S   UNL     1       6.892   0.911  25.355  0.00  0.00    +0.061 S 
ATOM      7  O   UNL     1       7.495   1.312  26.612  0.00  0.00    -0.153 OA
ATOM      8  O   UNL     1       5.498   0.513  25.303  0.00  0.00    -0.153 OA
BRANCH   6   9
ATOM      9  C   UNL     1       7.113   2.244  24.211  0.00  0.00    +0.106 A 
ATOM     10  C   UNL     1       6.302   2.308  23.074  0.00  0.00    +0.030 A 
ATOM     11  C   UNL     1       6.427   3.385  22.196  0.00  0.00    +0.024 A 
ATOM     12  C   UNL     1       7.397   4.367  22.407  0.00  0.00    +0.025 A 
ATOM     13  C   UNL     1       8.270   4.231  23.493  0.00  0.00    +0.024 A 
ATOM     14  C   UNL     1       8.152   3.158  24.383  0.00  0.00    +0.030 A 
BRANCH  12  15
ATOM     15  N   UNL     1       7.323   5.578  21.714  0.00  0.00    -0.358 N 
ATOM     16  H   UNL     1       7.867   5.623  20.859  0.00  0.00    +0.142 HD
ATOM     17  H   UNL     1       7.399   6.413  22.284  0.00  0.00    +0.142 HD
ENDBRANCH  12  15
ENDBRANCH   6   9
ENDBRANCH   5   6
BRANCH   5  18
ATOM     18  C   UNL     1       8.981  -0.028  23.825  0.00  0.00    +0.112 C 
BRANCH  18  20
ATOM     19  C   UNL     1       9.186   0.792  21.406  0.00  0.00    +0.008 C 
ATOM     20  C   UNL     1       8.768  -0.354  22.329  0.00  0.00    -0.001 C 
ATOM     21  C   UNL     1       9.526  -1.612  21.874  0.00  0.00    +0.008 C 
ENDBRANCH  18  20
ENDBRANCH   5  18
ENDBRANCH   4   5
ENDBRANCH   1   4
BRANCH   1  22
ATOM     22  C   UNL     1       7.934  -3.844  26.011  0.00  0.00    +0.110 C 
BRANCH  22  23
ATOM     23  N   UNL     1       6.756  -4.721  26.198  0.00  0.00    -0.275 N 
ATOM     24  H   UNL     1       6.024  -4.672  25.498  0.00  0.00    +0.152 HD
ATOM     25  C   UNL     1       6.637  -5.752  27.062  0.00  0.00    +0.401 C 
ATOM     26  O   UNL     1       7.367  -5.994  28.009  0.00  0.00    -0.226 OA
BRANCH  25  27
ATOM     27  O   UNL     1       5.570  -6.512  26.708  0.00  0.00    -0.444 OA
BRANCH  27  28
ATOM     28  C   UNL     1       4.737  -5.969  25.657  0.00  0.00    +0.212 C 
ATOM     29  C   UNL     1       3.344  -5.684  26.219  0.00  0.00    +0.090 C 
ATOM     30  C   UNL     1       2.996  -4.212  26.346  0.00  0.00    +0.040 C 
ATOM     31  C   UNL     1       2.270  -3.866  25.057  0.00  0.00    +0.163 C 
ATOM     32  O   UNL     1       2.243  -5.044  24.249  0.00  0.00    -0.351 OA
ATOM     33  C   UNL     1       2.428  -6.160  25.120  0.00  0.00    +0.257 C 
ATOM     34  O   UNL     1       3.082  -7.234  24.467  0.00  0.00    -0.347 OA
ATOM     35  C   UNL     1       4.493  -6.989  24.544  0.00  0.00    +0.208 C 
ENDBRANCH  27  28
ENDBRANCH  25  27
ENDBRANCH  22  23
BRANCH  22  36
ATOM     36  C   UNL     1       8.540  -3.895  24.569  0.00  0.00    +0.060 C 
BRANCH  36  37
ATOM     37  C   UNL     1       7.457  -4.326  23.577  0.00  0.00    -0.046 A 
ATOM     38  C   UNL     1       6.526  -3.411  23.066  0.00  0.00    +0.004 A 
ATOM     39  C   UNL     1       5.921  -3.655  21.830  0.00  0.00    +0.000 A 
ATOM     40  C   UNL     1       6.289  -4.775  21.086  0.00  0.00    +0.000 A 
ATOM     41  C   UNL     1       7.091  -5.753  21.667  0.00  0.00    +0.000 A 
ATOM     42  C   UNL     1       7.584  -5.573  22.956  0.00  0.00    +0.004 A 
ENDBRANCH  36  37
ENDBRANCH  22  36
ENDBRANCH   1  22
TORSDOF 14
ENDMDL
MODEL 6
REMARK VINA RESULT:      -6.4      3.353      7.430
REMARK  Name = 
REMARK  16 active torsions:
REMARK  status: ('A' for Active; 'I' for Inactive)
REMARK    1  A    between atoms: C_1  and  C_2
REMARK    2  A    between atoms: C_2  and  C_3
REMARK    3  A    between atoms: C_2  and  C_4
REMARK    4  A    between atoms: C_4  and  N_5
REMARK    5  A    between atoms: N_5  and  C_6
REMARK    6  A    between atoms: N_5  and  S_34
REMARK    7  A    between atoms: C_6  and  C_7
REMARK    8  A    between atoms: C_7  and  C_9
REMARK    9  A    between atoms: C_7  and  O_33
REMARK   10  A    between atoms: C_9  and  C_11
REMARK   11  A    between atoms: C_9  and  N_18
REMARK   12  A    between atoms: C_11  and  C_12
REMARK   13  A    between atoms: C_19  and  O_21
REMARK   14  A    between atoms: O_21  and  C_22
REMARK   15  A    between atoms: S_34  and  C_37
REMARK   16  A    between atoms: C_40  and  N_43
REMARK                            x       y       z     vdW  Elec       q    Type
REMARK                         _______ _______ _______ _____ _____    ______ ____
ROOT
ATOM      1  C   UNL     1       6.269  -1.290  27.021  0.00  0.00    +0.151 C 
ENDROOT
BRANCH   1   2
ATOM      2  O   UNL     1       5.268  -2.304  26.810  0.00  0.00    -0.389 OA
ATOM      3  H   UNL     1       5.037  -2.322  25.866  0.00  0.00    +0.210 HD
ENDBRANCH   1   2
BRANCH   1   4
ATOM      4  C   UNL     1       5.755  -0.025  26.326  0.00  0.00    +0.142 C 
BRANCH   4   5
ATOM      5  N   UNL     1       6.023   1.396  26.822  0.00  0.00    -0.174 NA
BRANCH   5   6
ATOM      6  S   UNL     1       5.553   2.414  25.395  0.00  0.00    +0.061 S 
ATOM      7  O   UNL     1       5.317   3.749  25.911  0.00  0.00    -0.153 OA
ATOM      8  O   UNL     1       4.502   1.702  24.692  0.00  0.00    -0.153 OA
BRANCH   6   9
ATOM      9  C   UNL     1       6.955   2.502  24.316  0.00  0.00    +0.106 A 
ATOM     10  C   UNL     1       8.240   2.443  24.863  0.00  0.00    +0.030 A 
ATOM     11  C   UNL     1       9.351   2.452  24.019  0.00  0.00    +0.024 A 
ATOM     12  C   UNL     1       9.195   2.584  22.637  0.00  0.00    +0.025 A 
ATOM     13  C   UNL     1       7.906   2.748  22.117  0.00  0.00    +0.024 A 
ATOM     14  C   UNL     1       6.783   2.736  22.953  0.00  0.00    +0.030 A 
BRANCH  12  15
ATOM     15  N   UNL     1      10.264   2.293  21.787  0.00  0.00    -0.358 N 
ATOM     16  H   UNL     1      10.009   1.898  20.888  0.00  0.00    +0.142 HD
ATOM     17  H   UNL     1      11.055   1.830  22.220  0.00  0.00    +0.142 HD
ENDBRANCH  12  15
ENDBRANCH   6   9
ENDBRANCH   5   6
BRANCH   5  18
ATOM     18  C   UNL     1       5.292   1.847  28.078  0.00  0.00    +0.112 C 
BRANCH  18  20
ATOM     19  C   UNL     1       7.399   1.296  29.427  0.00  0.00    +0.008 C 
ATOM     20  C   UNL     1       6.202   2.235  29.265  0.00  0.00    -0.001 C 
ATOM     21  C   UNL     1       6.750   3.667  29.159  0.00  0.00    +0.008 C 
ENDBRANCH  18  20
ENDBRANCH   5  18
ENDBRANCH   4   5
ENDBRANCH   1   4
BRANCH   1  22
ATOM     22  C   UNL     1       7.653  -1.878  26.632  0.00  0.00    +0.110 C 
BRANCH  22  23
ATOM     23  N   UNL     1       7.430  -3.176  25.955  0.00  0.00    -0.275 N 
ATOM     24  H   UNL     1       6.792  -3.187  25.169  0.00  0.00    +0.152 HD
ATOM     25  C   UNL     1       8.150  -4.307  26.108  0.00  0.00    +0.401 C 
ATOM     26  O   UNL     1       8.949  -4.546  26.999  0.00  0.00    -0.226 OA
BRANCH  25  27
ATOM     27  O   UNL     1       7.865  -5.160  25.091  0.00  0.00    -0.444 OA
BRANCH  27  28
ATOM     28  C   UNL     1       6.850  -4.710  24.165  0.00  0.00    +0.212 C 
ATOM     29  C   UNL     1       5.697  -5.714  24.160  0.00  0.00    +0.090 C 
ATOM     30  C   UNL     1       4.409  -5.211  24.785  0.00  0.00    +0.040 C 
ATOM     31  C   UNL     1       3.598  -4.658  23.626  0.00  0.00    +0.163 C 
ATOM     32  O   UNL     1       4.384  -4.805  22.442  0.00  0.00    -0.351 OA
ATOM     33  C   UNL     1       5.348  -5.826  22.697  0.00  0.00    +0.257 C 
ATOM     34  O   UNL     1       6.543  -5.617  21.965  0.00  0.00    -0.347 OA
ATOM     35  C   UNL     1       7.358  -4.712  22.723  0.00  0.00    +0.208 C 
ENDBRANCH  27  28
ENDBRANCH  25  27
ENDBRANCH  22  23
BRANCH  22  36
ATOM     36  C   UNL     1       8.658  -0.938  25.886  0.00  0.00    +0.060 C 
BRANCH  36  37
ATOM     37  C   UNL     1       8.742  -1.350  24.414  0.00  0.00    -0.046 A 
ATOM     38  C   UNL     1       7.736  -1.008  23.500  0.00  0.00    +0.004 A 
ATOM     39  C   UNL     1       8.039  -0.908  22.139  0.00  0.00    +0.000 A 
ATOM     40  C   UNL     1       9.352  -1.090  21.706  0.00  0.00    +0.000 A 
ATOM     41  C   UNL     1      10.306  -1.580  22.592  0.00  0.00    +0.000 A 
ATOM     42  C   UNL     1       9.967  -1.812  23.922  0.00  0.00    +0.004 A 
ENDBRANCH  36  37
ENDBRANCH  22  36
ENDBRANCH   1  22
TORSDOF 14
ENDMDL
MODEL 7
REMARK VINA RESULT:      -6.3      2.403      6.249
REMARK  Name = 
REMARK  16 active torsions:
REMARK  status: ('A' for Active; 'I' for Inactive)
REMARK    1  A    between atoms: C_1  and  C_2
REMARK    2  A    between atoms: C_2  and  C_3
REMARK    3  A    between atoms: C_2  and  C_4
REMARK    4  A    between atoms: C_4  and  N_5
REMARK    5  A    between atoms: N_5  and  C_6
REMARK    6  A    between atoms: N_5  and  S_34
REMARK    7  A    between atoms: C_6  and  C_7
REMARK    8  A    between atoms: C_7  and  C_9
REMARK    9  A    between atoms: C_7  and  O_33
REMARK   10  A    between atoms: C_9  and  C_11
REMARK   11  A    between atoms: C_9  and  N_18
REMARK   12  A    between atoms: C_11  and  C_12
REMARK   13  A    between atoms: C_19  and  O_21
REMARK   14  A    between atoms: O_21  and  C_22
REMARK   15  A    between atoms: S_34  and  C_37
REMARK   16  A    between atoms: C_40  and  N_43
REMARK                            x       y       z     vdW  Elec       q    Type
REMARK                         _______ _______ _______ _____ _____    ______ ____
ROOT
ATOM      1  C   UNL     1       5.798  -5.360  25.624  0.00  0.00    +0.151 C 
ENDROOT
BRANCH   1   2
ATOM      2  O   UNL     1       6.220  -6.309  26.623  0.00  0.00    -0.389 OA
ATOM      3  H   UNL     1       5.679  -7.112  26.537  0.00  0.00    +0.210 HD
ENDBRANCH   1   2
BRANCH   1   4
ATOM      4  C   UNL     1       6.907  -4.306  25.534  0.00  0.00    +0.142 C 
BRANCH   4   5
ATOM      5  N   UNL     1       7.508  -3.802  24.222  0.00  0.00    -0.174 NA
BRANCH   5   6
ATOM      6  S   UNL     1       9.104  -3.116  24.750  0.00  0.00    +0.061 S 
ATOM      7  O   UNL     1      10.106  -4.102  24.389  0.00  0.00    -0.153 OA
ATOM      8  O   UNL     1       8.951  -2.696  26.130  0.00  0.00    -0.153 OA
BRANCH   6   9
ATOM      9  C   UNL     1       9.410  -1.668  23.779  0.00  0.00    +0.106 A 
ATOM     10  C   UNL     1       9.183  -1.710  22.401  0.00  0.00    +0.030 A 
ATOM     11  C   UNL     1       9.364  -0.558  21.634  0.00  0.00    +0.024 A 
ATOM     12  C   UNL     1       9.832   0.620  22.220  0.00  0.00    +0.025 A 
ATOM     13  C   UNL     1      10.155   0.615  23.582  0.00  0.00    +0.024 A 
ATOM     14  C   UNL     1       9.972  -0.533  24.362  0.00  0.00    +0.030 A 
BRANCH  12  15
ATOM     15  N   UNL     1       9.726   1.829  21.528  0.00  0.00    -0.358 N 
ATOM     16  H   UNL     1      10.005   1.798  20.554  0.00  0.00    +0.142 HD
ATOM     17  H   UNL     1      10.071   2.646  22.020  0.00  0.00    +0.142 HD
ENDBRANCH  12  15
ENDBRANCH   6   9
ENDBRANCH   5   6
BRANCH   5  18
ATOM     18  C   UNL     1       7.694  -4.817  23.104  0.00  0.00    +0.112 C 
BRANCH  18  20
ATOM     19  C   UNL     1       5.944  -5.925  21.596  0.00  0.00    +0.008 C 
ATOM     20  C   UNL     1       6.736  -4.653  21.902  0.00  0.00    -0.001 C 
ATOM     21  C   UNL     1       5.722  -3.513  22.093  0.00  0.00    +0.008 C 
ENDBRANCH  18  20
ENDBRANCH   5  18
ENDBRANCH   4   5
ENDBRANCH   1   4
BRANCH   1  22
ATOM     22  C   UNL     1       4.342  -4.925  25.943  0.00  0.00    +0.110 C 
BRANCH  22  23
ATOM     23  N   UNL     1       4.398  -3.717  26.797  0.00  0.00    -0.275 N 
ATOM     24  H   UNL     1       5.037  -3.731  27.583  0.00  0.00    +0.152 HD
ATOM     25  C   UNL     1       3.873  -2.503  26.525  0.00  0.00    +0.401 C 
ATOM     26  O   UNL     1       3.053  -2.243  25.658  0.00  0.00    -0.226 OA
BRANCH  25  27
ATOM     27  O   UNL     1       4.412  -1.583  27.364  0.00  0.00    -0.444 OA
BRANCH  27  28
ATOM     28  C   UNL     1       4.863  -0.358  26.741  0.00  0.00    +0.212 C 
ATOM     29  C   UNL     1       6.158  -0.633  25.977  0.00  0.00    +0.090 C 
ATOM     30  C   UNL     1       6.033  -0.575  24.466  0.00  0.00    +0.040 C 
ATOM     31  C   UNL     1       6.412   0.848  24.093  0.00  0.00    +0.163 C 
ATOM     32  O   UNL     1       6.695   1.550  25.304  0.00  0.00    -0.351 OA
ATOM     33  C   UNL     1       7.007   0.573  26.297  0.00  0.00    +0.257 C 
ATOM     34  O   UNL     1       6.642   1.007  27.596  0.00  0.00    -0.347 OA
ATOM     35  C   UNL     1       5.254   0.695  27.779  0.00  0.00    +0.208 C 
ENDBRANCH  27  28
ENDBRANCH  25  27
ENDBRANCH  22  23
BRANCH  22  36
ATOM     36  C   UNL     1       3.339  -4.810  24.747  0.00  0.00    +0.060 C 
BRANCH  36  37
ATOM     37  C   UNL     1       3.006  -6.210  24.227  0.00  0.00    -0.046 A 
ATOM     38  C   UNL     1       2.931  -7.313  25.088  0.00  0.00    +0.004 A 
ATOM     39  C   UNL     1       2.146  -8.415  24.739  0.00  0.00    +0.000 A 
ATOM     40  C   UNL     1       1.395  -8.387  23.564  0.00  0.00    +0.000 A 
ATOM     41  C   UNL     1       1.596  -7.363  22.644  0.00  0.00    +0.000 A 
ATOM     42  C   UNL     1       2.486  -6.332  22.933  0.00  0.00    +0.004 A 
ENDBRANCH  36  37
ENDBRANCH  22  36
ENDBRANCH   1  22
TORSDOF 14
ENDMDL
MODEL 8
REMARK VINA RESULT:      -6.3      3.445      8.379
REMARK  Name = 
REMARK  16 active torsions:
REMARK  status: ('A' for Active; 'I' for Inactive)
REMARK    1  A    between atoms: C_1  and  C_2
REMARK    2  A    between atoms: C_2  and  C_3
REMARK    3  A    between atoms: C_2  and  C_4
REMARK    4  A    between atoms: C_4  and  N_5
REMARK    5  A    between atoms: N_5  and  C_6
REMARK    6  A    between atoms: N_5  and  S_34
REMARK    7  A    between atoms: C_6  and  C_7
REMARK    8  A    between atoms: C_7  and  C_9
REMARK    9  A    between atoms: C_7  and  O_33
REMARK   10  A    between atoms: C_9  and  C_11
REMARK   11  A    between atoms: C_9  and  N_18
REMARK   12  A    between atoms: C_11  and  C_12
REMARK   13  A    between atoms: C_19  and  O_21
REMARK   14  A    between atoms: O_21  and  C_22
REMARK   15  A    between atoms: S_34  and  C_37
REMARK   16  A    between atoms: C_40  and  N_43
REMARK                            x       y       z     vdW  Elec       q    Type
REMARK                         _______ _______ _______ _____ _____    ______ ____
ROOT
ATOM      1  C   UNL     1       6.955  -0.773  24.333  0.00  0.00    +0.151 C 
ENDROOT
BRANCH   1   2
ATOM      2  O   UNL     1       6.209  -0.465  23.140  0.00  0.00    -0.389 OA
ATOM      3  H   UNL     1       6.833  -0.351  22.403  0.00  0.00    +0.210 HD
ENDBRANCH   1   2
BRANCH   1   4
ATOM      4  C   UNL     1       7.247   0.566  25.018  0.00  0.00    +0.142 C 
BRANCH   4   5
ATOM      5  N   UNL     1       6.423   1.140  26.171  0.00  0.00    -0.174 NA
BRANCH   5   6
ATOM      6  S   UNL     1       5.521   2.502  25.381  0.00  0.00    +0.061 S 
ATOM      7  O   UNL     1       4.835   3.205  26.448  0.00  0.00    -0.153 OA
ATOM      8  O   UNL     1       4.772   1.932  24.277  0.00  0.00    -0.153 OA
BRANCH   6   9
ATOM      9  C   UNL     1       6.720   3.612  24.698  0.00  0.00    +0.106 A 
ATOM     10  C   UNL     1       7.684   4.175  25.539  0.00  0.00    +0.030 A 
ATOM     11  C   UNL     1       8.670   5.004  25.003  0.00  0.00    +0.024 A 
ATOM     12  C   UNL     1       8.665   5.330  23.644  0.00  0.00    +0.025 A 
ATOM     13  C   UNL     1       7.630   4.842  22.838  0.00  0.00    +0.024 A 
ATOM     14  C   UNL     1       6.639   4.005  23.363  0.00  0.00    +0.030 A 
BRANCH  12  15
ATOM     15  N   UNL     1       9.799   5.900  23.062  0.00  0.00    -0.358 N 
ATOM     16  H   UNL     1      10.003   6.851  23.350  0.00  0.00    +0.142 HD
ATOM     17  H   UNL     1       9.901   5.750  22.064  0.00  0.00    +0.142 HD
ENDBRANCH  12  15
ENDBRANCH   6   9
ENDBRANCH   5   6
BRANCH   5  18
ATOM     18  C   UNL     1       5.468   0.194  26.884  0.00  0.00    +0.112 C 
BRANCH  18  20
ATOM     19  C   UNL     1       6.619   1.165  28.957  0.00  0.00    +0.008 C 
ATOM     20  C   UNL     1       5.492   0.277  28.427  0.00  0.00    -0.001 C 
ATOM     21  C   UNL     1       4.174   0.800  29.022  0.00  0.00    +0.008 C 
ENDBRANCH  18  20
ENDBRANCH   5  18
ENDBRANCH   4   5
ENDBRANCH   1   4
BRANCH   1  22
ATOM     22  C   UNL     1       8.126  -1.717  23.950  0.00  0.00    +0.110 C 
BRANCH  22  23
ATOM     23  N   UNL     1       7.693  -3.112  24.193  0.00  0.00    -0.275 N 
ATOM     24  H   UNL     1       6.709  -3.320  24.076  0.00  0.00    +0.152 HD
ATOM     25  C   UNL     1       8.484  -4.198  24.325  0.00  0.00    +0.401 C 
ATOM     26  O   UNL     1       9.689  -4.201  24.517  0.00  0.00    -0.226 OA
BRANCH  25  27
ATOM     27  O   UNL     1       7.730  -5.319  24.194  0.00  0.00    -0.444 OA
BRANCH  27  28
ATOM     28  C   UNL     1       6.338  -5.182  24.561  0.00  0.00    +0.212 C 
ATOM     29  C   UNL     1       6.111  -5.842  25.921  0.00  0.00    +0.090 C 
ATOM     30  C   UNL     1       5.819  -4.879  27.057  0.00  0.00    +0.040 C 
ATOM     31  C   UNL     1       4.303  -4.800  27.126  0.00  0.00    +0.163 C 
ATOM     32  O   UNL     1       3.781  -5.626  26.085  0.00  0.00    -0.351 OA
ATOM     33  C   UNL     1       4.799  -6.564  25.736  0.00  0.00    +0.257 C 
ATOM     34  O   UNL     1       4.720  -6.944  24.373  0.00  0.00    -0.347 OA
ATOM     35  C   UNL     1       5.423  -5.955  23.610  0.00  0.00    +0.208 C 
ENDBRANCH  27  28
ENDBRANCH  25  27
ENDBRANCH  22  23
BRANCH  22  36
ATOM     36  C   UNL     1       8.811  -1.499  22.559  0.00  0.00    +0.060 C 
BRANCH  36  37
ATOM     37  C   UNL     1       9.739  -0.285  22.634  0.00  0.00    -0.046 A 
ATOM     38  C   UNL     1       9.575   0.815  21.781  0.00  0.00    +0.004 A 
ATOM     39  C   UNL     1      10.037   2.074  22.175  0.00  0.00    +0.000 A 
ATOM     40  C   UNL     1      10.604   2.241  23.438  0.00  0.00    +0.000 A 
ATOM     41  C   UNL     1      10.904   1.122  24.209  0.00  0.00    +0.000 A 
ATOM     42  C   UNL     1      10.567  -0.150  23.753  0.00  0.00    +0.004 A 
ENDBRANCH  36  37
ENDBRANCH  22  36
ENDBRANCH   1  22
TORSDOF 14
ENDMDL
MODEL 9
REMARK VINA RESULT:      -6.2      2.195      4.208
REMARK  Name = 
REMARK  16 active torsions:
REMARK  status: ('A' for Active; 'I' for Inactive)
REMARK    1  A    between atoms: C_1  and  C_2
REMARK    2  A    between atoms: C_2  and  C_3
REMARK    3  A    between atoms: C_2  and  C_4
REMARK    4  A    between atoms: C_4  and  N_5
REMARK    5  A    between atoms: N_5  and  C_6
REMARK    6  A    between atoms: N_5  and  S_34
REMARK    7  A    between atoms: C_6  and  C_7
REMARK    8  A    between atoms: C_7  and  C_9
REMARK    9  A    between atoms: C_7  and  O_33
REMARK   10  A    between atoms: C_9  and  C_11
REMARK   11  A    between atoms: C_9  and  N_18
REMARK   12  A    between atoms: C_11  and  C_12
REMARK   13  A    between atoms: C_19  and  O_21
REMARK   14  A    between atoms: O_21  and  C_22
REMARK   15  A    between atoms: S_34  and  C_37
REMARK   16  A    between atoms: C_40  and  N_43
REMARK                            x       y       z     vdW  Elec       q    Type
REMARK                         _______ _______ _______ _____ _____    ______ ____
ROOT
ATOM      1  C   UNL     1       9.198  -3.610  24.524  0.00  0.00    +0.151 C 
ENDROOT
BRANCH   1   2
ATOM      2  O   UNL     1       8.695  -4.822  23.929  0.00  0.00    -0.389 OA
ATOM      3  H   UNL     1       8.960  -4.843  22.994  0.00  0.00    +0.210 HD
ENDBRANCH   1   2
BRANCH   1   4
ATOM      4  C   UNL     1       8.566  -3.518  25.916  0.00  0.00    +0.142 C 
BRANCH   4   5
ATOM      5  N   UNL     1       7.062  -3.571  26.183  0.00  0.00    -0.174 NA
BRANCH   5   6
ATOM      6  S   UNL     1       6.838  -5.227  26.891  0.00  0.00    +0.061 S 
ATOM      7  O   UNL     1       6.397  -5.025  28.258  0.00  0.00    -0.153 OA
ATOM      8  O   UNL     1       8.050  -5.976  26.614  0.00  0.00    -0.153 OA
BRANCH   6   9
ATOM      9  C   UNL     1       5.513  -6.008  26.015  0.00  0.00    +0.106 A 
ATOM     10  C   UNL     1       4.582  -6.771  26.726  0.00  0.00    +0.030 A 
ATOM     11  C   UNL     1       3.500  -7.343  26.056  0.00  0.00    +0.024 A 
ATOM     12  C   UNL     1       3.372  -7.215  24.671  0.00  0.00    +0.025 A 
ATOM     13  C   UNL     1       4.371  -6.536  23.961  0.00  0.00    +0.024 A 
ATOM     14  C   UNL     1       5.458  -5.955  24.624  0.00  0.00    +0.030 A 
BRANCH  12  15
ATOM     15  N   UNL     1       2.157  -7.520  24.054  0.00  0.00    -0.358 N 
ATOM     16  H   UNL     1       1.838  -8.475  24.173  0.00  0.00    +0.142 HD
ATOM     17  H   UNL     1       2.048  -7.174  23.107  0.00  0.00    +0.142 HD
ENDBRANCH  12  15
ENDBRANCH   6   9
ENDBRANCH   5   6
BRANCH   5  18
ATOM     18  C   UNL     1       6.477  -2.504  27.096  0.00  0.00    +0.112 C 
BRANCH  18  20
ATOM     19  C   UNL     1       3.939  -2.851  27.137  0.00  0.00    +0.008 C 
ATOM     20  C   UNL     1       5.093  -1.962  26.671  0.00  0.00    -0.001 C 
ATOM     21  C   UNL     1       4.819  -0.541  27.188  0.00  0.00    +0.008 C 
ENDBRANCH  18  20
ENDBRANCH   5  18
ENDBRANCH   4   5
ENDBRANCH   1   4
BRANCH   1  22
ATOM     22  C   UNL     1       9.008  -2.449  23.510  0.00  0.00    +0.110 C 
BRANCH  22  23
ATOM     23  N   UNL     1       7.939  -1.561  24.020  0.00  0.00    -0.275 N 
ATOM     24  H   UNL     1       8.175  -0.942  24.787  0.00  0.00    +0.152 HD
ATOM     25  C   UNL     1       6.749  -1.303  23.438  0.00  0.00    +0.401 C 
ATOM     26  O   UNL     1       6.232  -1.932  22.529  0.00  0.00    -0.226 OA
BRANCH  25  27
ATOM     27  O   UNL     1       6.198  -0.203  24.013  0.00  0.00    -0.444 OA
BRANCH  27  28
ATOM     28  C   UNL     1       6.883   1.045  23.756  0.00  0.00    +0.212 C 
ATOM     29  C   UNL     1       6.401   2.095  24.756  0.00  0.00    +0.090 C 
ATOM     30  C   UNL     1       7.429   2.510  25.792  0.00  0.00    +0.040 C 
ATOM     31  C   UNL     1       8.102   3.741  25.209  0.00  0.00    +0.163 C 
ATOM     32  O   UNL     1       7.523   3.981  23.925  0.00  0.00    -0.351 OA
ATOM     33  C   UNL     1       6.251   3.333  23.907  0.00  0.00    +0.257 C 
ATOM     34  O   UNL     1       5.898   2.904  22.603  0.00  0.00    -0.347 OA
ATOM     35  C   UNL     1       6.510   1.625  22.391  0.00  0.00    +0.208 C 
ENDBRANCH  27  28
ENDBRANCH  25  27
ENDBRANCH  22  23
BRANCH  22  36
ATOM     36  C   UNL     1      10.288  -1.689  23.027  0.00  0.00    +0.060 C 
BRANCH  36  37
ATOM     37  C   UNL     1      10.057  -0.180  23.141  0.00  0.00    -0.046 A 
ATOM     38  C   UNL     1      10.444   0.535  24.283  0.00  0.00    +0.004 A 
ATOM     39  C   UNL     1      10.720   1.902  24.185  0.00  0.00    +0.000 A 
ATOM     40  C   UNL     1      10.666   2.533  22.943  0.00  0.00    +0.000 A 
ATOM     41  C   UNL     1      10.131   1.857  21.850  0.00  0.00    +0.000 A 
ATOM     42  C   UNL     1       9.726   0.531  21.983  0.00  0.00    +0.004 A 
ENDBRANCH  36  37
ENDBRANCH  22  36
ENDBRANCH   1  22
TORSDOF 14
ENDMDL
