MODEL 1
REMARK VINA RESULT:      -7.1      0.000      0.000
REMARK  Name = 
REMARK  21 active torsions:
REMARK  status: ('A' for Active; 'I' for Inactive)
REMARK    1  A    between atoms: C_1  and  C_2
REMARK    2  A    between atoms: C_2  and  C_3
REMARK    3  A    between atoms: C_2  and  C_4
REMARK    4  A    between atoms: C_2  and  C_5
REMARK    5  A    between atoms: C_5  and  C_7
REMARK    6  A    between atoms: C_5  and  N_48
REMARK    7  A    between atoms: C_11  and  O_34
REMARK    8  A    between atoms: C_14  and  C_16
REMARK    9  A    between atoms: N_18  and  C_19
REMARK   10  A    between atoms: C_19  and  C_25
REMARK   11  A    between atoms: C_21  and  C_23
REMARK   12  A    between atoms: N_27  and  S_28
REMARK   13  A    between atoms: S_28  and  C_31
REMARK   14  A    between atoms: O_34  and  C_35
REMARK   15  A    between atoms: C_38  and  O_46
REMARK   16  A    between atoms: O_46  and  C_47
REMARK   17  A    between atoms: C_49  and  O_51
REMARK   18  A    between atoms: O_51  and  C_52
REMARK   19  A    between atoms: C_52  and  C_53
REMARK   20  A    between atoms: C_52  and  C_54
REMARK   21  A    between atoms: C_52  and  C_55
REMARK                            x       y       z     vdW  Elec       q    Type
REMARK                         _______ _______ _______ _____ _____    ______ ____
ROOT
ATOM      1  C   UNL     1       8.613   0.068  25.131  0.00  0.00    +0.237 C 
ATOM      2  N   UNL     1       7.375  -0.209  25.681  0.00  0.00    -0.285 N 
ATOM      3  C   UNL     1       6.080  -0.265  25.015  0.00  0.00    +0.166 C 
ATOM      4  C   UNL     1       5.229  -1.216  25.867  0.00  0.00    +0.078 C 
ATOM      5  C   UNL     1       6.151  -1.737  26.987  0.00  0.00    +0.195 C 
ATOM      6  C   UNL     1       7.278  -0.724  27.046  0.00  0.00    +0.153 C 
ATOM      7  O   UNL     1       9.595  -0.056  25.867  0.00  0.00    -0.274 OA
ENDROOT
BRANCH   3   8
ATOM      8  C   UNL     1       5.446   1.133  24.930  0.00  0.00    +0.234 C 
ATOM      9  N   UNL     1       5.463   1.707  23.675  0.00  0.00    -0.299 N 
ATOM     10  H   UNL     1       5.592   1.106  22.871  0.00  0.00    +0.150 HD
ATOM     11  O   UNL     1       5.064   1.741  25.929  0.00  0.00    -0.274 OA
BRANCH   9  12
ATOM     12  C   UNL     1       4.873   3.007  23.422  0.00  0.00    +0.119 C 
ATOM     13  C   UNL     1       5.599   4.208  24.011  0.00  0.00    +0.046 C 
ATOM     14  C   UNL     1       5.646   3.980  22.535  0.00  0.00    +0.046 C 
BRANCH  12  15
ATOM     15  C   UNL     1       3.385   2.964  23.161  0.00  0.00    +0.256 C 
ATOM     16  N   UNL     1       3.011   2.888  21.823  0.00  0.00    -0.188 N 
ATOM     17  H   UNL     1       3.711   2.728  21.101  0.00  0.00    +0.176 HD
ATOM     18  O   UNL     1       2.595   3.135  24.076  0.00  0.00    -0.272 OA
BRANCH  16  19
ATOM     19  S   UNL     1       1.443   2.919  21.299  0.00  0.00    +0.048 S 
ATOM     20  O   UNL     1       0.651   2.106  22.193  0.00  0.00    -0.155 OA
ATOM     21  O   UNL     1       1.517   2.613  19.885  0.00  0.00    -0.155 OA
BRANCH  19  22
ATOM     22  C   UNL     1       0.849   4.632  21.378  0.00  0.00    +0.151 C 
ATOM     23  C   UNL     1       0.786   5.406  20.094  0.00  0.00    +0.030 C 
ATOM     24  C   UNL     1       1.918   5.645  21.054  0.00  0.00    +0.030 C 
ENDBRANCH  19  22
ENDBRANCH  16  19
ENDBRANCH  12  15
BRANCH  13  25
ATOM     25  C   UNL     1       4.899   5.341  24.621  0.00  0.00    -0.028 C 
ATOM     26  C   UNL     1       5.200   6.043  25.720  0.00  0.00    +0.004 C 
ENDBRANCH  13  25
ENDBRANCH   9  12
ENDBRANCH   3   8
BRANCH   1  27
ATOM     27  C   UNL     1       8.736   0.632  23.657  0.00  0.00    +0.168 C 
BRANCH  27  29
ATOM     28  C   UNL     1       8.121  -1.512  22.330  0.00  0.00    +0.013 C 
ATOM     29  C   UNL     1       9.120  -0.348  22.488  0.00  0.00    -0.011 C 
ATOM     30  C   UNL     1       9.087   0.431  21.148  0.00  0.00    +0.013 C 
ATOM     31  C   UNL     1      10.511  -0.977  22.649  0.00  0.00    +0.013 C 
ENDBRANCH  27  29
BRANCH  27  32
ATOM     32  N   UNL     1       9.554   1.862  23.712  0.00  0.00    -0.269 N 
ATOM     33  H   UNL     1      10.535   1.807  23.481  0.00  0.00    +0.153 HD
ATOM     34  C   UNL     1       9.173   3.036  24.308  0.00  0.00    +0.401 C 
ATOM     35  O   UNL     1       8.189   3.189  25.011  0.00  0.00    -0.226 OA
BRANCH  34  36
ATOM     36  O   UNL     1      10.032   4.035  23.973  0.00  0.00    -0.445 OA
BRANCH  36  37
ATOM     37  C   UNL     1       9.615   5.411  24.224  0.00  0.00    +0.107 C 
ATOM     38  C   UNL     1       8.739   5.949  23.079  0.00  0.00    +0.055 C 
ATOM     39  C   UNL     1      10.896   6.260  24.249  0.00  0.00    +0.055 C 
ATOM     40  C   UNL     1       8.933   5.552  25.589  0.00  0.00    +0.055 C 
ENDBRANCH  36  37
ENDBRANCH  34  36
ENDBRANCH  27  32
ENDBRANCH   1  27
BRANCH   5  41
ATOM     41  O   UNL     1       6.770  -2.981  26.644  0.00  0.00    -0.471 OA
BRANCH  41  42
ATOM     42  C   UNL     1       5.930  -4.064  26.748  0.00  0.00    +0.223 A 
ATOM     43  C   UNL     1       5.755  -4.844  25.600  0.00  0.00    +0.049 A 
ATOM     44  C   UNL     1       6.501  -4.642  24.416  0.00  0.00    +0.034 A 
ATOM     45  C   UNL     1       6.227  -5.389  23.277  0.00  0.00    +0.042 A 
ATOM     46 CL   UNL     1       7.125  -5.108  21.836  0.00  0.00    -0.084 Cl
ATOM     47  C   UNL     1       5.226  -6.349  23.295  0.00  0.00    +0.021 A 
ATOM     48  C   UNL     1       4.505  -6.578  24.470  0.00  0.00    +0.014 A 
ATOM     49  C   UNL     1       4.753  -5.836  25.646  0.00  0.00    +0.030 A 
ATOM     50  C   UNL     1       4.035  -6.028  26.852  0.00  0.00    +0.146 A 
ATOM     51  C   UNL     1       4.354  -5.220  27.938  0.00  0.00    +0.160 A 
ATOM     52  N   UNL     1       5.272  -4.236  27.912  0.00  0.00    -0.217 NA
BRANCH  50  53
ATOM     53  O   UNL     1       3.061  -6.993  26.860  0.00  0.00    -0.493 OA
ATOM     54  C   UNL     1       1.866  -6.686  27.569  0.00  0.00    +0.277 C 
ENDBRANCH  50  53
ENDBRANCH  41  42
ENDBRANCH   5  41
TORSDOF 14
ENDMDL
MODEL 2
REMARK VINA RESULT:      -6.8      3.837      9.910
REMARK  Name = 
REMARK  21 active torsions:
REMARK  status: ('A' for Active; 'I' for Inactive)
REMARK    1  A    between atoms: C_1  and  C_2
REMARK    2  A    between atoms: C_2  and  C_3
REMARK    3  A    between atoms: C_2  and  C_4
REMARK    4  A    between atoms: C_2  and  C_5
REMARK    5  A    between atoms: C_5  and  C_7
REMARK    6  A    between atoms: C_5  and  N_48
REMARK    7  A    between atoms: C_11  and  O_34
REMARK    8  A    between atoms: C_14  and  C_16
REMARK    9  A    between atoms: N_18  and  C_19
REMARK   10  A    between atoms: C_19  and  C_25
REMARK   11  A    between atoms: C_21  and  C_23
REMARK   12  A    between atoms: N_27  and  S_28
REMARK   13  A    between atoms: S_28  and  C_31
REMARK   14  A    between atoms: O_34  and  C_35
REMARK   15  A    between atoms: C_38  and  O_46
REMARK   16  A    between atoms: O_46  and  C_47
REMARK   17  A    between atoms: C_49  and  O_51
REMARK   18  A    between atoms: O_51  and  C_52
REMARK   19  A    between atoms: C_52  and  C_53
REMARK   20  A    between atoms: C_52  and  C_54
REMARK   21  A    between atoms: C_52  and  C_55
REMARK                            x       y       z     vdW  Elec       q    Type
REMARK                         _______ _______ _______ _____ _____    ______ ____
ROOT
ATOM      1  C   UNL     1       6.912  -0.945  26.517  0.00  0.00    +0.237 C 
ATOM      2  N   UNL     1       7.275  -0.714  25.203  0.00  0.00    -0.285 N 
ATOM      3  C   UNL     1       6.428  -0.704  24.017  0.00  0.00    +0.166 C 
ATOM      4  C   UNL     1       7.143   0.214  23.018  0.00  0.00    +0.078 C 
ATOM      5  C   UNL     1       8.382   0.768  23.748  0.00  0.00    +0.195 C 
ATOM      6  C   UNL     1       8.609  -0.204  24.890  0.00  0.00    +0.153 C 
ATOM      7  O   UNL     1       7.782  -0.786  27.376  0.00  0.00    -0.274 OA
ENDROOT
BRANCH   3   8
ATOM      8  C   UNL     1       6.258  -2.125  23.454  0.00  0.00    +0.234 C 
ATOM      9  N   UNL     1       6.853  -3.123  24.198  0.00  0.00    -0.299 N 
ATOM     10  H   UNL     1       7.085  -2.934  25.165  0.00  0.00    +0.150 HD
ATOM     11  O   UNL     1       5.734  -2.338  22.362  0.00  0.00    -0.274 OA
BRANCH   9  12
ATOM     12  C   UNL     1       6.754  -4.520  23.818  0.00  0.00    +0.119 C 
ATOM     13  C   UNL     1       7.603  -4.964  22.637  0.00  0.00    +0.046 C 
ATOM     14  C   UNL     1       7.985  -5.401  24.015  0.00  0.00    +0.046 C 
BRANCH  12  15
ATOM     15  C   UNL     1       5.447  -5.169  24.212  0.00  0.00    +0.256 C 
ATOM     16  N   UNL     1       4.323  -4.725  23.522  0.00  0.00    -0.188 N 
ATOM     17  H   UNL     1       4.423  -4.111  22.715  0.00  0.00    +0.176 HD
ATOM     18  O   UNL     1       5.398  -5.919  25.173  0.00  0.00    -0.272 OA
BRANCH  16  19
ATOM     19  S   UNL     1       2.782  -5.227  23.845  0.00  0.00    +0.048 S 
ATOM     20  O   UNL     1       2.183  -5.676  22.609  0.00  0.00    -0.155 OA
ATOM     21  O   UNL     1       2.190  -4.148  24.608  0.00  0.00    -0.155 OA
BRANCH  19  22
ATOM     22  C   UNL     1       2.867  -6.625  25.000  0.00  0.00    +0.151 C 
ATOM     23  C   UNL     1       2.334  -7.947  24.532  0.00  0.00    +0.030 C 
ATOM     24  C   UNL     1       1.510  -7.097  25.459  0.00  0.00    +0.030 C 
ENDBRANCH  19  22
ENDBRANCH  16  19
ENDBRANCH  12  15
BRANCH  13  25
ATOM     25  C   UNL     1       7.118  -5.892  21.612  0.00  0.00    -0.028 C 
ATOM     26  C   UNL     1       6.142  -5.739  20.710  0.00  0.00    +0.004 C 
ENDBRANCH  13  25
ENDBRANCH   9  12
ENDBRANCH   3   8
BRANCH   1  27
ATOM     27  C   UNL     1       5.474  -1.503  26.874  0.00  0.00    +0.168 C 
BRANCH  27  29
ATOM     28  C   UNL     1       2.923  -1.034  26.947  0.00  0.00    +0.013 C 
ATOM     29  C   UNL     1       4.332  -0.494  27.262  0.00  0.00    -0.011 C 
ATOM     30  C   UNL     1       4.368  -0.258  28.794  0.00  0.00    +0.013 C 
ATOM     31  C   UNL     1       4.452   0.866  26.560  0.00  0.00    +0.013 C 
ENDBRANCH  27  29
BRANCH  27  32
ATOM     32  N   UNL     1       5.647  -2.620  27.826  0.00  0.00    -0.269 N 
ATOM     33  H   UNL     1       6.524  -2.712  28.318  0.00  0.00    +0.153 HD
ATOM     34  C   UNL     1       4.825  -3.713  27.915  0.00  0.00    +0.401 C 
ATOM     35  O   UNL     1       3.940  -4.003  27.129  0.00  0.00    -0.226 OA
BRANCH  34  36
ATOM     36  O   UNL     1       5.108  -4.423  29.040  0.00  0.00    -0.445 OA
BRANCH  36  37
ATOM     37  C   UNL     1       5.648  -5.770  28.883  0.00  0.00    +0.107 C 
ATOM     38  C   UNL     1       4.571  -6.753  28.392  0.00  0.00    +0.055 C 
ATOM     39  C   UNL     1       6.079  -6.236  30.283  0.00  0.00    +0.055 C 
ATOM     40  C   UNL     1       6.890  -5.777  27.984  0.00  0.00    +0.055 C 
ENDBRANCH  36  37
ENDBRANCH  34  36
ENDBRANCH  27  32
ENDBRANCH   1  27
BRANCH   5  41
ATOM     41  O   UNL     1       8.127   2.033  24.365  0.00  0.00    -0.471 OA
BRANCH  41  42
ATOM     42  C   UNL     1       9.146   2.942  24.204  0.00  0.00    +0.223 A 
ATOM     43  C   UNL     1       8.859   4.278  24.506  0.00  0.00    +0.049 A 
ATOM     44  C   UNL     1       7.636   4.686  25.086  0.00  0.00    +0.034 A 
ATOM     45  C   UNL     1       7.369   6.034  25.286  0.00  0.00    +0.042 A 
ATOM     46 CL   UNL     1       5.863   6.514  25.967  0.00  0.00    -0.084 Cl
ATOM     47  C   UNL     1       8.305   6.993  24.928  0.00  0.00    +0.021 A 
ATOM     48  C   UNL     1       9.529   6.598  24.381  0.00  0.00    +0.014 A 
ATOM     49  C   UNL     1       9.835   5.237  24.162  0.00  0.00    +0.030 A 
ATOM     50  C   UNL     1      11.059   4.796  23.598  0.00  0.00    +0.146 A 
ATOM     51  C   UNL     1      11.235   3.429  23.407  0.00  0.00    +0.160 A 
ATOM     52  N   UNL     1      10.307   2.496  23.683  0.00  0.00    -0.217 NA
BRANCH  50  53
ATOM     53  O   UNL     1      11.981   5.754  23.265  0.00  0.00    -0.493 OA
ATOM     54  C   UNL     1      13.005   5.364  22.357  0.00  0.00    +0.277 C 
ENDBRANCH  50  53
ENDBRANCH  41  42
ENDBRANCH   5  41
TORSDOF 14
ENDMDL
MODEL 3
REMARK VINA RESULT:      -6.7      1.609      2.474
REMARK  Name = 
REMARK  21 active torsions:
REMARK  status: ('A' for Active; 'I' for Inactive)
REMARK    1  A    between atoms: C_1  and  C_2
REMARK    2  A    between atoms: C_2  and  C_3
REMARK    3  A    between atoms: C_2  and  C_4
REMARK    4  A    between atoms: C_2  and  C_5
REMARK    5  A    between atoms: C_5  and  C_7
REMARK    6  A    between atoms: C_5  and  N_48
REMARK    7  A    between atoms: C_11  and  O_34
REMARK    8  A    between atoms: C_14  and  C_16
REMARK    9  A    between atoms: N_18  and  C_19
REMARK   10  A    between atoms: C_19  and  C_25
REMARK   11  A    between atoms: C_21  and  C_23
REMARK   12  A    between atoms: N_27  and  S_28
REMARK   13  A    between atoms: S_28  and  C_31
REMARK   14  A    between atoms: O_34  and  C_35
REMARK   15  A    between atoms: C_38  and  O_46
REMARK   16  A    between atoms: O_46  and  C_47
REMARK   17  A    between atoms: C_49  and  O_51
REMARK   18  A    between atoms: O_51  and  C_52
REMARK   19  A    between atoms: C_52  and  C_53
REMARK   20  A    between atoms: C_52  and  C_54
REMARK   21  A    between atoms: C_52  and  C_55
REMARK                            x       y       z     vdW  Elec       q    Type
REMARK                         _______ _______ _______ _____ _____    ______ ____
ROOT
ATOM      1  C   UNL     1       8.801   0.120  25.105  0.00  0.00    +0.237 C 
ATOM      2  N   UNL     1       7.579  -0.145  25.694  0.00  0.00    -0.285 N 
ATOM      3  C   UNL     1       6.259  -0.159  25.076  0.00  0.00    +0.166 C 
ATOM      4  C   UNL     1       5.421  -1.113  25.936  0.00  0.00    +0.078 C 
ATOM      5  C   UNL     1       6.372  -1.679  27.008  0.00  0.00    +0.195 C 
ATOM      6  C   UNL     1       7.521  -0.690  27.049  0.00  0.00    +0.153 C 
ATOM      7  O   UNL     1       9.806  -0.040  25.801  0.00  0.00    -0.274 OA
ENDROOT
BRANCH   3   8
ATOM      8  C   UNL     1       5.652   1.253  25.046  0.00  0.00    +0.234 C 
ATOM      9  N   UNL     1       5.220   1.677  23.806  0.00  0.00    -0.299 N 
ATOM     10  H   UNL     1       5.043   0.982  23.092  0.00  0.00    +0.150 HD
ATOM     11  O   UNL     1       5.663   1.991  26.030  0.00  0.00    -0.274 OA
BRANCH   9  12
ATOM     12  C   UNL     1       4.592   2.971  23.619  0.00  0.00    +0.119 C 
ATOM     13  C   UNL     1       5.524   4.149  23.376  0.00  0.00    +0.046 C 
ATOM     14  C   UNL     1       4.703   3.624  22.243  0.00  0.00    +0.046 C 
BRANCH  12  15
ATOM     15  C   UNL     1       3.230   3.090  24.264  0.00  0.00    +0.256 C 
ATOM     16  N   UNL     1       3.224   3.555  25.575  0.00  0.00    -0.188 N 
ATOM     17  H   UNL     1       4.076   3.919  25.996  0.00  0.00    +0.176 HD
ATOM     18  O   UNL     1       2.241   2.658  23.694  0.00  0.00    -0.272 OA
BRANCH  16  19
ATOM     19  S   UNL     1       1.862   3.679  26.505  0.00  0.00    +0.048 S 
ATOM     20  O   UNL     1       0.866   4.407  25.753  0.00  0.00    -0.155 OA
ATOM     21  O   UNL     1       2.329   4.167  27.786  0.00  0.00    -0.155 OA
BRANCH  19  22
ATOM     22  C   UNL     1       1.244   2.005  26.838  0.00  0.00    +0.151 C 
ATOM     23  C   UNL     1       1.337   1.497  28.246  0.00  0.00    +0.030 C 
ATOM     24  C   UNL     1       2.335   1.037  27.219  0.00  0.00    +0.030 C 
ENDBRANCH  19  22
ENDBRANCH  16  19
ENDBRANCH  12  15
BRANCH  13  25
ATOM     25  C   UNL     1       5.309   5.470  23.972  0.00  0.00    -0.028 C 
ATOM     26  C   UNL     1       5.835   6.007  25.079  0.00  0.00    +0.004 C 
ENDBRANCH  13  25
ENDBRANCH   9  12
ENDBRANCH   3   8
BRANCH   1  27
ATOM     27  C   UNL     1       8.882   0.717  23.641  0.00  0.00    +0.168 C 
BRANCH  27  29
ATOM     28  C   UNL     1       8.149  -1.392  22.318  0.00  0.00    +0.013 C 
ATOM     29  C   UNL     1       9.175  -0.247  22.432  0.00  0.00    -0.011 C 
ATOM     30  C   UNL     1       9.069   0.557  21.111  0.00  0.00    +0.013 C 
ATOM     31  C   UNL     1      10.563  -0.899  22.493  0.00  0.00    +0.013 C 
ENDBRANCH  27  29
BRANCH  27  32
ATOM     32  N   UNL     1       9.750   1.912  23.688  0.00  0.00    -0.269 N 
ATOM     33  H   UNL     1      10.749   1.795  23.599  0.00  0.00    +0.153 HD
ATOM     34  C   UNL     1       9.357   3.155  24.111  0.00  0.00    +0.401 C 
ATOM     35  O   UNL     1       8.298   3.419  24.655  0.00  0.00    -0.226 OA
BRANCH  34  36
ATOM     36  O   UNL     1      10.305   4.080  23.801  0.00  0.00    -0.445 OA
BRANCH  36  37
ATOM     37  C   UNL     1       9.982   5.488  24.008  0.00  0.00    +0.107 C 
ATOM     38  C   UNL     1       8.957   5.986  22.975  0.00  0.00    +0.055 C 
ATOM     39  C   UNL     1      11.281   6.275  23.769  0.00  0.00    +0.055 C 
ATOM     40  C   UNL     1       9.530   5.757  25.448  0.00  0.00    +0.055 C 
ENDBRANCH  36  37
ENDBRANCH  34  36
ENDBRANCH  27  32
ENDBRANCH   1  27
BRANCH   5  41
ATOM     41  O   UNL     1       6.953  -2.926  26.614  0.00  0.00    -0.471 OA
BRANCH  41  42
ATOM     42  C   UNL     1       6.108  -4.001  26.766  0.00  0.00    +0.223 A 
ATOM     43  C   UNL     1       5.905  -4.811  25.644  0.00  0.00    +0.049 A 
ATOM     44  C   UNL     1       6.625  -4.646  24.438  0.00  0.00    +0.034 A 
ATOM     45  C   UNL     1       6.323  -5.422  23.327  0.00  0.00    +0.042 A 
ATOM     46 CL   UNL     1       7.191  -5.186  21.859  0.00  0.00    -0.084 Cl
ATOM     47  C   UNL     1       5.318  -6.375  23.392  0.00  0.00    +0.021 A 
ATOM     48  C   UNL     1       4.621  -6.568  24.588  0.00  0.00    +0.014 A 
ATOM     49  C   UNL     1       4.899  -5.796  25.738  0.00  0.00    +0.030 A 
ATOM     50  C   UNL     1       4.206  -5.951  26.965  0.00  0.00    +0.146 A 
ATOM     51  C   UNL     1       4.553  -5.115  28.021  0.00  0.00    +0.160 A 
ATOM     52  N   UNL     1       5.475  -4.138  27.948  0.00  0.00    -0.217 NA
BRANCH  50  53
ATOM     53  O   UNL     1       3.227  -6.909  27.020  0.00  0.00    -0.493 OA
ATOM     54  C   UNL     1       1.967  -6.503  27.542  0.00  0.00    +0.277 C 
ENDBRANCH  50  53
ENDBRANCH  41  42
ENDBRANCH   5  41
TORSDOF 14
ENDMDL
MODEL 4
REMARK VINA RESULT:      -6.5      3.027      8.922
REMARK  Name = 
REMARK  21 active torsions:
REMARK  status: ('A' for Active; 'I' for Inactive)
REMARK    1  A    between atoms: C_1  and  C_2
REMARK    2  A    between atoms: C_2  and  C_3
REMARK    3  A    between atoms: C_2  and  C_4
REMARK    4  A    between atoms: C_2  and  C_5
REMARK    5  A    between atoms: C_5  and  C_7
REMARK    6  A    between atoms: C_5  and  N_48
REMARK    7  A    between atoms: C_11  and  O_34
REMARK    8  A    between atoms: C_14  and  C_16
REMARK    9  A    between atoms: N_18  and  C_19
REMARK   10  A    between atoms: C_19  and  C_25
REMARK   11  A    between atoms: C_21  and  C_23
REMARK   12  A    between atoms: N_27  and  S_28
REMARK   13  A    between atoms: S_28  and  C_31
REMARK   14  A    between atoms: O_34  and  C_35
REMARK   15  A    between atoms: C_38  and  O_46
REMARK   16  A    between atoms: O_46  and  C_47
REMARK   17  A    between atoms: C_49  and  O_51
REMARK   18  A    between atoms: O_51  and  C_52
REMARK   19  A    between atoms: C_52  and  C_53
REMARK   20  A    between atoms: C_52  and  C_54
REMARK   21  A    between atoms: C_52  and  C_55
REMARK                            x       y       z     vdW  Elec       q    Type
REMARK                         _______ _______ _______ _____ _____    ______ ____
ROOT
ATOM      1  C   UNL     1       6.901   0.646  23.671  0.00  0.00    +0.237 C 
ATOM      2  N   UNL     1       6.159   0.831  24.822  0.00  0.00    -0.285 N 
ATOM      3  C   UNL     1       6.485   0.432  26.185  0.00  0.00    +0.166 C 
ATOM      4  C   UNL     1       5.725   1.413  27.086  0.00  0.00    +0.078 C 
ATOM      5  C   UNL     1       5.029   2.417  26.145  0.00  0.00    +0.195 C 
ATOM      6  C   UNL     1       4.987   1.706  24.806  0.00  0.00    +0.153 C 
ATOM      7  O   UNL     1       6.478   1.173  22.639  0.00  0.00    -0.274 OA
ENDROOT
BRANCH   3   8
ATOM      8  C   UNL     1       6.058  -1.021  26.448  0.00  0.00    +0.234 C 
ATOM      9  N   UNL     1       4.927  -1.165  27.225  0.00  0.00    -0.299 N 
ATOM     10  H   UNL     1       4.298  -0.377  27.316  0.00  0.00    +0.150 HD
ATOM     11  O   UNL     1       6.742  -1.979  26.094  0.00  0.00    -0.274 OA
BRANCH   9  12
ATOM     12  C   UNL     1       4.375  -2.471  27.534  0.00  0.00    +0.119 C 
ATOM     13  C   UNL     1       5.259  -3.406  28.347  0.00  0.00    +0.046 C 
ATOM     14  C   UNL     1       4.064  -2.784  28.996  0.00  0.00    +0.046 C 
BRANCH  12  15
ATOM     15  C   UNL     1       3.326  -2.940  26.553  0.00  0.00    +0.256 C 
ATOM     16  N   UNL     1       3.362  -4.294  26.235  0.00  0.00    -0.188 N 
ATOM     17  H   UNL     1       3.969  -4.928  26.750  0.00  0.00    +0.176 HD
ATOM     18  O   UNL     1       2.608  -2.131  25.988  0.00  0.00    -0.272 OA
BRANCH  16  19
ATOM     19  S   UNL     1       2.371  -5.008  25.120  0.00  0.00    +0.048 S 
ATOM     20  O   UNL     1       2.664  -4.438  23.824  0.00  0.00    -0.155 OA
ATOM     21  O   UNL     1       1.043  -4.916  25.688  0.00  0.00    -0.155 OA
BRANCH  19  22
ATOM     22  C   UNL     1       2.743  -6.784  25.081  0.00  0.00    +0.151 C 
ATOM     23  C   UNL     1       4.089  -7.224  25.576  0.00  0.00    +0.030 C 
ATOM     24  C   UNL     1       3.829  -7.139  24.098  0.00  0.00    +0.030 C 
ENDBRANCH  19  22
ENDBRANCH  16  19
ENDBRANCH  12  15
BRANCH  13  25
ATOM     25  C   UNL     1       5.362  -4.841  28.074  0.00  0.00    -0.028 C 
ATOM     26  C   UNL     1       6.445  -5.597  27.859  0.00  0.00    +0.004 C 
ENDBRANCH  13  25
ENDBRANCH   9  12
ENDBRANCH   3   8
BRANCH   1  27
ATOM     27  C   UNL     1       8.168  -0.304  23.669  0.00  0.00    +0.168 C 
BRANCH  27  29
ATOM     28  C   UNL     1       9.513   1.777  22.895  0.00  0.00    +0.013 C 
ATOM     29  C   UNL     1       9.552   0.263  23.179  0.00  0.00    -0.011 C 
ATOM     30  C   UNL     1      10.602   0.064  24.302  0.00  0.00    +0.013 C 
ATOM     31  C   UNL     1      10.073  -0.414  21.904  0.00  0.00    +0.013 C 
ENDBRANCH  27  29
BRANCH  27  32
ATOM     32  N   UNL     1       7.776  -1.579  23.034  0.00  0.00    -0.269 N 
ATOM     33  H   UNL     1       6.900  -1.628  22.533  0.00  0.00    +0.153 HD
ATOM     34  C   UNL     1       8.358  -2.794  23.283  0.00  0.00    +0.401 C 
ATOM     35  O   UNL     1       9.164  -3.029  24.167  0.00  0.00    -0.226 OA
BRANCH  34  36
ATOM     36  O   UNL     1       7.942  -3.712  22.369  0.00  0.00    -0.445 OA
BRANCH  36  37
ATOM     37  C   UNL     1       6.797  -4.549  22.711  0.00  0.00    +0.107 C 
ATOM     38  C   UNL     1       6.764  -4.867  24.216  0.00  0.00    +0.055 C 
ATOM     39  C   UNL     1       6.993  -5.884  21.973  0.00  0.00    +0.055 C 
ATOM     40  C   UNL     1       5.482  -3.932  22.222  0.00  0.00    +0.055 C 
ENDBRANCH  36  37
ENDBRANCH  34  36
ENDBRANCH  27  32
ENDBRANCH   1  27
BRANCH   5  41
ATOM     41  O   UNL     1       5.815   3.593  25.931  0.00  0.00    -0.471 OA
BRANCH  41  42
ATOM     42  C   UNL     1       5.397   4.349  24.861  0.00  0.00    +0.223 A 
ATOM     43  C   UNL     1       6.391   4.962  24.091  0.00  0.00    +0.049 A 
ATOM     44  C   UNL     1       7.771   4.723  24.289  0.00  0.00    +0.034 A 
ATOM     45  C   UNL     1       8.718   5.424  23.553  0.00  0.00    +0.042 A 
ATOM     46 CL   UNL     1      10.393   5.139  23.829  0.00  0.00    -0.084 Cl
ATOM     47  C   UNL     1       8.319   6.358  22.610  0.00  0.00    +0.021 A 
ATOM     48  C   UNL     1       6.958   6.581  22.385  0.00  0.00    +0.014 A 
ATOM     49  C   UNL     1       5.966   5.888  23.115  0.00  0.00    +0.030 A 
ATOM     50  C   UNL     1       4.576   6.095  22.927  0.00  0.00    +0.146 A 
ATOM     51  C   UNL     1       3.695   5.371  23.724  0.00  0.00    +0.160 A 
ATOM     52  N   UNL     1       4.070   4.515  24.692  0.00  0.00    -0.217 NA
BRANCH  50  53
ATOM     53  O   UNL     1       4.197   7.009  21.979  0.00  0.00    -0.493 OA
ATOM     54  C   UNL     1       2.934   6.795  21.358  0.00  0.00    +0.277 C 
ENDBRANCH  50  53
ENDBRANCH  41  42
ENDBRANCH   5  41
TORSDOF 14
ENDMDL
MODEL 5
REMARK VINA RESULT:      -6.5      3.016      5.382
REMARK  Name = 
REMARK  21 active torsions:
REMARK  status: ('A' for Active; 'I' for Inactive)
REMARK    1  A    between atoms: C_1  and  C_2
REMARK    2  A    between atoms: C_2  and  C_3
REMARK    3  A    between atoms: C_2  and  C_4
REMARK    4  A    between atoms: C_2  and  C_5
REMARK    5  A    between atoms: C_5  and  C_7
REMARK    6  A    between atoms: C_5  and  N_48
REMARK    7  A    between atoms: C_11  and  O_34
REMARK    8  A    between atoms: C_14  and  C_16
REMARK    9  A    between atoms: N_18  and  C_19
REMARK   10  A    between atoms: C_19  and  C_25
REMARK   11  A    between atoms: C_21  and  C_23
REMARK   12  A    between atoms: N_27  and  S_28
REMARK   13  A    between atoms: S_28  and  C_31
REMARK   14  A    between atoms: O_34  and  C_35
REMARK   15  A    between atoms: C_38  and  O_46
REMARK   16  A    between atoms: O_46  and  C_47
REMARK   17  A    between atoms: C_49  and  O_51
REMARK   18  A    between atoms: O_51  and  C_52
REMARK   19  A    between atoms: C_52  and  C_53
REMARK   20  A    between atoms: C_52  and  C_54
REMARK   21  A    between atoms: C_52  and  C_55
REMARK                            x       y       z     vdW  Elec       q    Type
REMARK                         _______ _______ _______ _____ _____    ______ ____
ROOT
ATOM      1  C   UNL     1       5.452  -1.513  25.192  0.00  0.00    +0.237 C 
ATOM      2  N   UNL     1       6.730  -1.677  24.691  0.00  0.00    -0.285 N 
ATOM      3  C   UNL     1       7.994  -1.252  25.277  0.00  0.00    +0.166 C 
ATOM      4  C   UNL     1       9.045  -2.216  24.712  0.00  0.00    +0.078 C 
ATOM      5  C   UNL     1       8.278  -3.238  23.851  0.00  0.00    +0.195 C 
ATOM      6  C   UNL     1       6.960  -2.553  23.544  0.00  0.00    +0.153 C 
ATOM      7  O   UNL     1       4.533  -2.061  24.578  0.00  0.00    -0.274 OA
ENDROOT
BRANCH   3   8
ATOM      8  C   UNL     1       8.309   0.206  24.903  0.00  0.00    +0.234 C 
ATOM      9  N   UNL     1       8.741   0.396  23.606  0.00  0.00    -0.299 N 
ATOM     10  H   UNL     1       8.546  -0.324  22.921  0.00  0.00    +0.150 HD
ATOM     11  O   UNL     1       8.291   1.113  25.732  0.00  0.00    -0.274 OA
BRANCH   9  12
ATOM     12  C   UNL     1       9.044   1.716  23.088  0.00  0.00    +0.119 C 
ATOM     13  C   UNL     1      10.477   2.200  23.259  0.00  0.00    +0.046 C 
ATOM     14  C   UNL     1       9.995   1.813  21.898  0.00  0.00    +0.046 C 
BRANCH  12  15
ATOM     15  C   UNL     1       7.846   2.634  23.013  0.00  0.00    +0.256 C 
ATOM     16  N   UNL     1       7.792   3.634  23.979  0.00  0.00    -0.188 N 
ATOM     17  H   UNL     1       8.589   3.802  24.592  0.00  0.00    +0.176 HD
ATOM     18  O   UNL     1       6.935   2.394  22.237  0.00  0.00    -0.272 OA
BRANCH  16  19
ATOM     19  S   UNL     1       6.533   4.693  24.145  0.00  0.00    +0.048 S 
ATOM     20  O   UNL     1       6.421   5.047  25.542  0.00  0.00    -0.155 OA
ATOM     21  O   UNL     1       5.429   4.071  23.445  0.00  0.00    -0.155 OA
BRANCH  19  22
ATOM     22  C   UNL     1       6.914   6.186  23.187  0.00  0.00    +0.151 C 
ATOM     23  C   UNL     1       7.496   6.004  21.816  0.00  0.00    +0.030 C 
ATOM     24  C   UNL     1       8.392   6.384  22.962  0.00  0.00    +0.030 C 
ENDBRANCH  19  22
ENDBRANCH  16  19
ENDBRANCH  12  15
BRANCH  13  25
ATOM     25  C   UNL     1      10.814   3.577  23.625  0.00  0.00    -0.028 C 
ATOM     26  C   UNL     1      11.852   4.334  23.249  0.00  0.00    +0.004 C 
ENDBRANCH  13  25
ENDBRANCH   9  12
ENDBRANCH   3   8
BRANCH   1  27
ATOM     27  C   UNL     1       5.183  -0.563  26.430  0.00  0.00    +0.168 C 
BRANCH  27  29
ATOM     28  C   UNL     1       2.939  -1.196  27.569  0.00  0.00    +0.013 C 
ATOM     29  C   UNL     1       4.473  -1.146  27.707  0.00  0.00    -0.011 C 
ATOM     30  C   UNL     1       4.934  -2.612  27.913  0.00  0.00    +0.013 C 
ATOM     31  C   UNL     1       4.777  -0.358  28.989  0.00  0.00    +0.013 C 
ENDBRANCH  27  29
BRANCH  27  32
ATOM     32  N   UNL     1       4.581   0.685  25.918  0.00  0.00    -0.269 N 
ATOM     33  H   UNL     1       4.090   0.666  25.036  0.00  0.00    +0.153 HD
ATOM     34  C   UNL     1       4.851   1.942  26.393  0.00  0.00    +0.401 C 
ATOM     35  O   UNL     1       5.733   2.229  27.184  0.00  0.00    -0.226 OA
BRANCH  34  36
ATOM     36  O   UNL     1       3.963   2.838  25.886  0.00  0.00    -0.445 OA
BRANCH  36  37
ATOM     37  C   UNL     1       2.992   3.433  26.799  0.00  0.00    +0.107 C 
ATOM     38  C   UNL     1       2.488   2.406  27.828  0.00  0.00    +0.055 C 
ATOM     39  C   UNL     1       1.782   3.846  25.945  0.00  0.00    +0.055 C 
ATOM     40  C   UNL     1       3.547   4.696  27.467  0.00  0.00    +0.055 C 
ENDBRANCH  36  37
ENDBRANCH  34  36
ENDBRANCH  27  32
ENDBRANCH   1  27
BRANCH   5  41
ATOM     41  O   UNL     1       7.936  -4.417  24.585  0.00  0.00    -0.471 OA
BRANCH  41  42
ATOM     42  C   UNL     1       6.700  -4.928  24.266  0.00  0.00    +0.223 A 
ATOM     43  C   UNL     1       5.975  -5.528  25.301  0.00  0.00    +0.049 A 
ATOM     44  C   UNL     1       6.400  -5.502  26.649  0.00  0.00    +0.034 A 
ATOM     45  C   UNL     1       5.686  -6.188  27.624  0.00  0.00    +0.042 A 
ATOM     46 CL   UNL     1       6.235  -6.169  29.255  0.00  0.00    -0.084 Cl
ATOM     47  C   UNL     1       4.543  -6.897  27.285  0.00  0.00    +0.021 A 
ATOM     48  C   UNL     1       4.098  -6.903  25.960  0.00  0.00    +0.014 A 
ATOM     49  C   UNL     1       4.799  -6.220  24.942  0.00  0.00    +0.030 A 
ATOM     50  C   UNL     1       4.388  -6.213  23.585  0.00  0.00    +0.146 A 
ATOM     51  C   UNL     1       5.174  -5.523  22.668  0.00  0.00    +0.160 A 
ATOM     52  N   UNL     1       6.323  -4.893  22.972  0.00  0.00    -0.217 NA
BRANCH  50  53
ATOM     53  O   UNL     1       3.247  -6.903  23.268  0.00  0.00    -0.493 OA
ATOM     54  C   UNL     1       2.080  -6.126  23.022  0.00  0.00    +0.277 C 
ENDBRANCH  50  53
ENDBRANCH  41  42
ENDBRANCH   5  41
TORSDOF 14
ENDMDL
MODEL 6
REMARK VINA RESULT:      -6.4      3.280      4.554
REMARK  Name = 
REMARK  21 active torsions:
REMARK  status: ('A' for Active; 'I' for Inactive)
REMARK    1  A    between atoms: C_1  and  C_2
REMARK    2  A    between atoms: C_2  and  C_3
REMARK    3  A    between atoms: C_2  and  C_4
REMARK    4  A    between atoms: C_2  and  C_5
REMARK    5  A    between atoms: C_5  and  C_7
REMARK    6  A    between atoms: C_5  and  N_48
REMARK    7  A    between atoms: C_11  and  O_34
REMARK    8  A    between atoms: C_14  and  C_16
REMARK    9  A    between atoms: N_18  and  C_19
REMARK   10  A    between atoms: C_19  and  C_25
REMARK   11  A    between atoms: C_21  and  C_23
REMARK   12  A    between atoms: N_27  and  S_28
REMARK   13  A    between atoms: S_28  and  C_31
REMARK   14  A    between atoms: O_34  and  C_35
REMARK   15  A    between atoms: C_38  and  O_46
REMARK   16  A    between atoms: O_46  and  C_47
REMARK   17  A    between atoms: C_49  and  O_51
REMARK   18  A    between atoms: O_51  and  C_52
REMARK   19  A    between atoms: C_52  and  C_53
REMARK   20  A    between atoms: C_52  and  C_54
REMARK   21  A    between atoms: C_52  and  C_55
REMARK                            x       y       z     vdW  Elec       q    Type
REMARK                         _______ _______ _______ _____ _____    ______ ____
ROOT
ATOM      1  C   UNL     1       8.858   0.312  25.140  0.00  0.00    +0.237 C 
ATOM      2  N   UNL     1       7.823  -0.442  25.661  0.00  0.00    -0.285 N 
ATOM      3  C   UNL     1       6.460  -0.578  25.162  0.00  0.00    +0.166 C 
ATOM      4  C   UNL     1       5.985  -1.950  25.656  0.00  0.00    +0.078 C 
ATOM      5  C   UNL     1       7.184  -2.589  26.383  0.00  0.00    +0.195 C 
ATOM      6  C   UNL     1       8.086  -1.416  26.718  0.00  0.00    +0.153 C 
ATOM      7  O   UNL     1       9.966   0.183  25.666  0.00  0.00    -0.274 OA
ENDROOT
BRANCH   3   8
ATOM      8  C   UNL     1       5.566   0.553  25.694  0.00  0.00    +0.234 C 
ATOM      9  N   UNL     1       5.324   0.517  27.052  0.00  0.00    -0.299 N 
ATOM     10  H   UNL     1       5.949  -0.019  27.640  0.00  0.00    +0.150 HD
ATOM     11  O   UNL     1       5.012   1.357  24.946  0.00  0.00    -0.274 OA
BRANCH   9  12
ATOM     12  C   UNL     1       4.528   1.534  27.713  0.00  0.00    +0.119 C 
ATOM     13  C   UNL     1       3.147   1.798  27.133  0.00  0.00    +0.046 C 
ATOM     14  C   UNL     1       3.264   1.086  28.442  0.00  0.00    +0.046 C 
BRANCH  12  15
ATOM     15  C   UNL     1       5.347   2.568  28.451  0.00  0.00    +0.256 C 
ATOM     16  N   UNL     1       5.309   3.855  27.922  0.00  0.00    -0.188 N 
ATOM     17  H   UNL     1       4.655   4.086  27.176  0.00  0.00    +0.176 HD
ATOM     18  O   UNL     1       6.093   2.231  29.356  0.00  0.00    -0.272 OA
BRANCH  16  19
ATOM     19  S   UNL     1       6.195   5.122  28.508  0.00  0.00    +0.048 S 
ATOM     20  O   UNL     1       7.587   4.879  28.205  0.00  0.00    -0.155 OA
ATOM     21  O   UNL     1       5.750   5.285  29.877  0.00  0.00    -0.155 OA
BRANCH  19  22
ATOM     22  C   UNL     1       5.661   6.633  27.658  0.00  0.00    +0.151 C 
ATOM     23  C   UNL     1       4.314   6.622  26.998  0.00  0.00    +0.030 C 
ATOM     24  C   UNL     1       5.555   6.465  26.163  0.00  0.00    +0.030 C 
ENDBRANCH  19  22
ENDBRANCH  16  19
ENDBRANCH  12  15
BRANCH  13  25
ATOM     25  C   UNL     1       2.581   3.143  27.004  0.00  0.00    -0.028 C 
ATOM     26  C   UNL     1       1.642   3.751  27.738  0.00  0.00    +0.004 C 
ENDBRANCH  13  25
ENDBRANCH   9  12
ENDBRANCH   3   8
BRANCH   1  27
ATOM     27  C   UNL     1       8.590   1.377  23.999  0.00  0.00    +0.168 C 
BRANCH  27  29
ATOM     28  C   UNL     1       7.950   1.455  21.485  0.00  0.00    +0.013 C 
ATOM     29  C   UNL     1       9.015   1.044  22.522  0.00  0.00    -0.011 C 
ATOM     30  C   UNL     1      10.290   1.853  22.171  0.00  0.00    +0.013 C 
ATOM     31  C   UNL     1       9.306  -0.445  22.290  0.00  0.00    +0.013 C 
ENDBRANCH  27  29
BRANCH  27  32
ATOM     32  N   UNL     1       9.064   2.689  24.486  0.00  0.00    -0.269 N 
ATOM     33  H   UNL     1      10.052   2.825  24.643  0.00  0.00    +0.153 HD
ATOM     34  C   UNL     1       8.263   3.672  25.007  0.00  0.00    +0.401 C 
ATOM     35  O   UNL     1       7.084   3.551  25.292  0.00  0.00    -0.226 OA
BRANCH  34  36
ATOM     36  O   UNL     1       8.961   4.833  25.128  0.00  0.00    -0.445 OA
BRANCH  36  37
ATOM     37  C   UNL     1       9.074   5.691  23.953  0.00  0.00    +0.107 C 
ATOM     38  C   UNL     1      10.526   5.763  23.450  0.00  0.00    +0.055 C 
ATOM     39  C   UNL     1       8.682   7.107  24.404  0.00  0.00    +0.055 C 
ATOM     40  C   UNL     1       8.100   5.264  22.849  0.00  0.00    +0.055 C 
ENDBRANCH  36  37
ENDBRANCH  34  36
ENDBRANCH  27  32
ENDBRANCH   1  27
BRANCH   5  41
ATOM     41  O   UNL     1       7.954  -3.431  25.521  0.00  0.00    -0.471 OA
BRANCH  41  42
ATOM     42  C   UNL     1       7.225  -3.987  24.496  0.00  0.00    +0.223 A 
ATOM     43  C   UNL     1       6.318  -4.995  24.837  0.00  0.00    +0.049 A 
ATOM     44  C   UNL     1       6.035  -5.351  26.175  0.00  0.00    +0.034 A 
ATOM     45  C   UNL     1       5.190  -6.417  26.456  0.00  0.00    +0.042 A 
ATOM     46 CL   UNL     1       4.882  -6.855  28.092  0.00  0.00    -0.084 Cl
ATOM     47  C   UNL     1       4.607  -7.137  25.424  0.00  0.00    +0.021 A 
ATOM     48  C   UNL     1       4.856  -6.774  24.097  0.00  0.00    +0.014 A 
ATOM     49  C   UNL     1       5.711  -5.697  23.774  0.00  0.00    +0.030 A 
ATOM     50  C   UNL     1       5.999  -5.306  22.442  0.00  0.00    +0.146 A 
ATOM     51  C   UNL     1       6.876  -4.244  22.249  0.00  0.00    +0.160 A 
ATOM     52  N   UNL     1       7.505  -3.585  23.239  0.00  0.00    -0.217 NA
BRANCH  50  53
ATOM     53  O   UNL     1       5.402  -6.015  21.433  0.00  0.00    -0.493 OA
ATOM     54  C   UNL     1       6.048  -5.988  20.165  0.00  0.00    +0.277 C 
ENDBRANCH  50  53
ENDBRANCH  41  42
ENDBRANCH   5  41
TORSDOF 14
ENDMDL
MODEL 7
REMARK VINA RESULT:      -6.3      3.431      9.460
REMARK  Name = 
REMARK  21 active torsions:
REMARK  status: ('A' for Active; 'I' for Inactive)
REMARK    1  A    between atoms: C_1  and  C_2
REMARK    2  A    between atoms: C_2  and  C_3
REMARK    3  A    between atoms: C_2  and  C_4
REMARK    4  A    between atoms: C_2  and  C_5
REMARK    5  A    between atoms: C_5  and  C_7
REMARK    6  A    between atoms: C_5  and  N_48
REMARK    7  A    between atoms: C_11  and  O_34
REMARK    8  A    between atoms: C_14  and  C_16
REMARK    9  A    between atoms: N_18  and  C_19
REMARK   10  A    between atoms: C_19  and  C_25
REMARK   11  A    between atoms: C_21  and  C_23
REMARK   12  A    between atoms: N_27  and  S_28
REMARK   13  A    between atoms: S_28  and  C_31
REMARK   14  A    between atoms: O_34  and  C_35
REMARK   15  A    between atoms: C_38  and  O_46
REMARK   16  A    between atoms: O_46  and  C_47
REMARK   17  A    between atoms: C_49  and  O_51
REMARK   18  A    between atoms: O_51  and  C_52
REMARK   19  A    between atoms: C_52  and  C_53
REMARK   20  A    between atoms: C_52  and  C_54
REMARK   21  A    between atoms: C_52  and  C_55
REMARK                            x       y       z     vdW  Elec       q    Type
REMARK                         _______ _______ _______ _____ _____    ______ ____
ROOT
ATOM      1  C   UNL     1       4.811  -0.343  28.147  0.00  0.00    +0.237 C 
ATOM      2  N   UNL     1       5.671   0.214  27.219  0.00  0.00    -0.285 N 
ATOM      3  C   UNL     1       5.566   0.203  25.765  0.00  0.00    +0.166 C 
ATOM      4  C   UNL     1       6.328   1.449  25.296  0.00  0.00    +0.078 C 
ATOM      5  C   UNL     1       6.787   2.182  26.572  0.00  0.00    +0.195 C 
ATOM      6  C   UNL     1       6.732   1.121  27.654  0.00  0.00    +0.153 C 
ATOM      7  O   UNL     1       5.039  -0.108  29.336  0.00  0.00    -0.274 OA
ENDROOT
BRANCH   3   8
ATOM      8  C   UNL     1       6.174  -1.082  25.181  0.00  0.00    +0.234 C 
ATOM      9  N   UNL     1       5.814  -1.359  23.878  0.00  0.00    -0.299 N 
ATOM     10  H   UNL     1       5.452  -0.607  23.306  0.00  0.00    +0.150 HD
ATOM     11  O   UNL     1       6.834  -1.863  25.864  0.00  0.00    -0.274 OA
BRANCH   9  12
ATOM     12  C   UNL     1       6.331  -2.516  23.173  0.00  0.00    +0.119 C 
ATOM     13  C   UNL     1       5.799  -3.873  23.611  0.00  0.00    +0.046 C 
ATOM     14  C   UNL     1       5.363  -3.308  22.297  0.00  0.00    +0.046 C 
BRANCH  12  15
ATOM     15  C   UNL     1       7.698  -2.301  22.564  0.00  0.00    +0.256 C 
ATOM     16  N   UNL     1       8.499  -1.360  23.203  0.00  0.00    -0.188 N 
ATOM     17  H   UNL     1       8.216  -0.965  24.098  0.00  0.00    +0.176 HD
ATOM     18  O   UNL     1       7.987  -2.826  21.501  0.00  0.00    -0.272 OA
BRANCH  16  19
ATOM     19  S   UNL     1       9.992  -0.898  22.662  0.00  0.00    +0.048 S 
ATOM     20  O   UNL     1       9.815  -0.107  21.465  0.00  0.00    -0.155 OA
ATOM     21  O   UNL     1      10.773  -2.117  22.638  0.00  0.00    -0.155 OA
BRANCH  19  22
ATOM     22  C   UNL     1      10.768   0.132  23.939  0.00  0.00    +0.151 C 
ATOM     23  C   UNL     1       9.968   0.432  25.172  0.00  0.00    +0.030 C 
ATOM     24  C   UNL     1      10.104   1.476  24.099  0.00  0.00    +0.030 C 
ENDBRANCH  19  22
ENDBRANCH  16  19
ENDBRANCH  12  15
BRANCH  13  25
ATOM     25  C   UNL     1       6.647  -5.061  23.727  0.00  0.00    -0.028 C 
ATOM     26  C   UNL     1       7.035  -5.932  22.787  0.00  0.00    +0.004 C 
ENDBRANCH  13  25
ENDBRANCH   9  12
ENDBRANCH   3   8
BRANCH   1  27
ATOM     27  C   UNL     1       3.661  -1.332  27.694  0.00  0.00    +0.168 C 
BRANCH  27  29
ATOM     28  C   UNL     1       1.712  -1.395  29.407  0.00  0.00    +0.013 C 
ATOM     29  C   UNL     1       2.163  -0.961  27.998  0.00  0.00    -0.011 C 
ATOM     30  C   UNL     1       2.008   0.581  27.955  0.00  0.00    +0.013 C 
ATOM     31  C   UNL     1       1.166  -1.576  27.006  0.00  0.00    +0.013 C 
ENDBRANCH  27  29
BRANCH  27  32
ATOM     32  N   UNL     1       4.046  -2.695  28.116  0.00  0.00    -0.269 N 
ATOM     33  H   UNL     1       4.585  -2.811  28.962  0.00  0.00    +0.153 HD
ATOM     34  C   UNL     1       3.974  -3.813  27.327  0.00  0.00    +0.401 C 
ATOM     35  O   UNL     1       3.740  -3.826  26.131  0.00  0.00    -0.226 OA
BRANCH  34  36
ATOM     36  O   UNL     1       4.162  -4.932  28.078  0.00  0.00    -0.445 OA
BRANCH  36  37
ATOM     37  C   UNL     1       5.287  -5.800  27.745  0.00  0.00    +0.107 C 
ATOM     38  C   UNL     1       4.936  -6.754  26.590  0.00  0.00    +0.055 C 
ATOM     39  C   UNL     1       5.551  -6.671  28.984  0.00  0.00    +0.055 C 
ATOM     40  C   UNL     1       6.558  -4.991  27.461  0.00  0.00    +0.055 C 
ENDBRANCH  36  37
ENDBRANCH  34  36
ENDBRANCH  27  32
ENDBRANCH   1  27
BRANCH   5  41
ATOM     41  O   UNL     1       5.861   3.194  26.978  0.00  0.00    -0.471 OA
BRANCH  41  42
ATOM     42  C   UNL     1       5.791   4.260  26.112  0.00  0.00    +0.223 A 
ATOM     43  C   UNL     1       4.592   4.431  25.413  0.00  0.00    +0.049 A 
ATOM     44  C   UNL     1       3.440   3.652  25.664  0.00  0.00    +0.034 A 
ATOM     45  C   UNL     1       2.303   3.806  24.882  0.00  0.00    +0.042 A 
ATOM     46 CL   UNL     1       0.919   2.827  25.184  0.00  0.00    -0.084 Cl
ATOM     47  C   UNL     1       2.284   4.734  23.852  0.00  0.00    +0.021 A 
ATOM     48  C   UNL     1       3.407   5.532  23.614  0.00  0.00    +0.014 A 
ATOM     49  C   UNL     1       4.582   5.401  24.388  0.00  0.00    +0.030 A 
ATOM     50  C   UNL     1       5.746   6.180  24.171  0.00  0.00    +0.146 A 
ATOM     51  C   UNL     1       6.851   5.944  24.982  0.00  0.00    +0.160 A 
ATOM     52  N   UNL     1       6.906   4.997  25.936  0.00  0.00    -0.217 NA
BRANCH  50  53
ATOM     53  O   UNL     1       5.706   7.106  23.161  0.00  0.00    -0.493 OA
ATOM     54  C   UNL     1       6.641   6.934  22.102  0.00  0.00    +0.277 C 
ENDBRANCH  50  53
ENDBRANCH  41  42
ENDBRANCH   5  41
TORSDOF 14
ENDMDL
MODEL 8
REMARK VINA RESULT:      -6.3      3.297      9.529
REMARK  Name = 
REMARK  21 active torsions:
REMARK  status: ('A' for Active; 'I' for Inactive)
REMARK    1  A    between atoms: C_1  and  C_2
REMARK    2  A    between atoms: C_2  and  C_3
REMARK    3  A    between atoms: C_2  and  C_4
REMARK    4  A    between atoms: C_2  and  C_5
REMARK    5  A    between atoms: C_5  and  C_7
REMARK    6  A    between atoms: C_5  and  N_48
REMARK    7  A    between atoms: C_11  and  O_34
REMARK    8  A    between atoms: C_14  and  C_16
REMARK    9  A    between atoms: N_18  and  C_19
REMARK   10  A    between atoms: C_19  and  C_25
REMARK   11  A    between atoms: C_21  and  C_23
REMARK   12  A    between atoms: N_27  and  S_28
REMARK   13  A    between atoms: S_28  and  C_31
REMARK   14  A    between atoms: O_34  and  C_35
REMARK   15  A    between atoms: C_38  and  O_46
REMARK   16  A    between atoms: O_46  and  C_47
REMARK   17  A    between atoms: C_49  and  O_51
REMARK   18  A    between atoms: O_51  and  C_52
REMARK   19  A    between atoms: C_52  and  C_53
REMARK   20  A    between atoms: C_52  and  C_54
REMARK   21  A    between atoms: C_52  and  C_55
REMARK                            x       y       z     vdW  Elec       q    Type
REMARK                         _______ _______ _______ _____ _____    ______ ____
ROOT
ATOM      1  C   UNL     1       5.144   0.352  28.287  0.00  0.00    +0.237 C 
ATOM      2  N   UNL     1       5.864   0.589  27.131  0.00  0.00    -0.285 N 
ATOM      3  C   UNL     1       5.501   0.271  25.756  0.00  0.00    +0.166 C 
ATOM      4  C   UNL     1       6.261   1.287  24.893  0.00  0.00    +0.078 C 
ATOM      5  C   UNL     1       6.994   2.224  25.872  0.00  0.00    +0.195 C 
ATOM      6  C   UNL     1       7.052   1.440  27.169  0.00  0.00    +0.153 C 
ATOM      7  O   UNL     1       5.598   0.815  29.336  0.00  0.00    -0.274 OA
ENDROOT
BRANCH   3   8
ATOM      8  C   UNL     1       5.896  -1.173  25.404  0.00  0.00    +0.234 C 
ATOM      9  N   UNL     1       5.580  -1.569  24.121  0.00  0.00    -0.299 N 
ATOM     10  H   UNL     1       5.405  -0.855  23.424  0.00  0.00    +0.150 HD
ATOM     11  O   UNL     1       6.349  -1.950  26.242  0.00  0.00    -0.274 OA
BRANCH   9  12
ATOM     12  C   UNL     1       5.918  -2.889  23.624  0.00  0.00    +0.119 C 
ATOM     13  C   UNL     1       5.090  -4.048  24.160  0.00  0.00    +0.046 C 
ATOM     14  C   UNL     1       4.893  -3.603  22.746  0.00  0.00    +0.046 C 
BRANCH  12  15
ATOM     15  C   UNL     1       7.348  -3.018  23.154  0.00  0.00    +0.256 C 
ATOM     16  N   UNL     1       8.221  -2.033  23.605  0.00  0.00    -0.188 N 
ATOM     17  H   UNL     1       7.923  -1.367  24.316  0.00  0.00    +0.176 HD
ATOM     18  O   UNL     1       7.647  -3.856  22.319  0.00  0.00    -0.272 OA
BRANCH  16  19
ATOM     19  S   UNL     1       9.806  -1.922  23.148  0.00  0.00    +0.048 S 
ATOM     20  O   UNL     1       9.851  -1.725  21.717  0.00  0.00    -0.155 OA
ATOM     21  O   UNL     1      10.451  -3.065  23.760  0.00  0.00    -0.155 OA
BRANCH  19  22
ATOM     22  C   UNL     1      10.537  -0.476  23.966  0.00  0.00    +0.151 C 
ATOM     23  C   UNL     1       9.808   0.098  25.144  0.00  0.00    +0.030 C 
ATOM     24  C   UNL     1       9.710   0.775  23.805  0.00  0.00    +0.030 C 
ENDBRANCH  19  22
ENDBRANCH  16  19
ENDBRANCH  12  15
BRANCH  13  25
ATOM     25  C   UNL     1       5.672  -5.345  24.514  0.00  0.00    -0.028 C 
ATOM     26  C   UNL     1       5.070  -6.485  24.871  0.00  0.00    +0.004 C 
ENDBRANCH  13  25
ENDBRANCH   9  12
ENDBRANCH   3   8
BRANCH   1  27
ATOM     27  C   UNL     1       3.859  -0.573  28.266  0.00  0.00    +0.168 C 
BRANCH  27  29
ATOM     28  C   UNL     1       2.413   1.562  28.558  0.00  0.00    +0.013 C 
ATOM     29  C   UNL     1       2.471   0.028  28.697  0.00  0.00    -0.011 C 
ATOM     30  C   UNL     1       1.369  -0.530  27.760  0.00  0.00    +0.013 C 
ATOM     31  C   UNL     1       2.086  -0.300  30.146  0.00  0.00    +0.013 C 
ENDBRANCH  27  29
BRANCH  27  32
ATOM     32  N   UNL     1       4.206  -1.842  28.938  0.00  0.00    -0.269 N 
ATOM     33  H   UNL     1       4.876  -1.829  29.694  0.00  0.00    +0.153 HD
ATOM     34  C   UNL     1       3.910  -3.093  28.462  0.00  0.00    +0.401 C 
ATOM     35  O   UNL     1       3.468  -3.345  27.354  0.00  0.00    -0.226 OA
BRANCH  34  36
ATOM     36  O   UNL     1       4.141  -4.029  29.421  0.00  0.00    -0.445 OA
BRANCH  36  37
ATOM     37  C   UNL     1       4.917  -5.209  29.055  0.00  0.00    +0.107 C 
ATOM     38  C   UNL     1       4.018  -6.311  28.466  0.00  0.00    +0.055 C 
ATOM     39  C   UNL     1       5.514  -5.764  30.358  0.00  0.00    +0.055 C 
ATOM     40  C   UNL     1       6.079  -4.851  28.122  0.00  0.00    +0.055 C 
ENDBRANCH  36  37
ENDBRANCH  34  36
ENDBRANCH  27  32
ENDBRANCH   1  27
BRANCH   5  41
ATOM     41  O   UNL     1       6.235   3.401  26.168  0.00  0.00    -0.471 OA
BRANCH  41  42
ATOM     42  C   UNL     1       5.595   3.935  25.074  0.00  0.00    +0.223 A 
ATOM     43  C   UNL     1       6.368   4.712  24.204  0.00  0.00    +0.049 A 
ATOM     44  C   UNL     1       7.770   4.845  24.336  0.00  0.00    +0.034 A 
ATOM     45  C   UNL     1       8.477   5.698  23.497  0.00  0.00    +0.042 A 
ATOM     46 CL   UNL     1      10.178   5.869  23.692  0.00  0.00    -0.084 Cl
ATOM     47  C   UNL     1       7.815   6.419  22.516  0.00  0.00    +0.021 A 
ATOM     48  C   UNL     1       6.434   6.272  22.357  0.00  0.00    +0.014 A 
ATOM     49  C   UNL     1       5.682   5.416  23.192  0.00  0.00    +0.030 A 
ATOM     50  C   UNL     1       4.279   5.249  23.073  0.00  0.00    +0.146 A 
ATOM     51  C   UNL     1       3.644   4.396  23.970  0.00  0.00    +0.160 A 
ATOM     52  N   UNL     1       4.264   3.747  24.972  0.00  0.00    -0.217 NA
BRANCH  50  53
ATOM     53  O   UNL     1       3.642   5.955  22.087  0.00  0.00    -0.493 OA
ATOM     54  C   UNL     1       2.437   5.393  21.577  0.00  0.00    +0.277 C 
ENDBRANCH  50  53
ENDBRANCH  41  42
ENDBRANCH   5  41
TORSDOF 14
ENDMDL
MODEL 9
REMARK VINA RESULT:      -6.2      3.345      8.692
REMARK  Name = 
REMARK  21 active torsions:
REMARK  status: ('A' for Active; 'I' for Inactive)
REMARK    1  A    between atoms: C_1  and  C_2
REMARK    2  A    between atoms: C_2  and  C_3
REMARK    3  A    between atoms: C_2  and  C_4
REMARK    4  A    between atoms: C_2  and  C_5
REMARK    5  A    between atoms: C_5  and  C_7
REMARK    6  A    between atoms: C_5  and  N_48
REMARK    7  A    between atoms: C_11  and  O_34
REMARK    8  A    between atoms: C_14  and  C_16
REMARK    9  A    between atoms: N_18  and  C_19
REMARK   10  A    between atoms: C_19  and  C_25
REMARK   11  A    between atoms: C_21  and  C_23
REMARK   12  A    between atoms: N_27  and  S_28
REMARK   13  A    between atoms: S_28  and  C_31
REMARK   14  A    between atoms: O_34  and  C_35
REMARK   15  A    between atoms: C_38  and  O_46
REMARK   16  A    between atoms: O_46  and  C_47
REMARK   17  A    between atoms: C_49  and  O_51
REMARK   18  A    between atoms: O_51  and  C_52
REMARK   19  A    between atoms: C_52  and  C_53
REMARK   20  A    between atoms: C_52  and  C_54
REMARK   21  A    between atoms: C_52  and  C_55
REMARK                            x       y       z     vdW  Elec       q    Type
REMARK                         _______ _______ _______ _____ _____    ______ ____
ROOT
ATOM      1  C   UNL     1       6.101  -0.883  25.093  0.00  0.00    +0.237 C 
ATOM      2  N   UNL     1       5.568  -0.114  26.111  0.00  0.00    -0.285 N 
ATOM      3  C   UNL     1       5.644  -0.335  27.549  0.00  0.00    +0.166 C 
ATOM      4  C   UNL     1       5.507   1.057  28.179  0.00  0.00    +0.078 C 
ATOM      5  C   UNL     1       5.432   2.057  27.009  0.00  0.00    +0.195 C 
ATOM      6  C   UNL     1       5.022   1.210  25.819  0.00  0.00    +0.153 C 
ATOM      7  O   UNL     1       6.011  -0.439  23.947  0.00  0.00    -0.274 OA
ENDROOT
BRANCH   3   8
ATOM      8  C   UNL     1       4.524  -1.278  28.019  0.00  0.00    +0.234 C 
ATOM      9  N   UNL     1       4.908  -2.588  28.219  0.00  0.00    -0.299 N 
ATOM     10  H   UNL     1       5.893  -2.789  28.345  0.00  0.00    +0.150 HD
ATOM     11  O   UNL     1       3.351  -0.915  28.094  0.00  0.00    -0.274 OA
BRANCH   9  12
ATOM     12  C   UNL     1       3.977  -3.593  28.696  0.00  0.00    +0.119 C 
ATOM     13  C   UNL     1       4.577  -4.776  29.441  0.00  0.00    +0.046 C 
ATOM     14  C   UNL     1       3.807  -3.747  30.205  0.00  0.00    +0.046 C 
BRANCH  12  15
ATOM     15  C   UNL     1       2.689  -3.655  27.908  0.00  0.00    +0.256 C 
ATOM     16  N   UNL     1       2.823  -3.967  26.559  0.00  0.00    -0.188 N 
ATOM     17  H   UNL     1       3.722  -4.269  26.187  0.00  0.00    +0.176 HD
ATOM     18  O   UNL     1       1.638  -3.305  28.419  0.00  0.00    -0.272 OA
BRANCH  16  19
ATOM     19  S   UNL     1       1.564  -4.003  25.488  0.00  0.00    +0.048 S 
ATOM     20  O   UNL     1       1.147  -2.642  25.235  0.00  0.00    -0.155 OA
ATOM     21  O   UNL     1       0.638  -4.974  26.033  0.00  0.00    -0.155 OA
BRANCH  19  22
ATOM     22  C   UNL     1       2.154  -4.737  23.936  0.00  0.00    +0.151 C 
ATOM     23  C   UNL     1       1.198  -5.600  23.168  0.00  0.00    +0.030 C 
ATOM     24  C   UNL     1       2.274  -6.238  24.001  0.00  0.00    +0.030 C 
ENDBRANCH  19  22
ENDBRANCH  16  19
ENDBRANCH  12  15
BRANCH  13  25
ATOM     25  C   UNL     1       4.108  -6.152  29.260  0.00  0.00    -0.028 C 
ATOM     26  C   UNL     1       4.537  -7.100  28.418  0.00  0.00    +0.004 C 
ENDBRANCH  13  25
ENDBRANCH   9  12
ENDBRANCH   3   8
BRANCH   1  27
ATOM     27  C   UNL     1       6.690  -2.323  25.390  0.00  0.00    +0.168 C 
BRANCH  27  29
ATOM     28  C   UNL     1       8.580  -3.841  26.316  0.00  0.00    +0.013 C 
ATOM     29  C   UNL     1       8.227  -2.479  25.687  0.00  0.00    -0.011 C 
ATOM     30  C   UNL     1       9.007  -2.409  24.350  0.00  0.00    +0.013 C 
ATOM     31  C   UNL     1       8.780  -1.400  26.629  0.00  0.00    +0.013 C 
ENDBRANCH  27  29
BRANCH  27  32
ATOM     32  N   UNL     1       6.175  -3.243  24.355  0.00  0.00    -0.269 N 
ATOM     33  H   UNL     1       5.950  -2.876  23.442  0.00  0.00    +0.153 HD
ATOM     34  C   UNL     1       5.715  -4.513  24.589  0.00  0.00    +0.401 C 
ATOM     35  O   UNL     1       5.512  -5.005  25.685  0.00  0.00    -0.226 OA
BRANCH  34  36
ATOM     36  O   UNL     1       5.549  -5.177  23.413  0.00  0.00    -0.445 OA
BRANCH  36  37
ATOM     37  C   UNL     1       6.623  -5.106  22.428  0.00  0.00    +0.107 C 
ATOM     38  C   UNL     1       6.771  -3.684  21.860  0.00  0.00    +0.055 C 
ATOM     39  C   UNL     1       6.209  -6.017  21.261  0.00  0.00    +0.055 C 
ATOM     40  C   UNL     1       7.943  -5.642  22.995  0.00  0.00    +0.055 C 
ENDBRANCH  36  37
ENDBRANCH  34  36
ENDBRANCH  27  32
ENDBRANCH   1  27
BRANCH   5  41
ATOM     41  O   UNL     1       6.715   2.595  26.673  0.00  0.00    -0.471 OA
BRANCH  41  42
ATOM     42  C   UNL     1       6.763   3.170  25.425  0.00  0.00    +0.223 A 
ATOM     43  C   UNL     1       7.842   2.821  24.607  0.00  0.00    +0.049 A 
ATOM     44  C   UNL     1       8.778   1.821  24.959  0.00  0.00    +0.034 A 
ATOM     45  C   UNL     1       9.880   1.574  24.150  0.00  0.00    +0.042 A 
ATOM     46 CL   UNL     1      11.024   0.373  24.610  0.00  0.00    -0.084 Cl
ATOM     47  C   UNL     1      10.067   2.299  22.983  0.00  0.00    +0.021 A 
ATOM     48  C   UNL     1       9.131   3.268  22.610  0.00  0.00    +0.014 A 
ATOM     49  C   UNL     1       8.000   3.548  23.408  0.00  0.00    +0.030 A 
ATOM     50  C   UNL     1       7.036   4.531  23.073  0.00  0.00    +0.146 A 
ATOM     51  C   UNL     1       5.977   4.735  23.951  0.00  0.00    +0.160 A 
ATOM     52  N   UNL     1       5.824   4.089  25.122  0.00  0.00    -0.217 NA
BRANCH  50  53
ATOM     53  O   UNL     1       7.225   5.228  21.907  0.00  0.00    -0.493 OA
ATOM     54  C   UNL     1       6.973   6.628  21.953  0.00  0.00    +0.277 C 
ENDBRANCH  50  53
ENDBRANCH  41  42
ENDBRANCH   5  41
TORSDOF 14
ENDMDL
