MODEL 1
REMARK VINA RESULT:      -5.9      0.000      0.000
REMARK  Name = 
REMARK  15 active torsions:
REMARK  status: ('A' for Active; 'I' for Inactive)
REMARK    1  A    between atoms: C_1  and  C_2
REMARK    2  A    between atoms: C_2  and  C_3
REMARK    3  A    between atoms: C_3  and  C_4
REMARK    4  A    between atoms: C_4  and  C_5
REMARK    5  A    between atoms: C_5  and  C_6
REMARK    6  A    between atoms: C_6  and  C_7
REMARK    7  A    between atoms: C_7  and  C_8
REMARK    8  A    between atoms: C_8  and  C_9
REMARK    9  A    between atoms: C_9  and  C_10
REMARK   10  A    between atoms: N_12  and  C_13
REMARK   11  A    between atoms: C_13  and  C_14
REMARK   12  A    between atoms: C_13  and  C_21
REMARK   13  A    between atoms: C_14  and  N_15
REMARK   14  A    between atoms: C_21  and  C_22
REMARK   15  A    between atoms: C_21  and  O_28
REMARK                            x       y       z     vdW  Elec       q    Type
REMARK                         _______ _______ _______ _____ _____    ______ ____
ROOT
ATOM      1  C   UNL     1       7.936  -2.057  23.135  0.00  0.00    +0.120 C 
ENDROOT
BRANCH   1   3
ATOM      2  C   UNL     1       6.573  -0.564  24.615  0.00  0.00    +0.213 C 
ATOM      3  N   UNL     1       7.107  -0.850  23.374  0.00  0.00    -0.308 N 
ATOM      4  H   UNL     1       6.700  -0.396  22.566  0.00  0.00    +0.149 HD
ATOM      5  O   UNL     1       6.747  -1.281  25.594  0.00  0.00    -0.276 OA
BRANCH   2   6
ATOM      6  C   UNL     1       5.764   0.726  24.645  0.00  0.00    +0.096 C 
BRANCH   6   7
ATOM      7  C   UNL     1       6.588   1.947  24.216  0.00  0.00    +0.009 C 
BRANCH   7   8
ATOM      8  C   UNL     1       7.576   2.392  25.301  0.00  0.00    +0.000 C 
BRANCH   8   9
ATOM      9  C   UNL     1       7.432   3.887  25.617  0.00  0.00    +0.000 C 
BRANCH   9  10
ATOM     10  C   UNL     1       8.666   4.684  25.179  0.00  0.00    +0.000 C 
BRANCH  10  11
ATOM     11  C   UNL     1       8.523   5.220  23.750  0.00  0.00    -0.000 C 
BRANCH  11  12
ATOM     12  C   UNL     1       9.554   6.314  23.459  0.00  0.00    -0.000 C 
BRANCH  12  14
ATOM     13  C   UNL     1      11.997   5.748  23.721  0.00  0.00    +0.004 C 
ATOM     14  C   UNL     1      10.741   6.247  24.420  0.00  0.00    -0.003 C 
ENDBRANCH  12  14
ENDBRANCH  11  12
ENDBRANCH  10  11
ENDBRANCH   9  10
ENDBRANCH   8   9
ENDBRANCH   7   8
ENDBRANCH   6   7
ENDBRANCH   2   6
ENDBRANCH   1   3
BRANCH   1  15
ATOM     15  C   UNL     1       9.325  -1.695  22.516  0.00  0.00    +0.166 C 
BRANCH  15  16
ATOM     16  C   UNL     1       9.769  -0.263  22.775  0.00  0.00    -0.017 A 
ATOM     17  C   UNL     1      10.370   0.044  24.005  0.00  0.00    +0.006 A 
ATOM     18  C   UNL     1      10.853   1.326  24.270  0.00  0.00    +0.000 A 
ATOM     19  C   UNL     1      10.726   2.327  23.312  0.00  0.00    +0.000 A 
ATOM     20  C   UNL     1      10.110   2.048  22.094  0.00  0.00    +0.000 A 
ATOM     21  C   UNL     1       9.637   0.763  21.826  0.00  0.00    +0.006 A 
ENDBRANCH  15  16
BRANCH  15  22
ATOM     22  O   UNL     1      10.327  -2.618  22.966  0.00  0.00    -0.385 OA
ATOM     23  H   UNL     1      10.754  -2.994  22.181  0.00  0.00    +0.210 HD
ENDBRANCH  15  22
ENDBRANCH   1  15
BRANCH   1  24
ATOM     24  C   UNL     1       7.162  -3.137  22.307  0.00  0.00    +0.109 C 
BRANCH  24  25
ATOM     25  N   UNL     1       7.594  -4.533  22.539  0.00  0.00    -0.296 NA
ATOM     26  C   UNL     1       6.737  -5.518  21.833  0.00  0.00    +0.112 C 
ATOM     27  C   UNL     1       5.374  -5.796  22.493  0.00  0.00    +0.175 C 
ATOM     28  O   UNL     1       5.495  -6.091  23.892  0.00  0.00    -0.377 OA
ATOM     29  C   UNL     1       6.214  -5.061  24.579  0.00  0.00    +0.175 C 
ATOM     30  C   UNL     1       7.617  -4.913  23.973  0.00  0.00    +0.112 C 
ENDBRANCH  24  25
ENDBRANCH   1  24
TORSDOF 14
ENDMDL
MODEL 2
REMARK VINA RESULT:      -5.7      1.112      1.835
REMARK  Name = 
REMARK  15 active torsions:
REMARK  status: ('A' for Active; 'I' for Inactive)
REMARK    1  A    between atoms: C_1  and  C_2
REMARK    2  A    between atoms: C_2  and  C_3
REMARK    3  A    between atoms: C_3  and  C_4
REMARK    4  A    between atoms: C_4  and  C_5
REMARK    5  A    between atoms: C_5  and  C_6
REMARK    6  A    between atoms: C_6  and  C_7
REMARK    7  A    between atoms: C_7  and  C_8
REMARK    8  A    between atoms: C_8  and  C_9
REMARK    9  A    between atoms: C_9  and  C_10
REMARK   10  A    between atoms: N_12  and  C_13
REMARK   11  A    between atoms: C_13  and  C_14
REMARK   12  A    between atoms: C_13  and  C_21
REMARK   13  A    between atoms: C_14  and  N_15
REMARK   14  A    between atoms: C_21  and  C_22
REMARK   15  A    between atoms: C_21  and  O_28
REMARK                            x       y       z     vdW  Elec       q    Type
REMARK                         _______ _______ _______ _____ _____    ______ ____
ROOT
ATOM      1  C   UNL     1       8.131  -2.174  23.485  0.00  0.00    +0.120 C 
ENDROOT
BRANCH   1   3
ATOM      2  C   UNL     1       7.183  -0.623  25.209  0.00  0.00    +0.213 C 
ATOM      3  N   UNL     1       7.392  -0.952  23.884  0.00  0.00    -0.308 N 
ATOM      4  H   UNL     1       6.798  -0.518  23.188  0.00  0.00    +0.149 HD
ATOM      5  O   UNL     1       7.592  -1.312  26.136  0.00  0.00    -0.276 OA
BRANCH   2   6
ATOM      6  C   UNL     1       6.410   0.677  25.397  0.00  0.00    +0.096 C 
BRANCH   6   7
ATOM      7  C   UNL     1       7.329   1.869  25.691  0.00  0.00    +0.009 C 
BRANCH   7   8
ATOM      8  C   UNL     1       7.297   2.918  24.573  0.00  0.00    +0.000 C 
BRANCH   8   9
ATOM      9  C   UNL     1       6.248   2.577  23.507  0.00  0.00    +0.000 C 
BRANCH   9  10
ATOM     10  C   UNL     1       6.195   3.634  22.399  0.00  0.00    +0.000 C 
BRANCH  10  11
ATOM     11  C   UNL     1       7.495   4.441  22.315  0.00  0.00    -0.000 C 
BRANCH  11  12
ATOM     12  C   UNL     1       7.215   5.944  22.240  0.00  0.00    -0.000 C 
BRANCH  12  14
ATOM     13  C   UNL     1       9.401   6.197  23.472  0.00  0.00    +0.004 C 
ATOM     14  C   UNL     1       7.981   6.720  23.313  0.00  0.00    -0.003 C 
ENDBRANCH  12  14
ENDBRANCH  11  12
ENDBRANCH  10  11
ENDBRANCH   9  10
ENDBRANCH   8   9
ENDBRANCH   7   8
ENDBRANCH   6   7
ENDBRANCH   2   6
ENDBRANCH   1   3
BRANCH   1  15
ATOM     15  C   UNL     1       9.488  -1.832  22.786  0.00  0.00    +0.166 C 
BRANCH  15  16
ATOM     16  C   UNL     1       9.891  -0.369  22.893  0.00  0.00    -0.017 A 
ATOM     17  C   UNL     1       9.625   0.485  21.812  0.00  0.00    +0.006 A 
ATOM     18  C   UNL     1       9.916   1.848  21.883  0.00  0.00    +0.000 A 
ATOM     19  C   UNL     1      10.494   2.376  23.033  0.00  0.00    +0.000 A 
ATOM     20  C   UNL     1      10.788   1.540  24.109  0.00  0.00    +0.000 A 
ATOM     21  C   UNL     1      10.487   0.179  24.041  0.00  0.00    +0.006 A 
ENDBRANCH  15  16
BRANCH  15  22
ATOM     22  O   UNL     1      10.534  -2.676  23.287  0.00  0.00    -0.385 OA
ATOM     23  H   UNL     1      10.558  -2.574  24.250  0.00  0.00    +0.210 HD
ENDBRANCH  15  22
ENDBRANCH   1  15
BRANCH   1  24
ATOM     24  C   UNL     1       7.238  -3.143  22.640  0.00  0.00    +0.109 C 
BRANCH  24  25
ATOM     25  N   UNL     1       7.114  -4.514  23.182  0.00  0.00    -0.296 NA
ATOM     26  C   UNL     1       7.168  -5.551  22.122  0.00  0.00    +0.112 C 
ATOM     27  C   UNL     1       5.875  -5.723  21.304  0.00  0.00    +0.175 C 
ATOM     28  O   UNL     1       4.715  -5.864  22.138  0.00  0.00    -0.377 OA
ATOM     29  C   UNL     1       4.612  -4.781  23.069  0.00  0.00    +0.175 C 
ATOM     30  C   UNL     1       5.866  -4.734  23.953  0.00  0.00    +0.112 C 
ENDBRANCH  24  25
ENDBRANCH   1  24
TORSDOF 14
ENDMDL
MODEL 3
REMARK VINA RESULT:      -5.5      1.301      1.716
REMARK  Name = 
REMARK  15 active torsions:
REMARK  status: ('A' for Active; 'I' for Inactive)
REMARK    1  A    between atoms: C_1  and  C_2
REMARK    2  A    between atoms: C_2  and  C_3
REMARK    3  A    between atoms: C_3  and  C_4
REMARK    4  A    between atoms: C_4  and  C_5
REMARK    5  A    between atoms: C_5  and  C_6
REMARK    6  A    between atoms: C_6  and  C_7
REMARK    7  A    between atoms: C_7  and  C_8
REMARK    8  A    between atoms: C_8  and  C_9
REMARK    9  A    between atoms: C_9  and  C_10
REMARK   10  A    between atoms: N_12  and  C_13
REMARK   11  A    between atoms: C_13  and  C_14
REMARK   12  A    between atoms: C_13  and  C_21
REMARK   13  A    between atoms: C_14  and  N_15
REMARK   14  A    between atoms: C_21  and  C_22
REMARK   15  A    between atoms: C_21  and  O_28
REMARK                            x       y       z     vdW  Elec       q    Type
REMARK                         _______ _______ _______ _____ _____    ______ ____
ROOT
ATOM      1  C   UNL     1       7.843  -2.027  23.069  0.00  0.00    +0.120 C 
ENDROOT
BRANCH   1   3
ATOM      2  C   UNL     1       6.594  -0.448  24.560  0.00  0.00    +0.213 C 
ATOM      3  N   UNL     1       7.036  -0.804  23.301  0.00  0.00    -0.308 N 
ATOM      4  H   UNL     1       6.572  -0.393  22.501  0.00  0.00    +0.149 HD
ATOM      5  O   UNL     1       6.837  -1.111  25.561  0.00  0.00    -0.276 OA
BRANCH   2   6
ATOM      6  C   UNL     1       5.791   0.847  24.577  0.00  0.00    +0.096 C 
BRANCH   6   7
ATOM      7  C   UNL     1       6.227   1.794  25.701  0.00  0.00    +0.009 C 
BRANCH   7   8
ATOM      8  C   UNL     1       7.624   2.379  25.460  0.00  0.00    +0.000 C 
BRANCH   8   9
ATOM      9  C   UNL     1       7.720   3.832  25.946  0.00  0.00    +0.000 C 
BRANCH   9  10
ATOM     10  C   UNL     1       6.479   4.645  25.563  0.00  0.00    +0.000 C 
BRANCH  10  11
ATOM     11  C   UNL     1       6.788   5.683  24.478  0.00  0.00    -0.000 C 
BRANCH  11  12
ATOM     12  C   UNL     1       6.223   5.255  23.121  0.00  0.00    -0.000 C 
BRANCH  12  14
ATOM     13  C   UNL     1       6.698   3.083  21.931  0.00  0.00    +0.004 C 
ATOM     14  C   UNL     1       7.240   4.454  22.307  0.00  0.00    -0.003 C 
ENDBRANCH  12  14
ENDBRANCH  11  12
ENDBRANCH  10  11
ENDBRANCH   9  10
ENDBRANCH   8   9
ENDBRANCH   7   8
ENDBRANCH   6   7
ENDBRANCH   2   6
ENDBRANCH   1   3
BRANCH   1  15
ATOM     15  C   UNL     1       9.257  -1.690  22.492  0.00  0.00    +0.166 C 
BRANCH  15  16
ATOM     16  C   UNL     1       9.729  -0.275  22.788  0.00  0.00    -0.017 A 
ATOM     17  C   UNL     1      10.309  -0.004  24.036  0.00  0.00    +0.006 A 
ATOM     18  C   UNL     1      10.816   1.262  24.335  0.00  0.00    +0.000 A 
ATOM     19  C   UNL     1      10.736   2.282  23.393  0.00  0.00    +0.000 A 
ATOM     20  C   UNL     1      10.142   2.040  22.156  0.00  0.00    +0.000 A 
ATOM     21  C   UNL     1       9.644   0.771  21.855  0.00  0.00    +0.006 A 
ENDBRANCH  15  16
BRANCH  15  22
ATOM     22  O   UNL     1      10.224  -2.645  22.951  0.00  0.00    -0.385 OA
ATOM     23  H   UNL     1       9.744  -3.353  23.407  0.00  0.00    +0.210 HD
ENDBRANCH  15  22
ENDBRANCH   1  15
BRANCH   1  24
ATOM     24  C   UNL     1       7.068  -3.079  22.207  0.00  0.00    +0.109 C 
BRANCH  24  25
ATOM     25  N   UNL     1       7.546  -4.474  22.340  0.00  0.00    -0.296 NA
ATOM     26  C   UNL     1       6.699  -5.437  21.595  0.00  0.00    +0.112 C 
ATOM     27  C   UNL     1       5.362  -5.797  22.269  0.00  0.00    +0.175 C 
ATOM     28  O   UNL     1       5.528  -6.175  23.644  0.00  0.00    -0.377 OA
ATOM     29  C   UNL     1       6.236  -5.169  24.377  0.00  0.00    +0.175 C 
ATOM     30  C   UNL     1       7.617  -4.941  23.746  0.00  0.00    +0.112 C 
ENDBRANCH  24  25
ENDBRANCH   1  24
TORSDOF 14
ENDMDL
MODEL 4
REMARK VINA RESULT:      -5.5      2.666      7.846
REMARK  Name = 
REMARK  15 active torsions:
REMARK  status: ('A' for Active; 'I' for Inactive)
REMARK    1  A    between atoms: C_1  and  C_2
REMARK    2  A    between atoms: C_2  and  C_3
REMARK    3  A    between atoms: C_3  and  C_4
REMARK    4  A    between atoms: C_4  and  C_5
REMARK    5  A    between atoms: C_5  and  C_6
REMARK    6  A    between atoms: C_6  and  C_7
REMARK    7  A    between atoms: C_7  and  C_8
REMARK    8  A    between atoms: C_8  and  C_9
REMARK    9  A    between atoms: C_9  and  C_10
REMARK   10  A    between atoms: N_12  and  C_13
REMARK   11  A    between atoms: C_13  and  C_14
REMARK   12  A    between atoms: C_13  and  C_21
REMARK   13  A    between atoms: C_14  and  N_15
REMARK   14  A    between atoms: C_21  and  C_22
REMARK   15  A    between atoms: C_21  and  O_28
REMARK                            x       y       z     vdW  Elec       q    Type
REMARK                         _______ _______ _______ _____ _____    ______ ____
ROOT
ATOM      1  C   UNL     1       7.812  -2.158  24.874  0.00  0.00    +0.120 C 
ENDROOT
BRANCH   1   3
ATOM      2  C   UNL     1       5.623  -1.993  26.082  0.00  0.00    +0.213 C 
ATOM      3  N   UNL     1       6.981  -2.244  26.100  0.00  0.00    -0.308 N 
ATOM      4  H   UNL     1       7.459  -2.204  26.991  0.00  0.00    +0.149 HD
ATOM      5  O   UNL     1       5.017  -1.686  25.062  0.00  0.00    -0.276 OA
BRANCH   2   6
ATOM      6  C   UNL     1       4.960  -2.146  27.446  0.00  0.00    +0.096 C 
BRANCH   6   7
ATOM      7  C   UNL     1       3.708  -3.030  27.394  0.00  0.00    +0.009 C 
BRANCH   7   8
ATOM      8  C   UNL     1       3.786  -4.208  28.373  0.00  0.00    +0.000 C 
BRANCH   8   9
ATOM      9  C   UNL     1       5.189  -4.830  28.398  0.00  0.00    +0.000 C 
BRANCH   9  10
ATOM     10  C   UNL     1       5.254  -6.125  27.580  0.00  0.00    +0.000 C 
BRANCH  10  11
ATOM     11  C   UNL     1       5.838  -5.889  26.182  0.00  0.00    -0.000 C 
BRANCH  11  12
ATOM     12  C   UNL     1       4.875  -6.361  25.089  0.00  0.00    -0.000 C 
BRANCH  12  14
ATOM     13  C   UNL     1       3.211  -5.665  23.327  0.00  0.00    +0.004 C 
ATOM     14  C   UNL     1       4.118  -5.194  24.454  0.00  0.00    -0.003 C 
ENDBRANCH  12  14
ENDBRANCH  11  12
ENDBRANCH  10  11
ENDBRANCH   9  10
ENDBRANCH   8   9
ENDBRANCH   7   8
ENDBRANCH   6   7
ENDBRANCH   2   6
ENDBRANCH   1   3
BRANCH   1  15
ATOM     15  C   UNL     1       8.373  -3.555  24.453  0.00  0.00    +0.166 C 
BRANCH  15  16
ATOM     16  C   UNL     1       7.601  -4.222  23.325  0.00  0.00    -0.017 A 
ATOM     17  C   UNL     1       6.740  -3.439  22.541  0.00  0.00    +0.006 A 
ATOM     18  C   UNL     1       6.057  -3.987  21.455  0.00  0.00    +0.000 A 
ATOM     19  C   UNL     1       6.213  -5.334  21.145  0.00  0.00    +0.000 A 
ATOM     20  C   UNL     1       7.045  -6.135  21.925  0.00  0.00    +0.000 A 
ATOM     21  C   UNL     1       7.736  -5.583  23.005  0.00  0.00    +0.006 A 
ENDBRANCH  15  16
BRANCH  15  22
ATOM     22  O   UNL     1       9.763  -3.452  24.114  0.00  0.00    -0.385 OA
ATOM     23  H   UNL     1      10.177  -2.848  24.749  0.00  0.00    +0.210 HD
ENDBRANCH  15  22
ENDBRANCH   1  15
BRANCH   1  24
ATOM     24  C   UNL     1       8.926  -1.066  25.004  0.00  0.00    +0.109 C 
BRANCH  24  25
ATOM     25  N   UNL     1       9.565  -0.669  23.729  0.00  0.00    -0.296 NA
ATOM     26  C   UNL     1      10.628   0.348  23.921  0.00  0.00    +0.112 C 
ATOM     27  C   UNL     1      10.130   1.786  24.156  0.00  0.00    +0.175 C 
ATOM     28  O   UNL     1       9.161   2.194  23.179  0.00  0.00    -0.377 OA
ATOM     29  C   UNL     1       8.076   1.264  23.103  0.00  0.00    +0.175 C 
ATOM     30  C   UNL     1       8.609  -0.128  22.733  0.00  0.00    +0.112 C 
ENDBRANCH  24  25
ENDBRANCH   1  24
TORSDOF 14
ENDMDL
MODEL 5
REMARK VINA RESULT:      -5.4      3.287      6.637
REMARK  Name = 
REMARK  15 active torsions:
REMARK  status: ('A' for Active; 'I' for Inactive)
REMARK    1  A    between atoms: C_1  and  C_2
REMARK    2  A    between atoms: C_2  and  C_3
REMARK    3  A    between atoms: C_3  and  C_4
REMARK    4  A    between atoms: C_4  and  C_5
REMARK    5  A    between atoms: C_5  and  C_6
REMARK    6  A    between atoms: C_6  and  C_7
REMARK    7  A    between atoms: C_7  and  C_8
REMARK    8  A    between atoms: C_8  and  C_9
REMARK    9  A    between atoms: C_9  and  C_10
REMARK   10  A    between atoms: N_12  and  C_13
REMARK   11  A    between atoms: C_13  and  C_14
REMARK   12  A    between atoms: C_13  and  C_21
REMARK   13  A    between atoms: C_14  and  N_15
REMARK   14  A    between atoms: C_21  and  C_22
REMARK   15  A    between atoms: C_21  and  O_28
REMARK                            x       y       z     vdW  Elec       q    Type
REMARK                         _______ _______ _______ _____ _____    ______ ____
ROOT
ATOM      1  C   UNL     1       5.239  -6.114  26.012  0.00  0.00    +0.120 C 
ENDROOT
BRANCH   1   3
ATOM      2  C   UNL     1       7.479  -5.347  26.831  0.00  0.00    +0.213 C 
ATOM      3  N   UNL     1       6.490  -5.331  25.867  0.00  0.00    -0.308 N 
ATOM      4  H   UNL     1       6.489  -4.569  25.201  0.00  0.00    +0.149 HD
ATOM      5  O   UNL     1       7.391  -6.003  27.862  0.00  0.00    -0.276 OA
BRANCH   2   6
ATOM      6  C   UNL     1       8.683  -4.482  26.480  0.00  0.00    +0.096 C 
BRANCH   6   7
ATOM      7  C   UNL     1       9.134  -4.666  25.026  0.00  0.00    +0.009 C 
BRANCH   7   8
ATOM      8  C   UNL     1       9.382  -3.327  24.319  0.00  0.00    +0.000 C 
BRANCH   8   9
ATOM      9  C   UNL     1       8.213  -2.354  24.525  0.00  0.00    +0.000 C 
BRANCH   9  10
ATOM     10  C   UNL     1       8.101  -1.345  23.377  0.00  0.00    +0.000 C 
BRANCH  10  11
ATOM     11  C   UNL     1       8.994  -1.727  22.191  0.00  0.00    -0.000 C 
BRANCH  11  12
ATOM     12  C   UNL     1       9.499  -0.485  21.451  0.00  0.00    -0.000 C 
BRANCH  12  14
ATOM     13  C   UNL     1       9.525   1.949  22.108  0.00  0.00    +0.004 C 
ATOM     14  C   UNL     1      10.065   0.560  22.414  0.00  0.00    -0.003 C 
ENDBRANCH  12  14
ENDBRANCH  11  12
ENDBRANCH  10  11
ENDBRANCH   9  10
ENDBRANCH   8   9
ENDBRANCH   7   8
ENDBRANCH   6   7
ENDBRANCH   2   6
ENDBRANCH   1   3
BRANCH   1  15
ATOM     15  C   UNL     1       4.502  -6.293  24.645  0.00  0.00    +0.166 C 
BRANCH  15  16
ATOM     16  C   UNL     1       5.135  -5.528  23.492  0.00  0.00    -0.017 A 
ATOM     17  C   UNL     1       4.767  -4.190  23.287  0.00  0.00    +0.006 A 
ATOM     18  C   UNL     1       5.364  -3.424  22.284  0.00  0.00    +0.000 A 
ATOM     19  C   UNL     1       6.330  -3.992  21.460  0.00  0.00    +0.000 A 
ATOM     20  C   UNL     1       6.693  -5.326  21.632  0.00  0.00    +0.000 A 
ATOM     21  C   UNL     1       6.102  -6.088  22.641  0.00  0.00    +0.006 A 
ENDBRANCH  15  16
BRANCH  15  22
ATOM     22  O   UNL     1       4.388  -7.685  24.318  0.00  0.00    -0.385 OA
ATOM     23  H   UNL     1       5.232  -7.966  23.933  0.00  0.00    +0.210 HD
ENDBRANCH  15  22
ENDBRANCH   1  15
BRANCH   1  24
ATOM     24  C   UNL     1       4.314  -5.527  27.131  0.00  0.00    +0.109 C 
BRANCH  24  25
ATOM     25  N   UNL     1       4.060  -4.072  27.034  0.00  0.00    -0.296 NA
ATOM     26  C   UNL     1       4.542  -3.332  28.226  0.00  0.00    +0.112 C 
ATOM     27  C   UNL     1       3.645  -3.438  29.473  0.00  0.00    +0.175 C 
ATOM     28  O   UNL     1       2.269  -3.155  29.182  0.00  0.00    -0.377 OA
ATOM     29  C   UNL     1       1.786  -3.975  28.113  0.00  0.00    +0.175 C 
ATOM     30  C   UNL     1       2.628  -3.734  26.851  0.00  0.00    +0.112 C 
ENDBRANCH  24  25
ENDBRANCH   1  24
TORSDOF 14
ENDMDL
MODEL 6
REMARK VINA RESULT:      -5.4      1.335      2.100
REMARK  Name = 
REMARK  15 active torsions:
REMARK  status: ('A' for Active; 'I' for Inactive)
REMARK    1  A    between atoms: C_1  and  C_2
REMARK    2  A    between atoms: C_2  and  C_3
REMARK    3  A    between atoms: C_3  and  C_4
REMARK    4  A    between atoms: C_4  and  C_5
REMARK    5  A    between atoms: C_5  and  C_6
REMARK    6  A    between atoms: C_6  and  C_7
REMARK    7  A    between atoms: C_7  and  C_8
REMARK    8  A    between atoms: C_8  and  C_9
REMARK    9  A    between atoms: C_9  and  C_10
REMARK   10  A    between atoms: N_12  and  C_13
REMARK   11  A    between atoms: C_13  and  C_14
REMARK   12  A    between atoms: C_13  and  C_21
REMARK   13  A    between atoms: C_14  and  N_15
REMARK   14  A    between atoms: C_21  and  C_22
REMARK   15  A    between atoms: C_21  and  O_28
REMARK                            x       y       z     vdW  Elec       q    Type
REMARK                         _______ _______ _______ _____ _____    ______ ____
ROOT
ATOM      1  C   UNL     1       7.226  -1.513  23.296  0.00  0.00    +0.120 C 
ENDROOT
BRANCH   1   3
ATOM      2  C   UNL     1       6.258   0.594  24.244  0.00  0.00    +0.213 C 
ATOM      3  N   UNL     1       6.532  -0.210  23.155  0.00  0.00    -0.308 N 
ATOM      4  H   UNL     1       6.008  -0.049  22.304  0.00  0.00    +0.149 HD
ATOM      5  O   UNL     1       6.568   0.290  25.390  0.00  0.00    -0.276 OA
BRANCH   2   6
ATOM      6  C   UNL     1       5.548   1.892  23.877  0.00  0.00    +0.096 C 
BRANCH   6   7
ATOM      7  C   UNL     1       6.114   2.531  22.604  0.00  0.00    +0.009 C 
BRANCH   7   8
ATOM      8  C   UNL     1       6.064   4.063  22.649  0.00  0.00    +0.000 C 
BRANCH   8   9
ATOM      9  C   UNL     1       7.356   4.688  22.104  0.00  0.00    +0.000 C 
BRANCH   9  10
ATOM     10  C   UNL     1       7.809   5.887  22.944  0.00  0.00    +0.000 C 
BRANCH  10  11
ATOM     11  C   UNL     1       7.498   5.694  24.432  0.00  0.00    -0.000 C 
BRANCH  11  12
ATOM     12  C   UNL     1       8.617   4.925  25.140  0.00  0.00    -0.000 C 
BRANCH  12  14
ATOM     13  C   UNL     1       7.089   3.722  26.745  0.00  0.00    +0.004 C 
ATOM     14  C   UNL     1       8.138   3.567  25.654  0.00  0.00    -0.003 C 
ENDBRANCH  12  14
ENDBRANCH  11  12
ENDBRANCH  10  11
ENDBRANCH   9  10
ENDBRANCH   8   9
ENDBRANCH   7   8
ENDBRANCH   6   7
ENDBRANCH   2   6
ENDBRANCH   1   3
BRANCH   1  15
ATOM     15  C   UNL     1       8.692  -1.452  22.758  0.00  0.00    +0.166 C 
BRANCH  15  16
ATOM     16  C   UNL     1       9.358  -0.093  22.917  0.00  0.00    -0.017 A 
ATOM     17  C   UNL     1       9.992   0.210  24.131  0.00  0.00    +0.006 A 
ATOM     18  C   UNL     1      10.672   1.416  24.306  0.00  0.00    +0.000 A 
ATOM     19  C   UNL     1      10.713   2.346  23.273  0.00  0.00    +0.000 A 
ATOM     20  C   UNL     1      10.069   2.074  22.068  0.00  0.00    +0.000 A 
ATOM     21  C   UNL     1       9.399   0.864  21.890  0.00  0.00    +0.006 A 
ENDBRANCH  15  16
BRANCH  15  22
ATOM     22  O   UNL     1       9.491  -2.474  23.372  0.00  0.00    -0.385 OA
ATOM     23  H   UNL     1       9.035  -3.319  23.245  0.00  0.00    +0.210 HD
ENDBRANCH  15  22
ENDBRANCH   1  15
BRANCH   1  24
ATOM     24  C   UNL     1       6.395  -2.683  22.670  0.00  0.00    +0.109 C 
BRANCH  24  25
ATOM     25  N   UNL     1       6.723  -4.031  23.186  0.00  0.00    -0.296 NA
ATOM     26  C   UNL     1       7.137  -4.965  22.111  0.00  0.00    +0.112 C 
ATOM     27  C   UNL     1       5.990  -5.537  21.258  0.00  0.00    +0.175 C 
ATOM     28  O   UNL     1       4.928  -6.074  22.060  0.00  0.00    -0.377 OA
ATOM     29  C   UNL     1       4.454  -5.109  23.006  0.00  0.00    +0.175 C 
ATOM     30  C   UNL     1       5.605  -4.670  23.922  0.00  0.00    +0.112 C 
ENDBRANCH  24  25
ENDBRANCH   1  24
TORSDOF 14
ENDMDL
MODEL 7
REMARK VINA RESULT:      -5.4      2.383      5.102
REMARK  Name = 
REMARK  15 active torsions:
REMARK  status: ('A' for Active; 'I' for Inactive)
REMARK    1  A    between atoms: C_1  and  C_2
REMARK    2  A    between atoms: C_2  and  C_3
REMARK    3  A    between atoms: C_3  and  C_4
REMARK    4  A    between atoms: C_4  and  C_5
REMARK    5  A    between atoms: C_5  and  C_6
REMARK    6  A    between atoms: C_6  and  C_7
REMARK    7  A    between atoms: C_7  and  C_8
REMARK    8  A    between atoms: C_8  and  C_9
REMARK    9  A    between atoms: C_9  and  C_10
REMARK   10  A    between atoms: N_12  and  C_13
REMARK   11  A    between atoms: C_13  and  C_14
REMARK   12  A    between atoms: C_13  and  C_21
REMARK   13  A    between atoms: C_14  and  N_15
REMARK   14  A    between atoms: C_21  and  C_22
REMARK   15  A    between atoms: C_21  and  O_28
REMARK                            x       y       z     vdW  Elec       q    Type
REMARK                         _______ _______ _______ _____ _____    ______ ____
ROOT
ATOM      1  C   UNL     1       8.157  -3.641  24.757  0.00  0.00    +0.120 C 
ENDROOT
BRANCH   1   3
ATOM      2  C   UNL     1       9.018  -1.524  23.729  0.00  0.00    +0.213 C 
ATOM      3  N   UNL     1       9.256  -2.778  24.257  0.00  0.00    -0.308 N 
ATOM      4  H   UNL     1      10.138  -3.225  24.039  0.00  0.00    +0.149 HD
ATOM      5  O   UNL     1       7.895  -1.043  23.640  0.00  0.00    -0.276 OA
BRANCH   2   6
ATOM      6  C   UNL     1      10.284  -0.804  23.284  0.00  0.00    +0.096 C 
BRANCH   6   7
ATOM      7  C   UNL     1      10.548   0.474  24.090  0.00  0.00    +0.009 C 
BRANCH   7   8
ATOM      8  C   UNL     1       9.953   1.718  23.419  0.00  0.00    +0.000 C 
BRANCH   8   9
ATOM      9  C   UNL     1       9.807   1.529  21.903  0.00  0.00    +0.000 C 
BRANCH   9  10
ATOM     10  C   UNL     1       8.348   1.653  21.451  0.00  0.00    +0.000 C 
BRANCH  10  11
ATOM     11  C   UNL     1       7.469   2.302  22.526  0.00  0.00    -0.000 C 
BRANCH  11  12
ATOM     12  C   UNL     1       7.088   3.735  22.144  0.00  0.00    -0.000 C 
BRANCH  12  14
ATOM     13  C   UNL     1       7.604   6.185  22.444  0.00  0.00    +0.004 C 
ATOM     14  C   UNL     1       7.978   4.765  22.841  0.00  0.00    -0.003 C 
ENDBRANCH  12  14
ENDBRANCH  11  12
ENDBRANCH  10  11
ENDBRANCH   9  10
ENDBRANCH   8   9
ENDBRANCH   7   8
ENDBRANCH   6   7
ENDBRANCH   2   6
ENDBRANCH   1   3
BRANCH   1  15
ATOM     15  C   UNL     1       8.377  -4.057  26.248  0.00  0.00    +0.166 C 
BRANCH  15  16
ATOM     16  C   UNL     1       7.094  -4.377  27.001  0.00  0.00    -0.017 A 
ATOM     17  C   UNL     1       7.001  -5.597  27.686  0.00  0.00    +0.006 A 
ATOM     18  C   UNL     1       5.872  -5.913  28.444  0.00  0.00    +0.000 A 
ATOM     19  C   UNL     1       4.811  -5.016  28.515  0.00  0.00    +0.000 A 
ATOM     20  C   UNL     1       4.874  -3.809  27.822  0.00  0.00    +0.000 A 
ATOM     21  C   UNL     1       6.008  -3.490  27.073  0.00  0.00    +0.006 A 
ENDBRANCH  15  16
BRANCH  15  22
ATOM     22  O   UNL     1       9.292  -5.159  26.329  0.00  0.00    -0.385 OA
ATOM     23  H   UNL     1      10.034  -4.969  25.735  0.00  0.00    +0.210 HD
ENDBRANCH  15  22
ENDBRANCH   1  15
BRANCH   1  24
ATOM     24  C   UNL     1       7.905  -4.865  23.814  0.00  0.00    +0.109 C 
BRANCH  24  25
ATOM     25  N   UNL     1       6.481  -5.180  23.563  0.00  0.00    -0.296 NA
ATOM     26  C   UNL     1       6.301  -6.151  22.456  0.00  0.00    +0.112 C 
ATOM     27  C   UNL     1       6.454  -5.569  21.039  0.00  0.00    +0.175 C 
ATOM     28  O   UNL     1       5.670  -4.382  20.849  0.00  0.00    -0.377 OA
ATOM     29  C   UNL     1       5.956  -3.405  21.855  0.00  0.00    +0.175 C 
ATOM     30  C   UNL     1       5.659  -3.988  23.245  0.00  0.00    +0.112 C 
ENDBRANCH  24  25
ENDBRANCH   1  24
TORSDOF 14
ENDMDL
MODEL 8
REMARK VINA RESULT:      -5.4      2.148      6.712
REMARK  Name = 
REMARK  15 active torsions:
REMARK  status: ('A' for Active; 'I' for Inactive)
REMARK    1  A    between atoms: C_1  and  C_2
REMARK    2  A    between atoms: C_2  and  C_3
REMARK    3  A    between atoms: C_3  and  C_4
REMARK    4  A    between atoms: C_4  and  C_5
REMARK    5  A    between atoms: C_5  and  C_6
REMARK    6  A    between atoms: C_6  and  C_7
REMARK    7  A    between atoms: C_7  and  C_8
REMARK    8  A    between atoms: C_8  and  C_9
REMARK    9  A    between atoms: C_9  and  C_10
REMARK   10  A    between atoms: N_12  and  C_13
REMARK   11  A    between atoms: C_13  and  C_14
REMARK   12  A    between atoms: C_13  and  C_21
REMARK   13  A    between atoms: C_14  and  N_15
REMARK   14  A    between atoms: C_21  and  C_22
REMARK   15  A    between atoms: C_21  and  O_28
REMARK                            x       y       z     vdW  Elec       q    Type
REMARK                         _______ _______ _______ _____ _____    ______ ____
ROOT
ATOM      1  C   UNL     1       7.882  -2.303  22.856  0.00  0.00    +0.120 C 
ENDROOT
BRANCH   1   3
ATOM      2  C   UNL     1       6.357  -3.944  21.734  0.00  0.00    +0.213 C 
ATOM      3  N   UNL     1       7.549  -3.666  22.373  0.00  0.00    -0.308 N 
ATOM      4  H   UNL     1       8.068  -4.440  22.768  0.00  0.00    +0.149 HD
ATOM      5  O   UNL     1       5.501  -3.093  21.524  0.00  0.00    -0.276 OA
BRANCH   2   6
ATOM      6  C   UNL     1       6.221  -5.402  21.312  0.00  0.00    +0.096 C 
BRANCH   6   7
ATOM      7  C   UNL     1       6.252  -6.365  22.505  0.00  0.00    +0.009 C 
BRANCH   7   8
ATOM      8  C   UNL     1       4.911  -6.419  23.245  0.00  0.00    +0.000 C 
BRANCH   8   9
ATOM      9  C   UNL     1       4.901  -5.490  24.466  0.00  0.00    +0.000 C 
BRANCH   9  10
ATOM     10  C   UNL     1       5.171  -6.254  25.767  0.00  0.00    +0.000 C 
BRANCH  10  11
ATOM     11  C   UNL     1       5.473  -5.307  26.934  0.00  0.00    -0.000 C 
BRANCH  11  12
ATOM     12  C   UNL     1       6.929  -5.430  27.390  0.00  0.00    -0.000 C 
BRANCH  12  14
ATOM     13  C   UNL     1       9.096  -4.500  26.497  0.00  0.00    +0.004 C 
ATOM     14  C   UNL     1       7.900  -5.393  26.208  0.00  0.00    -0.003 C 
ENDBRANCH  12  14
ENDBRANCH  11  12
ENDBRANCH  10  11
ENDBRANCH   9  10
ENDBRANCH   8   9
ENDBRANCH   7   8
ENDBRANCH   6   7
ENDBRANCH   2   6
ENDBRANCH   1   3
BRANCH   1  15
ATOM     15  C   UNL     1       9.406  -1.989  22.707  0.00  0.00    +0.166 C 
BRANCH  15  16
ATOM     16  C   UNL     1       9.759  -0.520  22.885  0.00  0.00    -0.017 A 
ATOM     17  C   UNL     1      10.295  -0.099  24.112  0.00  0.00    +0.006 A 
ATOM     18  C   UNL     1      10.695   1.224  24.306  0.00  0.00    +0.000 A 
ATOM     19  C   UNL     1      10.550   2.151  23.280  0.00  0.00    +0.000 A 
ATOM     20  C   UNL     1       9.998   1.759  22.062  0.00  0.00    +0.000 A 
ATOM     21  C   UNL     1       9.608   0.433  21.865  0.00  0.00    +0.006 A 
ENDBRANCH  15  16
BRANCH  15  22
ATOM     22  O   UNL     1      10.173  -2.800  23.608  0.00  0.00    -0.385 OA
ATOM     23  H   UNL     1      10.831  -3.280  23.083  0.00  0.00    +0.210 HD
ENDBRANCH  15  22
ENDBRANCH   1  15
BRANCH   1  24
ATOM     24  C   UNL     1       7.347  -2.055  24.307  0.00  0.00    +0.109 C 
BRANCH  24  25
ATOM     25  N   UNL     1       6.112  -1.244  24.390  0.00  0.00    -0.296 NA
ATOM     26  C   UNL     1       6.374   0.207  24.221  0.00  0.00    +0.112 C 
ATOM     27  C   UNL     1       6.961   0.917  25.454  0.00  0.00    +0.175 C 
ATOM     28  O   UNL     1       6.219   0.638  26.650  0.00  0.00    -0.377 OA
ATOM     29  C   UNL     1       6.090  -0.772  26.863  0.00  0.00    +0.175 C 
ATOM     30  C   UNL     1       5.377  -1.416  25.666  0.00  0.00    +0.112 C 
ENDBRANCH  24  25
ENDBRANCH   1  24
TORSDOF 14
ENDMDL
MODEL 9
REMARK VINA RESULT:      -5.2      2.420      7.600
REMARK  Name = 
REMARK  15 active torsions:
REMARK  status: ('A' for Active; 'I' for Inactive)
REMARK    1  A    between atoms: C_1  and  C_2
REMARK    2  A    between atoms: C_2  and  C_3
REMARK    3  A    between atoms: C_3  and  C_4
REMARK    4  A    between atoms: C_4  and  C_5
REMARK    5  A    between atoms: C_5  and  C_6
REMARK    6  A    between atoms: C_6  and  C_7
REMARK    7  A    between atoms: C_7  and  C_8
REMARK    8  A    between atoms: C_8  and  C_9
REMARK    9  A    between atoms: C_9  and  C_10
REMARK   10  A    between atoms: N_12  and  C_13
REMARK   11  A    between atoms: C_13  and  C_14
REMARK   12  A    between atoms: C_13  and  C_21
REMARK   13  A    between atoms: C_14  and  N_15
REMARK   14  A    between atoms: C_21  and  C_22
REMARK   15  A    between atoms: C_21  and  O_28
REMARK                            x       y       z     vdW  Elec       q    Type
REMARK                         _______ _______ _______ _____ _____    ______ ____
ROOT
ATOM      1  C   UNL     1       7.975  -2.248  22.690  0.00  0.00    +0.120 C 
ENDROOT
BRANCH   1   3
ATOM      2  C   UNL     1       6.495  -4.105  21.890  0.00  0.00    +0.213 C 
ATOM      3  N   UNL     1       7.660  -3.686  22.503  0.00  0.00    -0.308 N 
ATOM      4  H   UNL     1       8.159  -4.351  23.080  0.00  0.00    +0.149 HD
ATOM      5  O   UNL     1       5.652  -3.326  21.462  0.00  0.00    -0.276 OA
BRANCH   2   6
ATOM      6  C   UNL     1       6.374  -5.621  21.792  0.00  0.00    +0.096 C 
BRANCH   6   7
ATOM      7  C   UNL     1       5.207  -6.172  22.620  0.00  0.00    +0.009 C 
BRANCH   7   8
ATOM      8  C   UNL     1       5.398  -5.940  24.123  0.00  0.00    +0.000 C 
BRANCH   8   9
ATOM      9  C   UNL     1       4.058  -5.715  24.836  0.00  0.00    +0.000 C 
BRANCH   9  10
ATOM     10  C   UNL     1       3.176  -4.709  24.089  0.00  0.00    +0.000 C 
BRANCH  10  11
ATOM     11  C   UNL     1       1.723  -5.189  23.986  0.00  0.00    -0.000 C 
BRANCH  11  12
ATOM     12  C   UNL     1       1.507  -6.047  22.737  0.00  0.00    -0.000 C 
BRANCH  12  14
ATOM     13  C   UNL     1       0.656  -8.335  22.108  0.00  0.00    +0.004 C 
ATOM     14  C   UNL     1       1.536  -7.541  23.061  0.00  0.00    -0.003 C 
ENDBRANCH  12  14
ENDBRANCH  11  12
ENDBRANCH  10  11
ENDBRANCH   9  10
ENDBRANCH   8   9
ENDBRANCH   7   8
ENDBRANCH   6   7
ENDBRANCH   2   6
ENDBRANCH   1   3
BRANCH   1  15
ATOM     15  C   UNL     1       9.517  -1.988  22.709  0.00  0.00    +0.166 C 
BRANCH  15  16
ATOM     16  C   UNL     1       9.899  -0.524  22.869  0.00  0.00    -0.017 A 
ATOM     17  C   UNL     1       9.617   0.365  21.822  0.00  0.00    +0.006 A 
ATOM     18  C   UNL     1       9.888   1.729  21.943  0.00  0.00    +0.000 A 
ATOM     19  C   UNL     1      10.463   2.221  23.109  0.00  0.00    +0.000 A 
ATOM     20  C   UNL     1      10.773   1.351  24.152  0.00  0.00    +0.000 A 
ATOM     21  C   UNL     1      10.492  -0.011  24.034  0.00  0.00    +0.006 A 
ENDBRANCH  15  16
BRANCH  15  22
ATOM     22  O   UNL     1      10.144  -2.782  23.726  0.00  0.00    -0.385 OA
ATOM     23  H   UNL     1       9.893  -3.706  23.574  0.00  0.00    +0.210 HD
ENDBRANCH  15  22
ENDBRANCH   1  15
BRANCH   1  24
ATOM     24  C   UNL     1       7.241  -1.650  23.937  0.00  0.00    +0.109 C 
BRANCH  24  25
ATOM     25  N   UNL     1       7.692  -2.179  25.244  0.00  0.00    -0.296 NA
ATOM     26  C   UNL     1       6.743  -3.167  25.815  0.00  0.00    +0.112 C 
ATOM     27  C   UNL     1       5.479  -2.568  26.458  0.00  0.00    +0.175 C 
ATOM     28  O   UNL     1       5.783  -1.514  27.383  0.00  0.00    -0.377 OA
ATOM     29  C   UNL     1       6.594  -0.505  26.772  0.00  0.00    +0.175 C 
ATOM     30  C   UNL     1       7.904  -1.126  26.266  0.00  0.00    +0.112 C 
ENDBRANCH  24  25
ENDBRANCH   1  24
TORSDOF 14
ENDMDL
