MODEL 1
REMARK VINA RESULT:      -5.2      0.000      0.000
REMARK  Name = 
REMARK  1 active torsions:
REMARK  status: ('A' for Active; 'I' for Inactive)
REMARK    1  A    between atoms: N_8  and  C_9
REMARK                            x       y       z     vdW  Elec       q    Type
REMARK                         _______ _______ _______ _____ _____    ______ ____
ROOT
ATOM      1  C   UNL     1       8.342  -1.568  22.241  0.00  0.00    +0.215 C 
ATOM      2  N   UNL     1       8.811  -2.084  23.534  0.00  0.00    -0.220 N 
ATOM      3  C   UNL     1       8.692  -3.365  24.016  0.00  0.00    +0.376 C 
ATOM      4  N   UNL     1       7.929  -4.194  23.247  0.00  0.00    -0.251 N 
ATOM      5  H   UNL     1       7.590  -5.007  23.759  0.00  0.00    +0.241 HD
ATOM      6  H   UNL     1       7.160  -3.745  22.773  0.00  0.00    +0.241 HD
ATOM      7  N   UNL     1       9.294  -3.710  25.113  0.00  0.00    -0.008 NA
ATOM      8  C   UNL     1       9.353  -1.012  24.394  0.00  0.00    +0.215 C 
ATOM      9  C   UNL     1      10.426  -0.217  23.640  0.00  0.00    +0.195 C 
ATOM     10  O   UNL     1       9.909   0.320  22.412  0.00  0.00    -0.374 OA
ATOM     11  C   UNL     1       9.450  -0.745  21.566  0.00  0.00    +0.195 C 
ENDROOT
BRANCH   7  12
ATOM     12  C   UNL     1       9.210  -4.944  25.658  0.00  0.00    +0.422 C 
ATOM     13  N   UNL     1       8.535  -5.098  26.813  0.00  0.00    -0.286 N 
ATOM     14  H   UNL     1       8.863  -5.917  27.308  0.00  0.00    +0.255 HD
ATOM     15  H   UNL     1       8.567  -4.253  27.370  0.00  0.00    +0.255 HD
ATOM     16  N   UNL     1       9.828  -5.950  25.143  0.00  0.00    -0.127 NA
ATOM     17  H   UNL     1      10.352  -5.584  24.339  0.00  0.00    +0.306 HD
ENDBRANCH   7  12
TORSDOF 1
ENDMDL
MODEL 2
REMARK VINA RESULT:      -5.1      2.776      4.776
REMARK  Name = 
REMARK  1 active torsions:
REMARK  status: ('A' for Active; 'I' for Inactive)
REMARK    1  A    between atoms: N_8  and  C_9
REMARK                            x       y       z     vdW  Elec       q    Type
REMARK                         _______ _______ _______ _____ _____    ______ ____
ROOT
ATOM      1  C   UNL     1       7.040  -4.970  24.251  0.00  0.00    +0.215 C 
ATOM      2  N   UNL     1       8.304  -4.221  24.241  0.00  0.00    -0.220 N 
ATOM      3  C   UNL     1       8.637  -3.156  23.441  0.00  0.00    +0.376 C 
ATOM      4  N   UNL     1       7.730  -2.872  22.463  0.00  0.00    -0.251 N 
ATOM      5  H   UNL     1       8.126  -2.319  21.704  0.00  0.00    +0.241 HD
ATOM      6  H   UNL     1       7.249  -3.674  22.085  0.00  0.00    +0.241 HD
ATOM      7  N   UNL     1       9.734  -2.495  23.654  0.00  0.00    -0.008 NA
ATOM      8  C   UNL     1       9.310  -4.822  25.140  0.00  0.00    +0.215 C 
ATOM      9  C   UNL     1       8.728  -4.998  26.548  0.00  0.00    +0.195 C 
ATOM     10  O   UNL     1       7.528  -5.787  26.519  0.00  0.00    -0.374 OA
ATOM     11  C   UNL     1       6.542  -5.149  25.693  0.00  0.00    +0.195 C 
ENDROOT
BRANCH   7  12
ATOM     12  C   UNL     1      10.139  -1.450  22.900  0.00  0.00    +0.422 C 
ATOM     13  N   UNL     1      10.401  -0.276  23.506  0.00  0.00    -0.286 N 
ATOM     14  H   UNL     1      10.300   0.489  22.853  0.00  0.00    +0.255 HD
ATOM     15  H   UNL     1       9.844  -0.165  24.344  0.00  0.00    +0.255 HD
ATOM     16  N   UNL     1      10.197  -1.530  21.615  0.00  0.00    -0.127 NA
ATOM     17  H   UNL     1       9.861  -2.469  21.371  0.00  0.00    +0.306 HD
ENDBRANCH   7  12
TORSDOF 1
ENDMDL
MODEL 3
REMARK VINA RESULT:      -5.1      3.767      5.959
REMARK  Name = 
REMARK  1 active torsions:
REMARK  status: ('A' for Active; 'I' for Inactive)
REMARK    1  A    between atoms: N_8  and  C_9
REMARK                            x       y       z     vdW  Elec       q    Type
REMARK                         _______ _______ _______ _____ _____    ______ ____
ROOT
ATOM      1  C   UNL     1       9.803  -0.742  21.784  0.00  0.00    +0.215 C 
ATOM      2  N   UNL     1       9.965   0.250  22.855  0.00  0.00    -0.220 N 
ATOM      3  C   UNL     1       9.902   1.618  22.744  0.00  0.00    +0.376 C 
ATOM      4  N   UNL     1       9.817   2.082  21.464  0.00  0.00    -0.251 N 
ATOM      5  H   UNL     1      10.092   3.059  21.379  0.00  0.00    +0.241 HD
ATOM      6  H   UNL     1      10.307   1.528  20.778  0.00  0.00    +0.241 HD
ATOM      7  N   UNL     1       9.910   2.362  23.807  0.00  0.00    -0.008 NA
ATOM      8  C   UNL     1      10.351  -0.376  24.136  0.00  0.00    +0.215 C 
ATOM      9  C   UNL     1       9.367  -1.495  24.499  0.00  0.00    +0.195 C 
ATOM     10  O   UNL     1       9.285  -2.475  23.451  0.00  0.00    -0.374 OA
ATOM     11  C   UNL     1       8.844  -1.855  22.234  0.00  0.00    +0.195 C 
ENDROOT
BRANCH   7  12
ATOM     12  C   UNL     1       9.869   3.713  23.778  0.00  0.00    +0.422 C 
ATOM     13  N   UNL     1       8.737   4.336  24.160  0.00  0.00    -0.286 N 
ATOM     14  H   UNL     1       8.678   5.252  23.736  0.00  0.00    +0.255 HD
ATOM     15  H   UNL     1       7.925   3.758  23.984  0.00  0.00    +0.255 HD
ATOM     16  N   UNL     1      10.852   4.405  23.316  0.00  0.00    -0.127 NA
ATOM     17  H   UNL     1      11.554   3.728  22.993  0.00  0.00    +0.306 HD
ENDBRANCH   7  12
TORSDOF 1
ENDMDL
MODEL 4
REMARK VINA RESULT:      -4.9      1.245      1.921
REMARK  Name = 
REMARK  1 active torsions:
REMARK  status: ('A' for Active; 'I' for Inactive)
REMARK    1  A    between atoms: N_8  and  C_9
REMARK                            x       y       z     vdW  Elec       q    Type
REMARK                         _______ _______ _______ _____ _____    ______ ____
ROOT
ATOM      1  C   UNL     1       8.912  -0.092  24.095  0.00  0.00    +0.215 C 
ATOM      2  N   UNL     1       9.350  -1.484  23.919  0.00  0.00    -0.220 N 
ATOM      3  C   UNL     1       9.119  -2.545  24.761  0.00  0.00    +0.376 C 
ATOM      4  N   UNL     1       8.536  -2.214  25.949  0.00  0.00    -0.251 N 
ATOM      5  H   UNL     1       8.666  -2.926  26.665  0.00  0.00    +0.241 HD
ATOM      6  H   UNL     1       8.799  -1.311  26.313  0.00  0.00    +0.241 HD
ATOM      7  N   UNL     1       9.435  -3.750  24.396  0.00  0.00    -0.008 NA
ATOM      8  C   UNL     1      10.228  -1.644  22.742  0.00  0.00    +0.215 C 
ATOM      9  C   UNL     1       9.553  -1.066  21.493  0.00  0.00    +0.195 C 
ATOM     10  O   UNL     1       9.197   0.313  21.686  0.00  0.00    -0.374 OA
ATOM     11  C   UNL     1       8.291   0.435  22.793  0.00  0.00    +0.195 C 
ENDROOT
BRANCH   7  12
ATOM     12  C   UNL     1       9.255  -4.840  25.174  0.00  0.00    +0.422 C 
ATOM     13  N   UNL     1      10.338  -5.517  25.603  0.00  0.00    -0.286 N 
ATOM     14  H   UNL     1      10.096  -6.476  25.813  0.00  0.00    +0.255 HD
ATOM     15  H   UNL     1      11.105  -5.431  24.949  0.00  0.00    +0.255 HD
ATOM     16  N   UNL     1       8.077  -5.289  25.442  0.00  0.00    -0.127 NA
ATOM     17  H   UNL     1       7.419  -4.685  24.936  0.00  0.00    +0.306 HD
ENDBRANCH   7  12
TORSDOF 1
ENDMDL
MODEL 5
REMARK VINA RESULT:      -4.8      3.157      4.599
REMARK  Name = 
REMARK  1 active torsions:
REMARK  status: ('A' for Active; 'I' for Inactive)
REMARK    1  A    between atoms: N_8  and  C_9
REMARK                            x       y       z     vdW  Elec       q    Type
REMARK                         _______ _______ _______ _____ _____    ______ ____
ROOT
ATOM      1  C   UNL     1       8.214  -4.704  24.132  0.00  0.00    +0.215 C 
ATOM      2  N   UNL     1       7.094  -5.241  24.916  0.00  0.00    -0.220 N 
ATOM      3  C   UNL     1       7.098  -5.595  26.243  0.00  0.00    +0.376 C 
ATOM      4  N   UNL     1       8.324  -5.564  26.838  0.00  0.00    -0.251 N 
ATOM      5  H   UNL     1       8.364  -6.121  27.691  0.00  0.00    +0.241 HD
ATOM      6  H   UNL     1       9.095  -5.808  26.235  0.00  0.00    +0.241 HD
ATOM      7  N   UNL     1       5.988  -5.910  26.840  0.00  0.00    -0.008 NA
ATOM      8  C   UNL     1       5.908  -5.507  24.077  0.00  0.00    +0.215 C 
ATOM      9  C   UNL     1       5.532  -4.255  23.275  0.00  0.00    +0.195 C 
ATOM     10  O   UNL     1       6.636  -3.799  22.476  0.00  0.00    -0.374 OA
ATOM     11  C   UNL     1       7.754  -3.483  23.320  0.00  0.00    +0.195 C 
ENDROOT
BRANCH   7  12
ATOM     12  C   UNL     1       5.913  -6.285  28.136  0.00  0.00    +0.422 C 
ATOM     13  N   UNL     1       5.405  -7.497  28.431  0.00  0.00    -0.286 N 
ATOM     14  H   UNL     1       5.039  -7.506  29.374  0.00  0.00    +0.255 HD
ATOM     15  H   UNL     1       4.730  -7.790  27.736  0.00  0.00    +0.255 HD
ATOM     16  N   UNL     1       6.239  -5.482  29.088  0.00  0.00    -0.127 NA
ATOM     17  H   UNL     1       6.497  -4.595  28.640  0.00  0.00    +0.306 HD
ENDBRANCH   7  12
TORSDOF 1
ENDMDL
MODEL 6
REMARK VINA RESULT:      -4.8      3.452      4.658
REMARK  Name = 
REMARK  1 active torsions:
REMARK  status: ('A' for Active; 'I' for Inactive)
REMARK    1  A    between atoms: N_8  and  C_9
REMARK                            x       y       z     vdW  Elec       q    Type
REMARK                         _______ _______ _______ _____ _____    ______ ____
ROOT
ATOM      1  C   UNL     1       7.123  -4.123  24.933  0.00  0.00    +0.215 C 
ATOM      2  N   UNL     1       7.410  -4.740  26.235  0.00  0.00    -0.220 N 
ATOM      3  C   UNL     1       6.515  -5.336  27.091  0.00  0.00    +0.376 C 
ATOM      4  N   UNL     1       5.207  -5.204  26.732  0.00  0.00    -0.251 N 
ATOM      5  H   UNL     1       4.566  -5.355  27.509  0.00  0.00    +0.241 HD
ATOM      6  H   UNL     1       4.980  -4.338  26.266  0.00  0.00    +0.241 HD
ATOM      7  N   UNL     1       6.940  -5.978  28.137  0.00  0.00    -0.008 NA
ATOM      8  C   UNL     1       8.817  -4.550  26.641  0.00  0.00    +0.215 C 
ATOM      9  C   UNL     1       9.760  -5.028  25.531  0.00  0.00    +0.195 C 
ATOM     10  O   UNL     1       9.486  -4.355  24.291  0.00  0.00    -0.374 OA
ATOM     11  C   UNL     1       8.134  -4.610  23.883  0.00  0.00    +0.195 C 
ENDROOT
BRANCH   7  12
ATOM     12  C   UNL     1       6.122  -6.574  29.034  0.00  0.00    +0.422 C 
ATOM     13  N   UNL     1       6.147  -6.153  30.313  0.00  0.00    -0.286 N 
ATOM     14  H   UNL     1       5.828  -6.886  30.932  0.00  0.00    +0.255 HD
ATOM     15  H   UNL     1       7.057  -5.787  30.560  0.00  0.00    +0.255 HD
ATOM     16  N   UNL     1       5.389  -7.582  28.709  0.00  0.00    -0.127 NA
ATOM     17  H   UNL     1       5.605  -7.789  27.726  0.00  0.00    +0.306 HD
ENDBRANCH   7  12
TORSDOF 1
ENDMDL
MODEL 7
REMARK VINA RESULT:      -4.7      3.067      5.551
REMARK  Name = 
REMARK  1 active torsions:
REMARK  status: ('A' for Active; 'I' for Inactive)
REMARK    1  A    between atoms: N_8  and  C_9
REMARK                            x       y       z     vdW  Elec       q    Type
REMARK                         _______ _______ _______ _____ _____    ______ ____
ROOT
ATOM      1  C   UNL     1       9.004  -1.947  24.858  0.00  0.00    +0.215 C 
ATOM      2  N   UNL     1       8.567  -1.063  23.769  0.00  0.00    -0.220 N 
ATOM      3  C   UNL     1       9.017   0.205  23.491  0.00  0.00    +0.376 C 
ATOM      4  N   UNL     1       9.861   0.728  24.426  0.00  0.00    -0.251 N 
ATOM      5  H   UNL     1       9.922   1.744  24.379  0.00  0.00    +0.241 HD
ATOM      6  H   UNL     1       9.674   0.441  25.374  0.00  0.00    +0.241 HD
ATOM      7  N   UNL     1       8.649   0.806  22.400  0.00  0.00    -0.008 NA
ATOM      8  C   UNL     1       7.436  -1.635  23.011  0.00  0.00    +0.215 C 
ATOM      9  C   UNL     1       7.778  -3.051  22.532  0.00  0.00    +0.195 C 
ATOM     10  O   UNL     1       8.140  -3.898  23.635  0.00  0.00    -0.374 OA
ATOM     11  C   UNL     1       9.282  -3.357  24.314  0.00  0.00    +0.195 C 
ENDROOT
BRANCH   7  12
ATOM     12  C   UNL     1       9.034   2.057  22.067  0.00  0.00    +0.422 C 
ATOM     13  N   UNL     1       8.105   3.032  22.024  0.00  0.00    -0.286 N 
ATOM     14  H   UNL     1       8.403   3.777  21.408  0.00  0.00    +0.255 HD
ATOM     15  H   UNL     1       7.194   2.658  21.790  0.00  0.00    +0.255 HD
ATOM     16  N   UNL     1      10.245   2.316  21.712  0.00  0.00    -0.127 NA
ATOM     17  H   UNL     1      10.745   1.419  21.721  0.00  0.00    +0.306 HD
ENDBRANCH   7  12
TORSDOF 1
ENDMDL
MODEL 8
REMARK VINA RESULT:      -4.7      2.434      3.471
REMARK  Name = 
REMARK  1 active torsions:
REMARK  status: ('A' for Active; 'I' for Inactive)
REMARK    1  A    between atoms: N_8  and  C_9
REMARK                            x       y       z     vdW  Elec       q    Type
REMARK                         _______ _______ _______ _____ _____    ______ ____
ROOT
ATOM      1  C   UNL     1       7.393  -1.208  23.535  0.00  0.00    +0.215 C 
ATOM      2  N   UNL     1       7.555  -2.646  23.285  0.00  0.00    -0.220 N 
ATOM      3  C   UNL     1       6.718  -3.469  22.571  0.00  0.00    +0.376 C 
ATOM      4  N   UNL     1       5.547  -2.891  22.181  0.00  0.00    -0.251 N 
ATOM      5  H   UNL     1       4.826  -3.573  21.951  0.00  0.00    +0.241 HD
ATOM      6  H   UNL     1       5.177  -2.206  22.822  0.00  0.00    +0.241 HD
ATOM      7  N   UNL     1       7.072  -4.690  22.304  0.00  0.00    -0.008 NA
ATOM      8  C   UNL     1       8.708  -3.209  24.016  0.00  0.00    +0.215 C 
ATOM      9  C   UNL     1       9.976  -2.402  23.713  0.00  0.00    +0.195 C 
ATOM     10  O   UNL     1       9.795  -1.012  24.028  0.00  0.00    -0.374 OA
ATOM     11  C   UNL     1       8.712  -0.471  23.256  0.00  0.00    +0.195 C 
ENDROOT
BRANCH   7  12
ATOM     12  C   UNL     1       6.297  -5.563  21.624  0.00  0.00    +0.422 C 
ATOM     13  N   UNL     1       5.947  -6.720  22.220  0.00  0.00    -0.286 N 
ATOM     14  H   UNL     1       5.734  -7.424  21.526  0.00  0.00    +0.255 HD
ATOM     15  H   UNL     1       6.649  -7.014  22.887  0.00  0.00    +0.255 HD
ATOM     16  N   UNL     1       5.959  -5.350  20.399  0.00  0.00    -0.127 NA
ATOM     17  H   UNL     1       6.414  -4.472  20.124  0.00  0.00    +0.306 HD
ENDBRANCH   7  12
TORSDOF 1
ENDMDL
MODEL 9
REMARK VINA RESULT:      -4.5      4.234      5.327
REMARK  Name = 
REMARK  1 active torsions:
REMARK  status: ('A' for Active; 'I' for Inactive)
REMARK    1  A    between atoms: N_8  and  C_9
REMARK                            x       y       z     vdW  Elec       q    Type
REMARK                         _______ _______ _______ _____ _____    ______ ____
ROOT
ATOM      1  C   UNL     1       5.353  -5.928  23.101  0.00  0.00    +0.215 C 
ATOM      2  N   UNL     1       5.616  -5.769  24.537  0.00  0.00    -0.220 N 
ATOM      3  C   UNL     1       5.045  -6.468  25.573  0.00  0.00    +0.376 C 
ATOM      4  N   UNL     1       4.026  -7.297  25.208  0.00  0.00    -0.251 N 
ATOM      5  H   UNL     1       3.420  -7.546  25.989  0.00  0.00    +0.241 HD
ATOM      6  H   UNL     1       3.468  -6.968  24.435  0.00  0.00    +0.241 HD
ATOM      7  N   UNL     1       5.493  -6.325  26.784  0.00  0.00    -0.008 NA
ATOM      8  C   UNL     1       6.519  -4.633  24.813  0.00  0.00    +0.215 C 
ATOM      9  C   UNL     1       7.800  -4.757  23.979  0.00  0.00    +0.195 C 
ATOM     10  O   UNL     1       7.500  -4.848  22.576  0.00  0.00    -0.374 OA
ATOM     11  C   UNL     1       6.677  -5.997  22.325  0.00  0.00    +0.195 C 
ENDROOT
BRANCH   7  12
ATOM     12  C   UNL     1       4.972  -6.963  27.855  0.00  0.00    +0.422 C 
ATOM     13  N   UNL     1       5.797  -7.670  28.653  0.00  0.00    -0.286 N 
ATOM     14  H   UNL     1       5.283  -8.389  29.143  0.00  0.00    +0.255 HD
ATOM     15  H   UNL     1       6.590  -8.025  28.135  0.00  0.00    +0.255 HD
ATOM     16  N   UNL     1       3.704  -6.977  28.079  0.00  0.00    -0.127 NA
ATOM     17  H   UNL     1       3.269  -6.468  27.300  0.00  0.00    +0.306 HD
ENDBRANCH   7  12
TORSDOF 1
ENDMDL
