MODEL 1
REMARK VINA RESULT:      -6.3      0.000      0.000
REMARK  Name = 
REMARK  3 active torsions:
REMARK  status: ('A' for Active; 'I' for Inactive)
REMARK    1  A    between atoms: C_2  and  N_10
REMARK    2  A    between atoms: C_5  and  C_8
REMARK    3  A    between atoms: C_8  and  O_9
REMARK                            x       y       z     vdW  Elec       q    Type
REMARK                         _______ _______ _______ _____ _____    ______ ____
ROOT
ATOM      1  N   UNL     1       9.289  -1.359  23.361  0.00  0.00    -0.272 N 
ATOM      2  C   UNL     1       9.718  -0.273  24.132  0.00  0.00    +0.352 A 
ATOM      3  O   UNL     1       9.768  -0.356  25.357  0.00  0.00    -0.244 OA
ATOM      4  N   UNL     1      10.053   0.897  23.492  0.00  0.00    -0.178 NA
ATOM      5  C   UNL     1       9.914   0.995  22.208  0.00  0.00    +0.123 A 
ATOM      6  N   UNL     1      10.218   2.198  21.639  0.00  0.00    -0.343 N 
ATOM      7  H   UNL     1      10.749   2.807  22.256  0.00  0.00    +0.144 HD
ATOM      8  H   UNL     1      10.523   2.217  20.675  0.00  0.00    +0.144 HD
ATOM      9  C   UNL     1       9.444  -0.118  21.359  0.00  0.00    +0.061 A 
ATOM     10  C   UNL     1       9.146  -1.251  21.994  0.00  0.00    +0.096 A 
ENDROOT
BRANCH   1  15
ATOM     11  C   UNL     1       7.686  -3.233  23.305  0.00  0.00    +0.126 C 
ATOM     12  S   UNL     1       7.591  -4.862  24.058  0.00  0.00    -0.123 S 
ATOM     13  C   UNL     1       9.257  -4.726  24.742  0.00  0.00    +0.203 C 
ATOM     14  O   UNL     1       9.848  -3.469  24.345  0.00  0.00    -0.340 OA
ATOM     15  C   UNL     1       8.790  -2.521  24.094  0.00  0.00    +0.235 C 
BRANCH  13  16
ATOM     16  C   UNL     1       9.241  -4.837  26.276  0.00  0.00    +0.198 C 
BRANCH  16  17
ATOM     17  O   UNL     1       8.389  -5.910  26.690  0.00  0.00    -0.392 OA
ATOM     18  H   UNL     1       8.972  -6.646  26.955  0.00  0.00    +0.210 HD
ENDBRANCH  16  17
ENDBRANCH  13  16
ENDBRANCH   1  15
TORSDOF 3
ENDMDL
MODEL 2
REMARK VINA RESULT:      -5.8      3.022      5.720
REMARK  Name = 
REMARK  3 active torsions:
REMARK  status: ('A' for Active; 'I' for Inactive)
REMARK    1  A    between atoms: C_2  and  N_10
REMARK    2  A    between atoms: C_5  and  C_8
REMARK    3  A    between atoms: C_8  and  O_9
REMARK                            x       y       z     vdW  Elec       q    Type
REMARK                         _______ _______ _______ _____ _____    ______ ____
ROOT
ATOM      1  N   UNL     1       9.150  -1.634  24.563  0.00  0.00    -0.272 N 
ATOM      2  C   UNL     1       9.845  -2.684  23.951  0.00  0.00    +0.352 A 
ATOM      3  O   UNL     1      10.458  -2.501  22.903  0.00  0.00    -0.244 OA
ATOM      4  N   UNL     1       9.801  -3.928  24.533  0.00  0.00    -0.178 NA
ATOM      5  C   UNL     1       9.081  -4.123  25.592  0.00  0.00    +0.123 A 
ATOM      6  N   UNL     1       9.042  -5.393  26.093  0.00  0.00    -0.343 N 
ATOM      7  H   UNL     1       9.773  -5.991  25.720  0.00  0.00    +0.144 HD
ATOM      8  H   UNL     1       8.866  -5.520  27.081  0.00  0.00    +0.144 HD
ATOM      9  C   UNL     1       8.315  -3.050  26.257  0.00  0.00    +0.061 A 
ATOM     10  C   UNL     1       8.388  -1.845  25.692  0.00  0.00    +0.096 A 
ENDROOT
BRANCH   1  15
ATOM     11  C   UNL     1       7.641   0.007  23.508  0.00  0.00    +0.126 C 
ATOM     12  S   UNL     1       7.725   1.759  23.114  0.00  0.00    -0.123 S 
ATOM     13  C   UNL     1       9.295   1.956  23.985  0.00  0.00    +0.203 C 
ATOM     14  O   UNL     1       9.685   0.700  24.581  0.00  0.00    -0.340 OA
ATOM     15  C   UNL     1       9.091  -0.374  23.823  0.00  0.00    +0.235 C 
BRANCH  13  16
ATOM     16  C   UNL     1      10.400   2.453  23.038  0.00  0.00    +0.198 C 
BRANCH  16  17
ATOM     17  O   UNL     1      10.017   2.250  21.673  0.00  0.00    -0.392 OA
ATOM     18  H   UNL     1      10.841   2.138  21.163  0.00  0.00    +0.210 HD
ENDBRANCH  16  17
ENDBRANCH  13  16
ENDBRANCH   1  15
TORSDOF 3
ENDMDL
MODEL 3
REMARK VINA RESULT:      -5.6      2.268      2.667
REMARK  Name = 
REMARK  3 active torsions:
REMARK  status: ('A' for Active; 'I' for Inactive)
REMARK    1  A    between atoms: C_2  and  N_10
REMARK    2  A    between atoms: C_5  and  C_8
REMARK    3  A    between atoms: C_8  and  O_9
REMARK                            x       y       z     vdW  Elec       q    Type
REMARK                         _______ _______ _______ _____ _____    ______ ____
ROOT
ATOM      1  N   UNL     1       8.395  -1.385  22.529  0.00  0.00    -0.272 N 
ATOM      2  C   UNL     1       9.689  -1.012  22.149  0.00  0.00    +0.352 A 
ATOM      3  O   UNL     1      10.587  -1.848  22.082  0.00  0.00    -0.244 OA
ATOM      4  N   UNL     1       9.940   0.313  21.884  0.00  0.00    -0.178 NA
ATOM      5  C   UNL     1       9.003   1.194  22.041  0.00  0.00    +0.123 A 
ATOM      6  N   UNL     1       9.330   2.499  21.807  0.00  0.00    -0.343 N 
ATOM      7  H   UNL     1      10.206   2.605  21.303  0.00  0.00    +0.144 HD
ATOM      8  H   UNL     1       8.603   3.137  21.514  0.00  0.00    +0.144 HD
ATOM      9  C   UNL     1       7.631   0.847  22.461  0.00  0.00    +0.061 A 
ATOM     10  C   UNL     1       7.400  -0.445  22.692  0.00  0.00    +0.096 A 
ENDROOT
BRANCH   1  15
ATOM     11  C   UNL     1       8.072  -2.858  24.481  0.00  0.00    +0.126 C 
ATOM     12  S   UNL     1       7.341  -4.476  24.760  0.00  0.00    -0.123 S 
ATOM     13  C   UNL     1       6.712  -4.567  23.070  0.00  0.00    +0.203 C 
ATOM     14  O   UNL     1       7.039  -3.352  22.360  0.00  0.00    -0.340 OA
ATOM     15  C   UNL     1       8.216  -2.772  22.958  0.00  0.00    +0.235 C 
BRANCH  13  16
ATOM     16  C   UNL     1       7.288  -5.782  22.324  0.00  0.00    +0.198 C 
BRANCH  16  17
ATOM     17  O   UNL     1       6.247  -6.711  22.004  0.00  0.00    -0.392 OA
ATOM     18  H   UNL     1       5.402  -6.231  22.100  0.00  0.00    +0.210 HD
ENDBRANCH  16  17
ENDBRANCH  13  16
ENDBRANCH   1  15
TORSDOF 3
ENDMDL
MODEL 4
REMARK VINA RESULT:      -5.6      3.145      5.776
REMARK  Name = 
REMARK  3 active torsions:
REMARK  status: ('A' for Active; 'I' for Inactive)
REMARK    1  A    between atoms: C_2  and  N_10
REMARK    2  A    between atoms: C_5  and  C_8
REMARK    3  A    between atoms: C_8  and  O_9
REMARK                            x       y       z     vdW  Elec       q    Type
REMARK                         _______ _______ _______ _____ _____    ______ ____
ROOT
ATOM      1  N   UNL     1       8.689  -2.477  24.812  0.00  0.00    -0.272 N 
ATOM      2  C   UNL     1       7.663  -2.525  25.764  0.00  0.00    +0.352 A 
ATOM      3  O   UNL     1       6.970  -1.535  25.987  0.00  0.00    -0.244 OA
ATOM      4  N   UNL     1       7.469  -3.692  26.462  0.00  0.00    -0.178 NA
ATOM      5  C   UNL     1       8.262  -4.699  26.276  0.00  0.00    +0.123 A 
ATOM      6  N   UNL     1       8.045  -5.812  27.036  0.00  0.00    -0.343 N 
ATOM      7  H   UNL     1       7.136  -5.812  27.491  0.00  0.00    +0.144 HD
ATOM      8  H   UNL     1       8.326  -6.712  26.671  0.00  0.00    +0.144 HD
ATOM      9  C   UNL     1       9.370  -4.684  25.299  0.00  0.00    +0.061 A 
ATOM     10  C   UNL     1       9.529  -3.552  24.614  0.00  0.00    +0.096 A 
ENDROOT
BRANCH   1  15
ATOM     11  C   UNL     1       9.846  -0.322  25.136  0.00  0.00    +0.126 C 
ATOM     12  S   UNL     1      10.504   0.955  24.056  0.00  0.00    -0.123 S 
ATOM     13  C   UNL     1      10.192  -0.031  22.575  0.00  0.00    +0.203 C 
ATOM     14  O   UNL     1       9.637  -1.312  22.947  0.00  0.00    -0.340 OA
ATOM     15  C   UNL     1       8.963  -1.171  24.215  0.00  0.00    +0.235 C 
BRANCH  13  16
ATOM     16  C   UNL     1       9.237   0.694  21.612  0.00  0.00    +0.198 C 
BRANCH  16  17
ATOM     17  O   UNL     1       9.680   2.037  21.388  0.00  0.00    -0.392 OA
ATOM     18  H   UNL     1       9.132   2.397  20.665  0.00  0.00    +0.210 HD
ENDBRANCH  16  17
ENDBRANCH  13  16
ENDBRANCH   1  15
TORSDOF 3
ENDMDL
MODEL 5
REMARK VINA RESULT:      -5.4      2.892      5.266
REMARK  Name = 
REMARK  3 active torsions:
REMARK  status: ('A' for Active; 'I' for Inactive)
REMARK    1  A    between atoms: C_2  and  N_10
REMARK    2  A    between atoms: C_5  and  C_8
REMARK    3  A    between atoms: C_8  and  O_9
REMARK                            x       y       z     vdW  Elec       q    Type
REMARK                         _______ _______ _______ _____ _____    ______ ____
ROOT
ATOM      1  N   UNL     1       7.899  -3.038  23.014  0.00  0.00    -0.272 N 
ATOM      2  C   UNL     1       8.262  -4.233  23.646  0.00  0.00    +0.352 A 
ATOM      3  O   UNL     1       9.278  -4.293  24.335  0.00  0.00    -0.244 OA
ATOM      4  N   UNL     1       7.476  -5.344  23.454  0.00  0.00    -0.178 NA
ATOM      5  C   UNL     1       6.456  -5.286  22.657  0.00  0.00    +0.123 A 
ATOM      6  N   UNL     1       5.745  -6.436  22.472  0.00  0.00    -0.343 N 
ATOM      7  H   UNL     1       5.951  -7.148  23.168  0.00  0.00    +0.144 HD
ATOM      8  H   UNL     1       4.766  -6.368  22.226  0.00  0.00    +0.144 HD
ATOM      9  C   UNL     1       6.051  -4.052  21.954  0.00  0.00    +0.061 A 
ATOM     10  C   UNL     1       6.812  -2.980  22.170  0.00  0.00    +0.096 A 
ENDROOT
BRANCH   1  15
ATOM     11  C   UNL     1       9.131  -1.325  21.736  0.00  0.00    +0.126 C 
ATOM     12  S   UNL     1       9.844   0.283  22.104  0.00  0.00    -0.123 S 
ATOM     13  C   UNL     1       9.134   0.303  23.764  0.00  0.00    +0.203 C 
ATOM     14  O   UNL     1       8.345  -0.890  23.973  0.00  0.00    -0.340 OA
ATOM     15  C   UNL     1       8.851  -1.933  23.115  0.00  0.00    +0.235 C 
BRANCH  13  16
ATOM     16  C   UNL     1      10.229   0.403  24.839  0.00  0.00    +0.198 C 
BRANCH  16  17
ATOM     17  O   UNL     1       9.708   0.029  26.119  0.00  0.00    -0.392 OA
ATOM     18  H   UNL     1      10.287  -0.679  26.462  0.00  0.00    +0.210 HD
ENDBRANCH  16  17
ENDBRANCH  13  16
ENDBRANCH   1  15
TORSDOF 3
ENDMDL
MODEL 6
REMARK VINA RESULT:      -5.3      3.387      5.996
REMARK  Name = 
REMARK  3 active torsions:
REMARK  status: ('A' for Active; 'I' for Inactive)
REMARK    1  A    between atoms: C_2  and  N_10
REMARK    2  A    between atoms: C_5  and  C_8
REMARK    3  A    between atoms: C_8  and  O_9
REMARK                            x       y       z     vdW  Elec       q    Type
REMARK                         _______ _______ _______ _____ _____    ______ ____
ROOT
ATOM      1  N   UNL     1       7.806  -3.628  25.476  0.00  0.00    -0.272 N 
ATOM      2  C   UNL     1       8.366  -4.911  25.501  0.00  0.00    +0.352 A 
ATOM      3  O   UNL     1       9.177  -5.256  24.645  0.00  0.00    -0.244 OA
ATOM      4  N   UNL     1       7.966  -5.784  26.484  0.00  0.00    -0.178 NA
ATOM      5  C   UNL     1       7.048  -5.433  27.328  0.00  0.00    +0.123 A 
ATOM      6  N   UNL     1       6.661  -6.363  28.250  0.00  0.00    -0.343 N 
ATOM      7  H   UNL     1       7.308  -7.144  28.323  0.00  0.00    +0.144 HD
ATOM      8  H   UNL     1       6.294  -6.045  29.136  0.00  0.00    +0.144 HD
ATOM      9  C   UNL     1       6.415  -4.099  27.324  0.00  0.00    +0.061 A 
ATOM     10  C   UNL     1       6.832  -3.258  26.378  0.00  0.00    +0.096 A 
ENDROOT
BRANCH   1  15
ATOM     11  C   UNL     1       6.990  -1.834  23.993  0.00  0.00    +0.126 C 
ATOM     12  S   UNL     1       7.754  -0.577  22.960  0.00  0.00    -0.123 S 
ATOM     13  C   UNL     1       9.407  -0.971  23.573  0.00  0.00    +0.203 C 
ATOM     14  O   UNL     1       9.324  -2.013  24.570  0.00  0.00    -0.340 OA
ATOM     15  C   UNL     1       8.137  -2.795  24.321  0.00  0.00    +0.235 C 
BRANCH  13  16
ATOM     16  C   UNL     1      10.335  -1.412  22.429  0.00  0.00    +0.198 C 
BRANCH  16  17
ATOM     17  O   UNL     1       9.777  -1.044  21.163  0.00  0.00    -0.392 OA
ATOM     18  H   UNL     1      10.370  -1.407  20.478  0.00  0.00    +0.210 HD
ENDBRANCH  16  17
ENDBRANCH  13  16
ENDBRANCH   1  15
TORSDOF 3
ENDMDL
MODEL 7
REMARK VINA RESULT:      -5.3      2.427      3.246
REMARK  Name = 
REMARK  3 active torsions:
REMARK  status: ('A' for Active; 'I' for Inactive)
REMARK    1  A    between atoms: C_2  and  N_10
REMARK    2  A    between atoms: C_5  and  C_8
REMARK    3  A    between atoms: C_8  and  O_9
REMARK                            x       y       z     vdW  Elec       q    Type
REMARK                         _______ _______ _______ _____ _____    ______ ____
ROOT
ATOM      1  N   UNL     1       9.021  -0.063  23.063  0.00  0.00    -0.272 N 
ATOM      2  C   UNL     1       9.425   0.580  21.887  0.00  0.00    +0.352 A 
ATOM      3  O   UNL     1       9.238   0.056  20.792  0.00  0.00    -0.244 OA
ATOM      4  N   UNL     1      10.061   1.794  21.988  0.00  0.00    -0.178 NA
ATOM      5  C   UNL     1      10.326   2.293  23.153  0.00  0.00    +0.123 A 
ATOM      6  N   UNL     1      11.002   3.479  23.184  0.00  0.00    -0.343 N 
ATOM      7  H   UNL     1      11.009   3.956  22.287  0.00  0.00    +0.144 HD
ATOM      8  H   UNL     1      10.873   4.091  23.978  0.00  0.00    +0.144 HD
ATOM      9  C   UNL     1       9.937   1.638  24.419  0.00  0.00    +0.061 A 
ATOM     10  C   UNL     1       9.301   0.473  24.301  0.00  0.00    +0.096 A 
ENDROOT
BRANCH   1  15
ATOM     11  C   UNL     1       9.200  -2.383  23.881  0.00  0.00    +0.126 C 
ATOM     12  S   UNL     1       8.104  -3.806  23.953  0.00  0.00    -0.123 S 
ATOM     13  C   UNL     1       6.690  -2.841  23.376  0.00  0.00    +0.203 C 
ATOM     14  O   UNL     1       7.083  -1.463  23.187  0.00  0.00    -0.340 OA
ATOM     15  C   UNL     1       8.499  -1.421  22.916  0.00  0.00    +0.235 C 
BRANCH  13  16
ATOM     16  C   UNL     1       6.123  -3.410  22.065  0.00  0.00    +0.198 C 
BRANCH  16  17
ATOM     17  O   UNL     1       4.836  -3.994  22.290  0.00  0.00    -0.392 OA
ATOM     18  H   UNL     1       4.900  -4.929  22.017  0.00  0.00    +0.210 HD
ENDBRANCH  16  17
ENDBRANCH  13  16
ENDBRANCH   1  15
TORSDOF 3
ENDMDL
MODEL 8
REMARK VINA RESULT:      -5.3      1.814      2.077
REMARK  Name = 
REMARK  3 active torsions:
REMARK  status: ('A' for Active; 'I' for Inactive)
REMARK    1  A    between atoms: C_2  and  N_10
REMARK    2  A    between atoms: C_5  and  C_8
REMARK    3  A    between atoms: C_8  and  O_9
REMARK                            x       y       z     vdW  Elec       q    Type
REMARK                         _______ _______ _______ _____ _____    ______ ____
ROOT
ATOM      1  N   UNL     1       9.063  -0.191  23.254  0.00  0.00    -0.272 N 
ATOM      2  C   UNL     1       9.570   0.422  24.406  0.00  0.00    +0.352 A 
ATOM      3  O   UNL     1       9.403  -0.089  25.511  0.00  0.00    -0.244 OA
ATOM      4  N   UNL     1      10.230   1.620  24.277  0.00  0.00    -0.178 NA
ATOM      5  C   UNL     1      10.323   2.187  23.116  0.00  0.00    +0.123 A 
ATOM      6  N   UNL     1      10.950   3.399  23.064  0.00  0.00    -0.343 N 
ATOM      7  H   UNL     1      11.485   3.607  23.902  0.00  0.00    +0.144 HD
ATOM      8  H   UNL     1      11.405   3.674  22.203  0.00  0.00    +0.144 HD
ATOM      9  C   UNL     1       9.785   1.587  21.879  0.00  0.00    +0.061 A 
ATOM     10  C   UNL     1       9.167   0.414  22.020  0.00  0.00    +0.096 A 
ENDROOT
BRANCH   1  15
ATOM     11  C   UNL     1       6.756  -1.062  23.174  0.00  0.00    +0.126 C 
ATOM     12  S   UNL     1       6.003  -2.678  22.944  0.00  0.00    -0.123 S 
ATOM     13  C   UNL     1       7.593  -3.449  22.570  0.00  0.00    +0.203 C 
ATOM     14  O   UNL     1       8.638  -2.452  22.590  0.00  0.00    -0.340 OA
ATOM     15  C   UNL     1       8.229  -1.374  23.459  0.00  0.00    +0.235 C 
BRANCH  13  16
ATOM     16  C   UNL     1       7.918  -4.571  23.570  0.00  0.00    +0.198 C 
BRANCH  16  17
ATOM     17  O   UNL     1       6.800  -4.810  24.432  0.00  0.00    -0.392 OA
ATOM     18  H   UNL     1       7.033  -5.579  24.986  0.00  0.00    +0.210 HD
ENDBRANCH  16  17
ENDBRANCH  13  16
ENDBRANCH   1  15
TORSDOF 3
ENDMDL
MODEL 9
REMARK VINA RESULT:      -5.2      2.487      3.469
REMARK  Name = 
REMARK  3 active torsions:
REMARK  status: ('A' for Active; 'I' for Inactive)
REMARK    1  A    between atoms: C_2  and  N_10
REMARK    2  A    between atoms: C_5  and  C_8
REMARK    3  A    between atoms: C_8  and  O_9
REMARK                            x       y       z     vdW  Elec       q    Type
REMARK                         _______ _______ _______ _____ _____    ______ ____
ROOT
ATOM      1  N   UNL     1       8.132  -2.227  23.709  0.00  0.00    -0.272 N 
ATOM      2  C   UNL     1       9.501  -2.161  23.992  0.00  0.00    +0.352 A 
ATOM      3  O   UNL     1      10.205  -3.165  23.912  0.00  0.00    -0.244 OA
ATOM      4  N   UNL     1      10.033  -0.958  24.389  0.00  0.00    -0.178 NA
ATOM      5  C   UNL     1       9.261   0.070  24.549  0.00  0.00    +0.123 A 
ATOM      6  N   UNL     1       9.844   1.223  24.991  0.00  0.00    -0.343 N 
ATOM      7  H   UNL     1      10.857   1.212  24.915  0.00  0.00    +0.144 HD
ATOM      8  H   UNL     1       9.420   2.108  24.746  0.00  0.00    +0.144 HD
ATOM      9  C   UNL     1       7.809   0.039  24.283  0.00  0.00    +0.061 A 
ATOM     10  C   UNL     1       7.315  -1.130  23.877  0.00  0.00    +0.096 A 
ENDROOT
BRANCH   1  15
ATOM     11  C   UNL     1       6.841  -4.091  24.680  0.00  0.00    +0.126 C 
ATOM     12  S   UNL     1       5.815  -5.416  24.031  0.00  0.00    -0.123 S 
ATOM     13  C   UNL     1       5.894  -4.756  22.351  0.00  0.00    +0.203 C 
ATOM     14  O   UNL     1       6.661  -3.532  22.342  0.00  0.00    -0.340 OA
ATOM     15  C   UNL     1       7.584  -3.558  23.451  0.00  0.00    +0.235 C 
BRANCH  13  16
ATOM     16  C   UNL     1       6.518  -5.773  21.381  0.00  0.00    +0.198 C 
BRANCH  16  17
ATOM     17  O   UNL     1       5.981  -5.602  20.065  0.00  0.00    -0.392 OA
ATOM     18  H   UNL     1       5.154  -6.120  20.030  0.00  0.00    +0.210 HD
ENDBRANCH  16  17
ENDBRANCH  13  16
ENDBRANCH   1  15
TORSDOF 3
ENDMDL
