MODEL 1
REMARK VINA RESULT:      -7.2      0.000      0.000
REMARK  Name = 
REMARK  4 active torsions:
REMARK  status: ('A' for Active; 'I' for Inactive)
REMARK    1  A    between atoms: C_3  and  N_10
REMARK    2  A    between atoms: C_5  and  O_9
REMARK    3  A    between atoms: C_6  and  C_7
REMARK    4  A    between atoms: C_7  and  O_8
REMARK                            x       y       z     vdW  Elec       q    Type
REMARK                         _______ _______ _______ _____ _____    ______ ____
ROOT
ATOM      1  N   UNL     1       8.478  -1.894  23.143  0.00  0.00    -0.308 N 
ATOM      2  C   UNL     1       8.535  -3.054  23.876  0.00  0.00    +0.170 A 
ATOM      3  N   UNL     1       9.636  -3.607  24.445  0.00  0.00    -0.196 NA
ATOM      4  C   UNL     1       9.394  -4.747  25.040  0.00  0.00    +0.195 A 
ATOM      5  N   UNL     1      10.399  -5.441  25.630  0.00  0.00    -0.329 N 
ATOM      6  H   UNL     1      10.175  -6.058  26.399  0.00  0.00    +0.145 HD
ATOM      7  H   UNL     1      11.247  -4.902  25.761  0.00  0.00    +0.145 HD
ATOM      8  N   UNL     1       8.140  -5.322  25.119  0.00  0.00    -0.293 N 
ATOM      9  H   UNL     1       8.017  -6.212  25.571  0.00  0.00    +0.172 HD
ATOM     10  C   UNL     1       6.991  -4.786  24.560  0.00  0.00    +0.280 A 
ATOM     11  O   UNL     1       5.903  -5.345  24.656  0.00  0.00    -0.265 OA
ATOM     12  C   UNL     1       7.247  -3.539  23.878  0.00  0.00    +0.172 A 
ATOM     13  N   UNL     1       6.394  -2.714  23.198  0.00  0.00    -0.229 NA
ATOM     14  C   UNL     1       7.163  -1.728  22.779  0.00  0.00    +0.202 A 
ENDROOT
BRANCH   1  20
ATOM     15  C   UNL     1      10.561   0.090  24.966  0.00  0.00    +0.010 C 
ATOM     16  C   UNL     1       9.725   0.131  23.917  0.00  0.00    -0.046 C 
ATOM     17  C   UNL     1       8.842   1.303  23.497  0.00  0.00    +0.070 C 
ATOM     18  C   UNL     1       8.589   1.042  21.991  0.00  0.00    +0.126 C 
ATOM     19  C   UNL     1       9.446  -0.165  21.610  0.00  0.00    +0.061 C 
ATOM     20  C   UNL     1       9.592  -0.984  22.889  0.00  0.00    +0.118 C 
BRANCH  18  21
ATOM     21  O   UNL     1       8.901   2.128  21.132  0.00  0.00    -0.391 OA
ATOM     22  H   UNL     1       8.078   2.393  20.668  0.00  0.00    +0.210 HD
ENDBRANCH  18  21
BRANCH  17  23
ATOM     23  C   UNL     1       9.367   2.704  23.826  0.00  0.00    +0.166 C 
BRANCH  23  24
ATOM     24  O   UNL     1      10.553   2.988  23.083  0.00  0.00    -0.394 OA
ATOM     25  H   UNL     1      10.333   3.710  22.466  0.00  0.00    +0.209 HD
ENDBRANCH  23  24
ENDBRANCH  17  23
ENDBRANCH   1  20
TORSDOF 4
ENDMDL
MODEL 2
REMARK VINA RESULT:      -6.7      1.607      1.904
REMARK  Name = 
REMARK  4 active torsions:
REMARK  status: ('A' for Active; 'I' for Inactive)
REMARK    1  A    between atoms: C_3  and  N_10
REMARK    2  A    between atoms: C_5  and  O_9
REMARK    3  A    between atoms: C_6  and  C_7
REMARK    4  A    between atoms: C_7  and  O_8
REMARK                            x       y       z     vdW  Elec       q    Type
REMARK                         _______ _______ _______ _____ _____    ______ ____
ROOT
ATOM      1  N   UNL     1       8.029  -1.695  24.999  0.00  0.00    -0.308 N 
ATOM      2  C   UNL     1       8.118  -3.014  25.371  0.00  0.00    +0.170 A 
ATOM      3  N   UNL     1       9.202  -3.822  25.263  0.00  0.00    -0.196 NA
ATOM      4  C   UNL     1       8.974  -5.049  25.653  0.00  0.00    +0.195 A 
ATOM      5  N   UNL     1       9.951  -5.987  25.577  0.00  0.00    -0.329 N 
ATOM      6  H   UNL     1       9.924  -6.769  26.218  0.00  0.00    +0.145 HD
ATOM      7  H   UNL     1      10.877  -5.604  25.426  0.00  0.00    +0.145 HD
ATOM      8  N   UNL     1       7.764  -5.484  26.159  0.00  0.00    -0.293 N 
ATOM      9  H   UNL     1       7.639  -6.446  26.423  0.00  0.00    +0.172 HD
ATOM     10  C   UNL     1       6.636  -4.690  26.293  0.00  0.00    +0.280 A 
ATOM     11  O   UNL     1       5.584  -5.131  26.744  0.00  0.00    -0.265 OA
ATOM     12  C   UNL     1       6.865  -3.336  25.844  0.00  0.00    +0.172 A 
ATOM     13  N   UNL     1       6.017  -2.265  25.802  0.00  0.00    -0.229 NA
ATOM     14  C   UNL     1       6.750  -1.291  25.300  0.00  0.00    +0.202 A 
ENDROOT
BRANCH   1  20
ATOM     15  C   UNL     1       8.820   1.613  24.815  0.00  0.00    +0.010 C 
ATOM     16  C   UNL     1       8.691   0.520  24.046  0.00  0.00    -0.046 C 
ATOM     17  C   UNL     1       8.202   0.473  22.601  0.00  0.00    +0.070 C 
ATOM     18  C   UNL     1       8.805  -0.848  22.060  0.00  0.00    +0.126 C 
ATOM     19  C   UNL     1       9.709  -1.396  23.164  0.00  0.00    +0.061 C 
ATOM     20  C   UNL     1       9.119  -0.877  24.472  0.00  0.00    +0.118 C 
BRANCH  18  21
ATOM     21  O   UNL     1       9.556  -0.719  20.861  0.00  0.00    -0.391 OA
ATOM     22  H   UNL     1       9.127  -0.031  20.309  0.00  0.00    +0.210 HD
ENDBRANCH  18  21
BRANCH  17  23
ATOM     23  C   UNL     1       8.489   1.708  21.743  0.00  0.00    +0.166 C 
BRANCH  23  24
ATOM     24  O   UNL     1       9.894   1.882  21.558  0.00  0.00    -0.394 OA
ATOM     25  H   UNL     1      10.154   1.310  20.812  0.00  0.00    +0.209 HD
ENDBRANCH  23  24
ENDBRANCH  17  23
ENDBRANCH   1  20
TORSDOF 4
ENDMDL
MODEL 3
REMARK VINA RESULT:      -6.6      1.277      1.349
REMARK  Name = 
REMARK  4 active torsions:
REMARK  status: ('A' for Active; 'I' for Inactive)
REMARK    1  A    between atoms: C_3  and  N_10
REMARK    2  A    between atoms: C_5  and  O_9
REMARK    3  A    between atoms: C_6  and  C_7
REMARK    4  A    between atoms: C_7  and  O_8
REMARK                            x       y       z     vdW  Elec       q    Type
REMARK                         _______ _______ _______ _____ _____    ______ ____
ROOT
ATOM      1  N   UNL     1       8.318  -2.686  23.293  0.00  0.00    -0.308 N 
ATOM      2  C   UNL     1       7.855  -3.682  24.117  0.00  0.00    +0.170 A 
ATOM      3  N   UNL     1       8.395  -4.084  25.295  0.00  0.00    -0.196 NA
ATOM      4  C   UNL     1       7.764  -5.095  25.835  0.00  0.00    +0.195 A 
ATOM      5  N   UNL     1       8.201  -5.633  27.001  0.00  0.00    -0.329 N 
ATOM      6  H   UNL     1       7.533  -6.098  27.601  0.00  0.00    +0.145 HD
ATOM      7  H   UNL     1       8.872  -5.056  27.494  0.00  0.00    +0.145 HD
ATOM      8  N   UNL     1       6.639  -5.680  25.289  0.00  0.00    -0.293 N 
ATOM      9  H   UNL     1       6.208  -6.470  25.737  0.00  0.00    +0.172 HD
ATOM     10  C   UNL     1       6.052  -5.295  24.093  0.00  0.00    +0.280 A 
ATOM     11  O   UNL     1       5.055  -5.856  23.652  0.00  0.00    -0.265 OA
ATOM     12  C   UNL     1       6.752  -4.194  23.473  0.00  0.00    +0.172 A 
ATOM     13  N   UNL     1       6.502  -3.540  22.299  0.00  0.00    -0.229 NA
ATOM     14  C   UNL     1       7.454  -2.631  22.225  0.00  0.00    +0.202 A 
ENDROOT
BRANCH   1  20
ATOM     15  C   UNL     1       9.335  -0.587  25.775  0.00  0.00    +0.010 C 
ATOM     16  C   UNL     1       9.121  -0.619  24.450  0.00  0.00    -0.046 C 
ATOM     17  C   UNL     1       8.612   0.526  23.578  0.00  0.00    +0.070 C 
ATOM     18  C   UNL     1       9.115   0.150  22.162  0.00  0.00    +0.126 C 
ATOM     19  C   UNL     1       9.992  -1.091  22.327  0.00  0.00    +0.061 C 
ATOM     20  C   UNL     1       9.455  -1.809  23.562  0.00  0.00    +0.118 C 
BRANCH  18  21
ATOM     21  O   UNL     1       9.858   1.164  21.500  0.00  0.00    -0.391 OA
ATOM     22  H   UNL     1       9.231   1.864  21.219  0.00  0.00    +0.210 HD
ENDBRANCH  18  21
BRANCH  17  23
ATOM     23  C   UNL     1       8.974   1.942  24.034  0.00  0.00    +0.166 C 
BRANCH  23  24
ATOM     24  O   UNL     1      10.390   2.126  24.041  0.00  0.00    -0.394 OA
ATOM     25  H   UNL     1      10.752   1.509  24.703  0.00  0.00    +0.209 HD
ENDBRANCH  23  24
ENDBRANCH  17  23
ENDBRANCH   1  20
TORSDOF 4
ENDMDL
MODEL 4
REMARK VINA RESULT:      -6.5      2.107      6.500
REMARK  Name = 
REMARK  4 active torsions:
REMARK  status: ('A' for Active; 'I' for Inactive)
REMARK    1  A    between atoms: C_3  and  N_10
REMARK    2  A    between atoms: C_5  and  O_9
REMARK    3  A    between atoms: C_6  and  C_7
REMARK    4  A    between atoms: C_7  and  O_8
REMARK                            x       y       z     vdW  Elec       q    Type
REMARK                         _______ _______ _______ _____ _____    ______ ____
ROOT
ATOM      1  N   UNL     1       8.851  -2.563  25.384  0.00  0.00    -0.308 N 
ATOM      2  C   UNL     1       9.030  -1.604  24.418  0.00  0.00    +0.170 A 
ATOM      3  N   UNL     1       9.277  -1.808  23.099  0.00  0.00    -0.196 NA
ATOM      4  C   UNL     1       9.454  -0.699  22.428  0.00  0.00    +0.195 A 
ATOM      5  N   UNL     1       9.741  -0.737  21.103  0.00  0.00    -0.329 N 
ATOM      6  H   UNL     1       9.480   0.053  20.528  0.00  0.00    +0.145 HD
ATOM      7  H   UNL     1       9.576  -1.639  20.673  0.00  0.00    +0.145 HD
ATOM      8  N   UNL     1       9.365   0.561  22.987  0.00  0.00    -0.293 N 
ATOM      9  H   UNL     1       9.533   1.379  22.427  0.00  0.00    +0.172 HD
ATOM     10  C   UNL     1       9.107   0.813  24.326  0.00  0.00    +0.280 A 
ATOM     11  O   UNL     1       9.046   1.955  24.769  0.00  0.00    -0.265 OA
ATOM     12  C   UNL     1       8.933  -0.403  25.085  0.00  0.00    +0.172 A 
ATOM     13  N   UNL     1       8.678  -0.583  26.416  0.00  0.00    -0.229 NA
ATOM     14  C   UNL     1       8.623  -1.892  26.562  0.00  0.00    +0.202 A 
ENDROOT
BRANCH   1  20
ATOM     15  C   UNL     1       7.182  -4.766  23.394  0.00  0.00    +0.010 C 
ATOM     16  C   UNL     1       7.480  -4.533  24.682  0.00  0.00    -0.046 C 
ATOM     17  C   UNL     1       6.600  -4.833  25.893  0.00  0.00    +0.070 C 
ATOM     18  C   UNL     1       7.614  -4.934  27.059  0.00  0.00    +0.126 C 
ATOM     19  C   UNL     1       9.006  -4.833  26.434  0.00  0.00    +0.061 C 
ATOM     20  C   UNL     1       8.825  -4.007  25.164  0.00  0.00    +0.118 C 
BRANCH  18  21
ATOM     21  O   UNL     1       7.531  -6.127  27.826  0.00  0.00    -0.391 OA
ATOM     22  H   UNL     1       6.847  -5.995  28.516  0.00  0.00    +0.210 HD
ENDBRANCH  18  21
BRANCH  17  23
ATOM     23  C   UNL     1       5.648  -6.025  25.765  0.00  0.00    +0.166 C 
BRANCH  23  24
ATOM     24  O   UNL     1       4.761  -6.088  26.883  0.00  0.00    -0.394 OA
ATOM     25  H   UNL     1       5.289  -5.878  27.674  0.00  0.00    +0.209 HD
ENDBRANCH  23  24
ENDBRANCH  17  23
ENDBRANCH   1  20
TORSDOF 4
ENDMDL
MODEL 5
REMARK VINA RESULT:      -6.5      2.711      6.446
REMARK  Name = 
REMARK  4 active torsions:
REMARK  status: ('A' for Active; 'I' for Inactive)
REMARK    1  A    between atoms: C_3  and  N_10
REMARK    2  A    between atoms: C_5  and  O_9
REMARK    3  A    between atoms: C_6  and  C_7
REMARK    4  A    between atoms: C_7  and  O_8
REMARK                            x       y       z     vdW  Elec       q    Type
REMARK                         _______ _______ _______ _____ _____    ______ ____
ROOT
ATOM      1  N   UNL     1       8.872  -0.088  24.339  0.00  0.00    -0.308 N 
ATOM      2  C   UNL     1       8.768   1.143  23.739  0.00  0.00    +0.170 A 
ATOM      3  N   UNL     1       7.675   1.663  23.126  0.00  0.00    -0.196 NA
ATOM      4  C   UNL     1       7.889   2.841  22.598  0.00  0.00    +0.195 A 
ATOM      5  N   UNL     1       6.901   3.480  21.923  0.00  0.00    -0.329 N 
ATOM      6  H   UNL     1       6.919   4.490  21.881  0.00  0.00    +0.145 HD
ATOM      7  H   UNL     1       5.980   3.085  22.071  0.00  0.00    +0.145 HD
ATOM      8  N   UNL     1       9.093   3.513  22.680  0.00  0.00    -0.293 N 
ATOM      9  H   UNL     1       9.207   4.408  22.235  0.00  0.00    +0.172 HD
ATOM     10  C   UNL     1      10.230   3.021  23.302  0.00  0.00    +0.280 A 
ATOM     11  O   UNL     1      11.276   3.661  23.338  0.00  0.00    -0.265 OA
ATOM     12  C   UNL     1      10.016   1.710  23.870  0.00  0.00    +0.172 A 
ATOM     13  N   UNL     1      10.876   0.891  24.546  0.00  0.00    -0.229 NA
ATOM     14  C   UNL     1      10.155  -0.177  24.825  0.00  0.00    +0.202 A 
ENDROOT
BRANCH   1  20
ATOM     15  C   UNL     1       8.027  -2.567  26.516  0.00  0.00    +0.010 C 
ATOM     16  C   UNL     1       8.212  -2.339  25.206  0.00  0.00    -0.046 C 
ATOM     17  C   UNL     1       8.769  -3.320  24.178  0.00  0.00    +0.070 C 
ATOM     18  C   UNL     1       8.217  -2.783  22.833  0.00  0.00    +0.126 C 
ATOM     19  C   UNL     1       7.273  -1.631  23.180  0.00  0.00    +0.061 C 
ATOM     20  C   UNL     1       7.792  -1.059  24.496  0.00  0.00    +0.118 C 
BRANCH  18  21
ATOM     21  O   UNL     1       7.520  -3.738  22.045  0.00  0.00    -0.391 OA
ATOM     22  H   UNL     1       7.795  -3.617  21.112  0.00  0.00    +0.210 HD
ENDBRANCH  18  21
BRANCH  17  23
ATOM     23  C   UNL     1       8.498  -4.804  24.435  0.00  0.00    +0.166 C 
BRANCH  23  24
ATOM     24  O   UNL     1       9.716  -5.504  24.696  0.00  0.00    -0.394 OA
ATOM     25  H   UNL     1      10.392  -5.123  24.107  0.00  0.00    +0.209 HD
ENDBRANCH  23  24
ENDBRANCH  17  23
ENDBRANCH   1  20
TORSDOF 4
ENDMDL
MODEL 6
REMARK VINA RESULT:      -6.4      1.600      1.962
REMARK  Name = 
REMARK  4 active torsions:
REMARK  status: ('A' for Active; 'I' for Inactive)
REMARK    1  A    between atoms: C_3  and  N_10
REMARK    2  A    between atoms: C_5  and  O_9
REMARK    3  A    between atoms: C_6  and  C_7
REMARK    4  A    between atoms: C_7  and  O_8
REMARK                            x       y       z     vdW  Elec       q    Type
REMARK                         _______ _______ _______ _____ _____    ______ ____
ROOT
ATOM      1  N   UNL     1       8.746  -1.753  24.251  0.00  0.00    -0.308 N 
ATOM      2  C   UNL     1       8.047  -2.893  23.941  0.00  0.00    +0.170 A 
ATOM      3  N   UNL     1       8.082  -3.580  22.771  0.00  0.00    -0.196 NA
ATOM      4  C   UNL     1       7.267  -4.603  22.747  0.00  0.00    +0.195 A 
ATOM      5  N   UNL     1       7.163  -5.373  21.634  0.00  0.00    -0.329 N 
ATOM      6  H   UNL     1       6.881  -6.338  21.738  0.00  0.00    +0.145 HD
ATOM      7  H   UNL     1       7.908  -5.226  20.963  0.00  0.00    +0.145 HD
ATOM      8  N   UNL     1       6.471  -4.978  23.812  0.00  0.00    -0.293 N 
ATOM      9  H   UNL     1       5.846  -5.761  23.729  0.00  0.00    +0.172 HD
ATOM     10  C   UNL     1       6.411  -4.309  25.025  0.00  0.00    +0.280 A 
ATOM     11  O   UNL     1       5.680  -4.685  25.935  0.00  0.00    -0.265 OA
ATOM     12  C   UNL     1       7.289  -3.162  25.058  0.00  0.00    +0.172 A 
ATOM     13  N   UNL     1       7.510  -2.250  26.052  0.00  0.00    -0.229 NA
ATOM     14  C   UNL     1       8.400  -1.422  25.540  0.00  0.00    +0.202 A 
ENDROOT
BRANCH   1  20
ATOM     15  C   UNL     1      11.186   0.599  24.592  0.00  0.00    +0.010 C 
ATOM     16  C   UNL     1      10.099   0.313  23.858  0.00  0.00    -0.046 C 
ATOM     17  C   UNL     1       9.105   1.312  23.271  0.00  0.00    +0.070 C 
ATOM     18  C   UNL     1       8.466   0.534  22.094  0.00  0.00    +0.126 C 
ATOM     19  C   UNL     1       9.222  -0.790  21.987  0.00  0.00    +0.061 C 
ATOM     20  C   UNL     1       9.727  -1.089  23.396  0.00  0.00    +0.118 C 
BRANCH  18  21
ATOM     21  O   UNL     1       8.507   1.199  20.840  0.00  0.00    -0.391 OA
ATOM     22  H   UNL     1       9.118   0.703  20.255  0.00  0.00    +0.210 HD
ENDBRANCH  18  21
BRANCH  17  23
ATOM     23  C   UNL     1       9.660   2.690  22.903  0.00  0.00    +0.166 C 
BRANCH  23  24
ATOM     24  O   UNL     1      10.594   2.590  21.827  0.00  0.00    -0.394 OA
ATOM     25  H   UNL     1      11.228   1.890  22.068  0.00  0.00    +0.209 HD
ENDBRANCH  23  24
ENDBRANCH  17  23
ENDBRANCH   1  20
TORSDOF 4
ENDMDL
MODEL 7
REMARK VINA RESULT:      -6.4      1.938      2.971
REMARK  Name = 
REMARK  4 active torsions:
REMARK  status: ('A' for Active; 'I' for Inactive)
REMARK    1  A    between atoms: C_3  and  N_10
REMARK    2  A    between atoms: C_5  and  O_9
REMARK    3  A    between atoms: C_6  and  C_7
REMARK    4  A    between atoms: C_7  and  O_8
REMARK                            x       y       z     vdW  Elec       q    Type
REMARK                         _______ _______ _______ _____ _____    ______ ____
ROOT
ATOM      1  N   UNL     1       8.049  -2.888  24.342  0.00  0.00    -0.308 N 
ATOM      2  C   UNL     1       7.338  -4.001  24.719  0.00  0.00    +0.170 A 
ATOM      3  N   UNL     1       6.443  -4.691  23.967  0.00  0.00    -0.196 NA
ATOM      4  C   UNL     1       5.881  -5.682  24.612  0.00  0.00    +0.195 A 
ATOM      5  N   UNL     1       4.940  -6.449  24.007  0.00  0.00    -0.329 N 
ATOM      6  H   UNL     1       4.817  -7.402  24.321  0.00  0.00    +0.145 HD
ATOM      7  H   UNL     1       4.901  -6.333  23.001  0.00  0.00    +0.145 HD
ATOM      8  N   UNL     1       6.185  -6.022  25.916  0.00  0.00    -0.293 N 
ATOM      9  H   UNL     1       5.705  -6.780  26.369  0.00  0.00    +0.172 HD
ATOM     10  C   UNL     1       7.097  -5.349  26.714  0.00  0.00    +0.280 A 
ATOM     11  O   UNL     1       7.323  -5.693  27.869  0.00  0.00    -0.265 OA
ATOM     12  C   UNL     1       7.709  -4.237  26.023  0.00  0.00    +0.172 A 
ATOM     13  N   UNL     1       8.637  -3.332  26.457  0.00  0.00    -0.229 NA
ATOM     14  C   UNL     1       8.828  -2.541  25.420  0.00  0.00    +0.202 A 
ENDROOT
BRANCH   1  20
ATOM     15  C   UNL     1      10.286  -1.440  22.222  0.00  0.00    +0.010 C 
ATOM     16  C   UNL     1       9.108  -1.209  22.823  0.00  0.00    -0.046 C 
ATOM     17  C   UNL     1       8.585   0.136  23.320  0.00  0.00    +0.070 C 
ATOM     18  C   UNL     1       7.049  -0.064  23.350  0.00  0.00    +0.126 C 
ATOM     19  C   UNL     1       6.779  -1.440  22.740  0.00  0.00    +0.061 C 
ATOM     20  C   UNL     1       8.031  -2.265  23.021  0.00  0.00    +0.118 C 
BRANCH  18  21
ATOM     21  O   UNL     1       6.301   0.916  22.646  0.00  0.00    -0.391 OA
ATOM     22  H   UNL     1       6.911   1.380  22.034  0.00  0.00    +0.210 HD
ENDBRANCH  18  21
BRANCH  17  23
ATOM     23  C   UNL     1       9.055   1.376  22.555  0.00  0.00    +0.166 C 
BRANCH  23  24
ATOM     24  O   UNL     1       8.662   1.306  21.184  0.00  0.00    -0.394 OA
ATOM     25  H   UNL     1       7.941   0.651  21.131  0.00  0.00    +0.209 HD
ENDBRANCH  23  24
ENDBRANCH  17  23
ENDBRANCH   1  20
TORSDOF 4
ENDMDL
MODEL 8
REMARK VINA RESULT:      -6.4      2.408      6.050
REMARK  Name = 
REMARK  4 active torsions:
REMARK  status: ('A' for Active; 'I' for Inactive)
REMARK    1  A    between atoms: C_3  and  N_10
REMARK    2  A    between atoms: C_5  and  O_9
REMARK    3  A    between atoms: C_6  and  C_7
REMARK    4  A    between atoms: C_7  and  O_8
REMARK                            x       y       z     vdW  Elec       q    Type
REMARK                         _______ _______ _______ _____ _____    ______ ____
ROOT
ATOM      1  N   UNL     1       8.600  -1.789  23.878  0.00  0.00    -0.308 N 
ATOM      2  C   UNL     1       8.677  -0.523  24.406  0.00  0.00    +0.170 A 
ATOM      3  N   UNL     1       7.874   0.014  25.359  0.00  0.00    -0.196 NA
ATOM      4  C   UNL     1       8.154   1.264  25.627  0.00  0.00    +0.195 A 
ATOM      5  N   UNL     1       7.420   1.952  26.537  0.00  0.00    -0.329 N 
ATOM      6  H   UNL     1       7.855   2.723  27.027  0.00  0.00    +0.145 HD
ATOM      7  H   UNL     1       6.833   1.366  27.118  0.00  0.00    +0.145 HD
ATOM      8  N   UNL     1       9.184   1.966  25.031  0.00  0.00    -0.293 N 
ATOM      9  H   UNL     1       9.339   2.933  25.260  0.00  0.00    +0.172 HD
ATOM     10  C   UNL     1      10.030   1.453  24.061  0.00  0.00    +0.280 A 
ATOM     11  O   UNL     1      10.926   2.126  23.561  0.00  0.00    -0.265 OA
ATOM     12  C   UNL     1       9.718   0.080  23.737  0.00  0.00    +0.172 A 
ATOM     13  N   UNL     1      10.301  -0.769  22.838  0.00  0.00    -0.229 NA
ATOM     14  C   UNL     1       9.614  -1.887  22.955  0.00  0.00    +0.202 A 
ENDROOT
BRANCH   1  20
ATOM     15  C   UNL     1       8.696  -5.149  24.428  0.00  0.00    +0.010 C 
ATOM     16  C   UNL     1       8.012  -4.216  23.746  0.00  0.00    -0.046 C 
ATOM     17  C   UNL     1       7.371  -4.376  22.370  0.00  0.00    +0.070 C 
ATOM     18  C   UNL     1       6.275  -3.282  22.354  0.00  0.00    +0.126 C 
ATOM     19  C   UNL     1       6.257  -2.665  23.753  0.00  0.00    +0.061 C 
ATOM     20  C   UNL     1       7.673  -2.837  24.295  0.00  0.00    +0.118 C 
BRANCH  18  21
ATOM     21  O   UNL     1       4.972  -3.741  22.027  0.00  0.00    -0.391 OA
ATOM     22  H   UNL     1       4.568  -4.108  22.842  0.00  0.00    +0.210 HD
ENDBRANCH  18  21
BRANCH  17  23
ATOM     23  C   UNL     1       6.881  -5.780  22.006  0.00  0.00    +0.166 C 
BRANCH  23  24
ATOM     24  O   UNL     1       6.315  -5.795  20.695  0.00  0.00    -0.394 OA
ATOM     25  H   UNL     1       6.034  -4.883  20.498  0.00  0.00    +0.209 HD
ENDBRANCH  23  24
ENDBRANCH  17  23
ENDBRANCH   1  20
TORSDOF 4
ENDMDL
MODEL 9
REMARK VINA RESULT:      -6.4      2.330      6.289
REMARK  Name = 
REMARK  4 active torsions:
REMARK  status: ('A' for Active; 'I' for Inactive)
REMARK    1  A    between atoms: C_3  and  N_10
REMARK    2  A    between atoms: C_5  and  O_9
REMARK    3  A    between atoms: C_6  and  C_7
REMARK    4  A    between atoms: C_7  and  O_8
REMARK                            x       y       z     vdW  Elec       q    Type
REMARK                         _______ _______ _______ _____ _____    ______ ____
ROOT
ATOM      1  N   UNL     1       7.358  -2.098  23.817  0.00  0.00    -0.308 N 
ATOM      2  C   UNL     1       8.130  -1.027  23.439  0.00  0.00    +0.170 A 
ATOM      3  N   UNL     1       7.998  -0.282  22.312  0.00  0.00    -0.196 NA
ATOM      4  C   UNL     1       8.913   0.645  22.195  0.00  0.00    +0.195 A 
ATOM      5  N   UNL     1       8.935   1.453  21.105  0.00  0.00    -0.329 N 
ATOM      6  H   UNL     1       9.340   2.376  21.195  0.00  0.00    +0.145 HD
ATOM      7  H   UNL     1       8.086   1.422  20.554  0.00  0.00    +0.145 HD
ATOM      8  N   UNL     1       9.898   0.877  23.134  0.00  0.00    -0.293 N 
ATOM      9  H   UNL     1      10.590   1.590  22.980  0.00  0.00    +0.172 HD
ATOM     10  C   UNL     1      10.063   0.146  24.300  0.00  0.00    +0.280 A 
ATOM     11  O   UNL     1      10.963   0.393  25.097  0.00  0.00    -0.265 OA
ATOM     12  C   UNL     1       9.074  -0.898  24.433  0.00  0.00    +0.172 A 
ATOM     13  N   UNL     1       8.901  -1.830  25.418  0.00  0.00    -0.229 NA
ATOM     14  C   UNL     1       7.855  -2.528  25.025  0.00  0.00    +0.202 A 
ENDROOT
BRANCH   1  20
ATOM     15  C   UNL     1       4.316  -3.411  24.605  0.00  0.00    +0.010 C 
ATOM     16  C   UNL     1       5.411  -3.666  23.873  0.00  0.00    -0.046 C 
ATOM     17  C   UNL     1       6.020  -5.037  23.587  0.00  0.00    +0.070 C 
ATOM     18  C   UNL     1       6.830  -4.807  22.287  0.00  0.00    +0.126 C 
ATOM     19  C   UNL     1       6.525  -3.380  21.832  0.00  0.00    +0.061 C 
ATOM     20  C   UNL     1       6.189  -2.607  23.104  0.00  0.00    +0.118 C 
BRANCH  18  21
ATOM     21  O   UNL     1       6.537  -5.708  21.229  0.00  0.00    -0.391 OA
ATOM     22  H   UNL     1       7.180  -6.448  21.276  0.00  0.00    +0.210 HD
ENDBRANCH  18  21
BRANCH  17  23
ATOM     23  C   UNL     1       5.047  -6.218  23.537  0.00  0.00    +0.166 C 
BRANCH  23  24
ATOM     24  O   UNL     1       4.146  -6.086  22.437  0.00  0.00    -0.394 OA
ATOM     25  H   UNL     1       4.675  -5.796  21.672  0.00  0.00    +0.209 HD
ENDBRANCH  23  24
ENDBRANCH  17  23
ENDBRANCH   1  20
TORSDOF 4
ENDMDL
