MODEL 1
REMARK VINA RESULT:      -6.4      0.000      0.000
REMARK  Name = 
REMARK  5 active torsions:
REMARK  status: ('A' for Active; 'I' for Inactive)
REMARK    1  A    between atoms: C5M_1  and  C5_2
REMARK    2  A    between atoms: N1_4  and  C1*_10
REMARK    3  A    between atoms: C3*_13  and  O3*_20
REMARK    4  A    between atoms: C4*_15  and  C5*_18
REMARK    5  A    between atoms: C5*_18  and  O5*_19
REMARK                            x       y       z     vdW  Elec       q    Type
REMARK                         _______ _______ _______ _____ _____    ______ ____
ROOT
ATOM      1  C5M   T A   1       5.663  -3.674  27.297  0.00  0.00    +0.051 C 
ATOM      2  C5    T A   1       6.970  -3.969  26.637  0.00  0.00    +0.030 A 
ATOM      3  C4    T A   1       7.688  -5.195  27.054  0.00  0.00    +0.257 A 
ATOM      4  O4    T A   1       7.233  -5.958  27.899  0.00  0.00    -0.267 OA
ATOM      5  N3    T A   1       8.881  -5.428  26.432  0.00  0.00    -0.275 N 
ATOM      6  H3    T A   1       9.377  -6.264  26.696  0.00  0.00    +0.173 HD
ATOM      7  C2    T A   1       9.437  -4.669  25.438  0.00  0.00    +0.331 A 
ATOM      8  O2    T A   1      10.479  -5.027  24.895  0.00  0.00    -0.246 OA
ATOM      9  N1    T A   1       8.746  -3.511  25.105  0.00  0.00    -0.274 N 
ATOM     10  C6    T A   1       7.538  -3.199  25.702  0.00  0.00    +0.101 A 
ENDROOT
BRANCH   9  11
ATOM     11  C1*   T A   1       9.336  -2.664  24.077  0.00  0.00    +0.226 C 
ATOM     12  O4*   T A   1       9.704  -1.380  24.610  0.00  0.00    -0.348 OA
ATOM     13  C4*   T A   1       9.681  -0.431  23.512  0.00  0.00    +0.175 C 
ATOM     14  C3*   T A   1       9.070  -1.154  22.304  0.00  0.00    +0.150 C 
ATOM     15  C2*   T A   1       8.396  -2.361  22.918  0.00  0.00    +0.088 C 
BRANCH  14  16
ATOM     16  O3*   T A   1      10.116  -1.597  21.436  0.00  0.00    -0.389 OA
ATOM     17  H3*   T A   1      10.428  -2.460  21.765  0.00  0.00    +0.210 HD
ENDBRANCH  14  16
BRANCH  13  18
ATOM     18  C5*   T A   1       8.869   0.783  23.963  0.00  0.00    +0.190 C 
BRANCH  18  19
ATOM     19  O5*   T A   1       9.445   1.384  25.121  0.00  0.00    -0.392 OA
ATOM     20  H5*   T A   1      10.393   1.164  25.092  0.00  0.00    +0.210 HD
ENDBRANCH  18  19
ENDBRANCH  13  18
ENDBRANCH   9  11
TORSDOF 4
ENDMDL
MODEL 2
REMARK VINA RESULT:      -6.0      3.184      4.066
REMARK  Name = 
REMARK  5 active torsions:
REMARK  status: ('A' for Active; 'I' for Inactive)
REMARK    1  A    between atoms: C5M_1  and  C5_2
REMARK    2  A    between atoms: N1_4  and  C1*_10
REMARK    3  A    between atoms: C3*_13  and  O3*_20
REMARK    4  A    between atoms: C4*_15  and  C5*_18
REMARK    5  A    between atoms: C5*_18  and  O5*_19
REMARK                            x       y       z     vdW  Elec       q    Type
REMARK                         _______ _______ _______ _____ _____    ______ ____
ROOT
ATOM      1  C5M   T A   1       7.191  -5.619  21.644  0.00  0.00    +0.051 C 
ATOM      2  C5    T A   1       6.730  -4.446  22.444  0.00  0.00    +0.030 A 
ATOM      3  C4    T A   1       5.294  -4.378  22.798  0.00  0.00    +0.257 A 
ATOM      4  O4    T A   1       4.501  -5.251  22.465  0.00  0.00    -0.267 OA
ATOM      5  N3    T A   1       4.911  -3.289  23.526  0.00  0.00    -0.275 N 
ATOM      6  H3    T A   1       3.939  -3.232  23.785  0.00  0.00    +0.173 HD
ATOM      7  C2    T A   1       5.731  -2.298  23.994  0.00  0.00    +0.331 A 
ATOM      8  O2    T A   1       5.281  -1.409  24.713  0.00  0.00    -0.246 OA
ATOM      9  N1    T A   1       7.063  -2.386  23.609  0.00  0.00    -0.274 N 
ATOM     10  C6    T A   1       7.524  -3.452  22.858  0.00  0.00    +0.101 A 
ENDROOT
BRANCH   9  11
ATOM     11  C1*   T A   1       7.951  -1.323  24.060  0.00  0.00    +0.226 C 
ATOM     12  O4*   T A   1       7.962  -0.225  23.131  0.00  0.00    -0.348 OA
ATOM     13  C4*   T A   1       9.236   0.454  23.276  0.00  0.00    +0.175 C 
ATOM     14  C3*   T A   1      10.106  -0.412  24.197  0.00  0.00    +0.150 C 
ATOM     15  C2*   T A   1       9.406  -1.752  24.188  0.00  0.00    +0.088 C 
BRANCH  14  16
ATOM     16  O3*   T A   1      10.070   0.122  25.523  0.00  0.00    -0.389 OA
ATOM     17  H3*   T A   1      10.974   0.403  25.753  0.00  0.00    +0.210 HD
ENDBRANCH  14  16
BRANCH  13  18
ATOM     18  C5*   T A   1       9.830   0.632  21.878  0.00  0.00    +0.190 C 
BRANCH  18  19
ATOM     19  O5*   T A   1       9.813   2.003  21.483  0.00  0.00    -0.392 OA
ATOM     20  H5*   T A   1       9.168   2.062  20.757  0.00  0.00    +0.210 HD
ENDBRANCH  18  19
ENDBRANCH  13  18
ENDBRANCH   9  11
TORSDOF 4
ENDMDL
MODEL 3
REMARK VINA RESULT:      -5.7      2.129      5.422
REMARK  Name = 
REMARK  5 active torsions:
REMARK  status: ('A' for Active; 'I' for Inactive)
REMARK    1  A    between atoms: C5M_1  and  C5_2
REMARK    2  A    between atoms: N1_4  and  C1*_10
REMARK    3  A    between atoms: C3*_13  and  O3*_20
REMARK    4  A    between atoms: C4*_15  and  C5*_18
REMARK    5  A    between atoms: C5*_18  and  O5*_19
REMARK                            x       y       z     vdW  Elec       q    Type
REMARK                         _______ _______ _______ _____ _____    ______ ____
ROOT
ATOM      1  C5M   T A   1       7.902   1.364  25.679  0.00  0.00    +0.051 C 
ATOM      2  C5    T A   1       8.642   0.445  24.763  0.00  0.00    +0.030 A 
ATOM      3  C4    T A   1       9.410   1.055  23.654  0.00  0.00    +0.257 A 
ATOM      4  O4    T A   1       9.460   2.268  23.488  0.00  0.00    -0.267 OA
ATOM      5  N3    T A   1      10.070   0.183  22.836  0.00  0.00    -0.275 N 
ATOM      6  H3    T A   1      10.607   0.582  22.083  0.00  0.00    +0.173 HD
ATOM      7  C2    T A   1      10.123  -1.177  22.979  0.00  0.00    +0.331 A 
ATOM      8  O2    T A   1      10.821  -1.852  22.225  0.00  0.00    -0.246 OA
ATOM      9  N1    T A   1       9.360  -1.706  24.011  0.00  0.00    -0.274 N 
ATOM     10  C6    T A   1       8.653  -0.888  24.874  0.00  0.00    +0.101 A 
ENDROOT
BRANCH   9  11
ATOM     11  C1*   T A   1       9.367  -3.155  24.162  0.00  0.00    +0.226 C 
ATOM     12  O4*   T A   1       8.317  -3.764  23.390  0.00  0.00    -0.348 OA
ATOM     13  C4*   T A   1       7.983  -5.023  24.028  0.00  0.00    +0.175 C 
ATOM     14  C3*   T A   1       8.737  -5.066  25.364  0.00  0.00    +0.150 C 
ATOM     15  C2*   T A   1       9.136  -3.625  25.591  0.00  0.00    +0.088 C 
BRANCH  14  16
ATOM     16  O3*   T A   1       9.919  -5.857  25.217  0.00  0.00    -0.389 OA
ATOM     17  H3*   T A   1       9.681  -6.783  25.405  0.00  0.00    +0.210 HD
ENDBRANCH  14  16
BRANCH  13  18
ATOM     18  C5*   T A   1       6.464  -5.074  24.191  0.00  0.00    +0.190 C 
BRANCH  18  19
ATOM     19  O5*   T A   1       6.100  -5.667  25.437  0.00  0.00    -0.392 OA
ATOM     20  H5*   T A   1       5.917  -6.603  25.242  0.00  0.00    +0.210 HD
ENDBRANCH  18  19
ENDBRANCH  13  18
ENDBRANCH   9  11
TORSDOF 4
ENDMDL
MODEL 4
REMARK VINA RESULT:      -5.7      1.832      2.745
REMARK  Name = 
REMARK  5 active torsions:
REMARK  status: ('A' for Active; 'I' for Inactive)
REMARK    1  A    between atoms: C5M_1  and  C5_2
REMARK    2  A    between atoms: N1_4  and  C1*_10
REMARK    3  A    between atoms: C3*_13  and  O3*_20
REMARK    4  A    between atoms: C4*_15  and  C5*_18
REMARK    5  A    between atoms: C5*_18  and  O5*_19
REMARK                            x       y       z     vdW  Elec       q    Type
REMARK                         _______ _______ _______ _____ _____    ______ ____
ROOT
ATOM      1  C5M   T A   1       6.846  -2.632  26.724  0.00  0.00    +0.051 C 
ATOM      2  C5    T A   1       7.906  -2.473  25.685  0.00  0.00    +0.030 A 
ATOM      3  C4    T A   1       8.608  -3.693  25.228  0.00  0.00    +0.257 A 
ATOM      4  O4    T A   1       8.331  -4.805  25.666  0.00  0.00    -0.267 OA
ATOM      5  N3    T A   1       9.574  -3.507  24.282  0.00  0.00    -0.275 N 
ATOM      6  H3    T A   1      10.053  -4.329  23.951  0.00  0.00    +0.173 HD
ATOM      7  C2    T A   1       9.909  -2.318  23.691  0.00  0.00    +0.331 A 
ATOM      8  O2    T A   1      10.740  -2.289  22.786  0.00  0.00    -0.246 OA
ATOM      9  N1    T A   1       9.249  -1.197  24.176  0.00  0.00    -0.274 N 
ATOM     10  C6    T A   1       8.268  -1.304  25.145  0.00  0.00    +0.101 A 
ENDROOT
BRANCH   9  11
ATOM     11  C1*   T A   1       9.615   0.087  23.592  0.00  0.00    +0.226 C 
ATOM     12  O4*   T A   1       9.779   1.092  24.608  0.00  0.00    -0.348 OA
ATOM     13  C4*   T A   1       9.521   2.379  23.990  0.00  0.00    +0.175 C 
ATOM     14  C3*   T A   1       8.977   2.104  22.583  0.00  0.00    +0.150 C 
ATOM     15  C2*   T A   1       8.568   0.649  22.640  0.00  0.00    +0.088 C 
BRANCH  14  16
ATOM     16  O3*   T A   1      10.031   2.252  21.628  0.00  0.00    -0.389 OA
ATOM     17  H3*   T A   1       9.808   1.706  20.853  0.00  0.00    +0.210 HD
ENDBRANCH  14  16
BRANCH  13  18
ATOM     18  C5*   T A   1       8.534   3.133  24.882  0.00  0.00    +0.190 C 
BRANCH  18  19
ATOM     19  O5*   T A   1       8.049   2.298  25.932  0.00  0.00    -0.392 OA
ATOM     20  H5*   T A   1       8.813   2.132  26.513  0.00  0.00    +0.210 HD
ENDBRANCH  18  19
ENDBRANCH  13  18
ENDBRANCH   9  11
TORSDOF 4
ENDMDL
MODEL 5
REMARK VINA RESULT:      -5.6      3.064      3.328
REMARK  Name = 
REMARK  5 active torsions:
REMARK  status: ('A' for Active; 'I' for Inactive)
REMARK    1  A    between atoms: C5M_1  and  C5_2
REMARK    2  A    between atoms: N1_4  and  C1*_10
REMARK    3  A    between atoms: C3*_13  and  O3*_20
REMARK    4  A    between atoms: C4*_15  and  C5*_18
REMARK    5  A    between atoms: C5*_18  and  O5*_19
REMARK                            x       y       z     vdW  Elec       q    Type
REMARK                         _______ _______ _______ _____ _____    ______ ____
ROOT
ATOM      1  C5M   T A   1       5.087  -6.054  26.471  0.00  0.00    +0.051 C 
ATOM      2  C5    T A   1       5.561  -5.892  25.064  0.00  0.00    +0.030 A 
ATOM      3  C4    T A   1       4.928  -6.736  24.025  0.00  0.00    +0.257 A 
ATOM      4  O4    T A   1       4.036  -7.534  24.291  0.00  0.00    -0.267 OA
ATOM      5  N3    T A   1       5.390  -6.562  22.753  0.00  0.00    -0.275 N 
ATOM      6  H3    T A   1       4.962  -7.120  22.031  0.00  0.00    +0.173 HD
ATOM      7  C2    T A   1       6.334  -5.655  22.352  0.00  0.00    +0.331 A 
ATOM      8  O2    T A   1       6.609  -5.534  21.160  0.00  0.00    -0.246 OA
ATOM      9  N1    T A   1       6.924  -4.911  23.365  0.00  0.00    -0.274 N 
ATOM     10  C6    T A   1       6.519  -5.041  24.681  0.00  0.00    +0.101 A 
ENDROOT
BRANCH   9  11
ATOM     11  C1*   T A   1       7.961  -3.966  22.970  0.00  0.00    +0.226 C 
ATOM     12  O4*   T A   1       8.816  -3.639  24.080  0.00  0.00    -0.348 OA
ATOM     13  C4*   T A   1       9.371  -2.323  23.827  0.00  0.00    +0.175 C 
ATOM     14  C3*   T A   1       8.646  -1.755  22.599  0.00  0.00    +0.150 C 
ATOM     15  C2*   T A   1       7.420  -2.631  22.476  0.00  0.00    +0.088 C 
BRANCH  14  16
ATOM     16  O3*   T A   1       9.463  -1.937  21.439  0.00  0.00    -0.389 OA
ATOM     17  H3*   T A   1       9.971  -1.116  21.304  0.00  0.00    +0.210 HD
ENDBRANCH  14  16
BRANCH  13  18
ATOM     18  C5*   T A   1       9.168  -1.482  25.088  0.00  0.00    +0.190 C 
BRANCH  18  19
ATOM     19  O5*   T A   1       8.473  -2.221  26.091  0.00  0.00    -0.392 OA
ATOM     20  H5*   T A   1       7.559  -2.312  25.768  0.00  0.00    +0.210 HD
ENDBRANCH  18  19
ENDBRANCH  13  18
ENDBRANCH   9  11
TORSDOF 4
ENDMDL
MODEL 6
REMARK VINA RESULT:      -5.6      3.118      5.113
REMARK  Name = 
REMARK  5 active torsions:
REMARK  status: ('A' for Active; 'I' for Inactive)
REMARK    1  A    between atoms: C5M_1  and  C5_2
REMARK    2  A    between atoms: N1_4  and  C1*_10
REMARK    3  A    between atoms: C3*_13  and  O3*_20
REMARK    4  A    between atoms: C4*_15  and  C5*_18
REMARK    5  A    between atoms: C5*_18  and  O5*_19
REMARK                            x       y       z     vdW  Elec       q    Type
REMARK                         _______ _______ _______ _____ _____    ______ ____
ROOT
ATOM      1  C5M   T A   1       8.721  -0.842  26.874  0.00  0.00    +0.051 C 
ATOM      2  C5    T A   1       8.941  -1.129  25.425  0.00  0.00    +0.030 A 
ATOM      3  C4    T A   1       9.964  -0.330  24.715  0.00  0.00    +0.257 A 
ATOM      4  O4    T A   1      10.626   0.531  25.284  0.00  0.00    -0.267 OA
ATOM      5  N3    T A   1      10.134  -0.618  23.392  0.00  0.00    -0.275 N 
ATOM      6  H3    T A   1      10.835  -0.091  22.896  0.00  0.00    +0.173 HD
ATOM      7  C2    T A   1       9.488  -1.599  22.689  0.00  0.00    +0.331 A 
ATOM      8  O2    T A   1       9.787  -1.820  21.517  0.00  0.00    -0.246 OA
ATOM      9  N1    T A   1       8.513  -2.299  23.386  0.00  0.00    -0.274 N 
ATOM     10  C6    T A   1       8.273  -2.054  24.726  0.00  0.00    +0.101 A 
ENDROOT
BRANCH   9  11
ATOM     11  C1*   T A   1       7.782  -3.323  22.651  0.00  0.00    +0.226 C 
ATOM     12  O4*   T A   1       6.396  -2.968  22.504  0.00  0.00    -0.348 OA
ATOM     13  C4*   T A   1       5.646  -4.201  22.357  0.00  0.00    +0.175 C 
ATOM     14  C3*   T A   1       6.617  -5.356  22.635  0.00  0.00    +0.150 C 
ATOM     15  C2*   T A   1       7.776  -4.683  23.334  0.00  0.00    +0.088 C 
BRANCH  14  16
ATOM     16  O3*   T A   1       7.076  -5.900  21.394  0.00  0.00    -0.389 OA
ATOM     17  H3*   T A   1       6.293  -6.177  20.885  0.00  0.00    +0.210 HD
ENDBRANCH  14  16
BRANCH  13  18
ATOM     18  C5*   T A   1       4.472  -4.152  23.336  0.00  0.00    +0.190 C 
BRANCH  18  19
ATOM     19  O5*   T A   1       3.411  -5.004  22.909  0.00  0.00    -0.392 OA
ATOM     20  H5*   T A   1       3.406  -5.753  23.531  0.00  0.00    +0.210 HD
ENDBRANCH  18  19
ENDBRANCH  13  18
ENDBRANCH   9  11
TORSDOF 4
ENDMDL
MODEL 7
REMARK VINA RESULT:      -5.5      2.349      3.492
REMARK  Name = 
REMARK  5 active torsions:
REMARK  status: ('A' for Active; 'I' for Inactive)
REMARK    1  A    between atoms: C5M_1  and  C5_2
REMARK    2  A    between atoms: N1_4  and  C1*_10
REMARK    3  A    between atoms: C3*_13  and  O3*_20
REMARK    4  A    between atoms: C4*_15  and  C5*_18
REMARK    5  A    between atoms: C5*_18  and  O5*_19
REMARK                            x       y       z     vdW  Elec       q    Type
REMARK                         _______ _______ _______ _____ _____    ______ ____
ROOT
ATOM      1  C5M   T A   1       6.854  -4.455  21.929  0.00  0.00    +0.051 C 
ATOM      2  C5    T A   1       7.559  -3.509  22.844  0.00  0.00    +0.030 A 
ATOM      3  C4    T A   1       7.894  -3.991  24.203  0.00  0.00    +0.257 A 
ATOM      4  O4    T A   1       7.622  -5.127  24.575  0.00  0.00    -0.267 OA
ATOM      5  N3    T A   1       8.533  -3.096  25.012  0.00  0.00    -0.275 N 
ATOM      6  H3    T A   1       8.779  -3.412  25.937  0.00  0.00    +0.173 HD
ATOM      7  C2    T A   1       8.930  -1.833  24.667  0.00  0.00    +0.331 A 
ATOM      8  O2    T A   1       9.576  -1.149  25.458  0.00  0.00    -0.246 OA
ATOM      9  N1    T A   1       8.564  -1.412  23.395  0.00  0.00    -0.274 N 
ATOM     10  C6    T A   1       7.901  -2.256  22.523  0.00  0.00    +0.101 A 
ENDROOT
BRANCH   9  11
ATOM     11  C1*   T A   1       8.940  -0.057  23.015  0.00  0.00    +0.226 C 
ATOM     12  O4*   T A   1       7.981   0.903  23.494  0.00  0.00    -0.348 OA
ATOM     13  C4*   T A   1       8.043   2.054  22.615  0.00  0.00    +0.175 C 
ATOM     14  C3*   T A   1       8.942   1.672  21.432  0.00  0.00    +0.150 C 
ATOM     15  C2*   T A   1       9.006   0.163  21.510  0.00  0.00    +0.088 C 
BRANCH  14  16
ATOM     16  O3*   T A   1      10.253   2.203  21.641  0.00  0.00    -0.389 OA
ATOM     17  H3*   T A   1      10.688   1.658  22.321  0.00  0.00    +0.210 HD
ENDBRANCH  14  16
BRANCH  13  18
ATOM     18  C5*   T A   1       6.612   2.398  22.198  0.00  0.00    +0.190 C 
BRANCH  18  19
ATOM     19  O5*   T A   1       5.662   1.706  23.006  0.00  0.00    -0.392 OA
ATOM     20  H5*   T A   1       4.824   2.192  22.905  0.00  0.00    +0.210 HD
ENDBRANCH  18  19
ENDBRANCH  13  18
ENDBRANCH   9  11
TORSDOF 4
ENDMDL
MODEL 8
REMARK VINA RESULT:      -5.5      2.967      5.865
REMARK  Name = 
REMARK  5 active torsions:
REMARK  status: ('A' for Active; 'I' for Inactive)
REMARK    1  A    between atoms: C5M_1  and  C5_2
REMARK    2  A    between atoms: N1_4  and  C1*_10
REMARK    3  A    between atoms: C3*_13  and  O3*_20
REMARK    4  A    between atoms: C4*_15  and  C5*_18
REMARK    5  A    between atoms: C5*_18  and  O5*_19
REMARK                            x       y       z     vdW  Elec       q    Type
REMARK                         _______ _______ _______ _____ _____    ______ ____
ROOT
ATOM      1  C5M   T A   1       7.206   1.505  22.230  0.00  0.00    +0.051 C 
ATOM      2  C5    T A   1       8.033   0.297  22.524  0.00  0.00    +0.030 A 
ATOM      3  C4    T A   1       9.489   0.383  22.266  0.00  0.00    +0.257 A 
ATOM      4  O4    T A   1      10.014   1.406  21.840  0.00  0.00    -0.267 OA
ATOM      5  N3    T A   1      10.210  -0.742  22.543  0.00  0.00    -0.275 N 
ATOM      6  H3    T A   1      11.205  -0.697  22.385  0.00  0.00    +0.173 HD
ATOM      7  C2    T A   1       9.724  -1.905  23.077  0.00  0.00    +0.331 A 
ATOM      8  O2    T A   1      10.489  -2.823  23.362  0.00  0.00    -0.246 OA
ATOM      9  N1    T A   1       8.349  -1.951  23.269  0.00  0.00    -0.274 N 
ATOM     10  C6    T A   1       7.549  -0.856  22.998  0.00  0.00    +0.101 A 
ENDROOT
BRANCH   9  11
ATOM     11  C1*   T A   1       7.799  -3.192  23.799  0.00  0.00    +0.226 C 
ATOM     12  O4*   T A   1       7.873  -4.250  22.829  0.00  0.00    -0.348 OA
ATOM     13  C4*   T A   1       6.818  -5.197  23.137  0.00  0.00    +0.175 C 
ATOM     14  C3*   T A   1       5.945  -4.560  24.227  0.00  0.00    +0.150 C 
ATOM     15  C2*   T A   1       6.327  -3.098  24.177  0.00  0.00    +0.088 C 
BRANCH  14  16
ATOM     16  O3*   T A   1       6.313  -5.092  25.502  0.00  0.00    -0.389 OA
ATOM     17  H3*   T A   1       6.891  -5.861  25.346  0.00  0.00    +0.210 HD
ENDBRANCH  14  16
BRANCH  13  18
ATOM     18  C5*   T A   1       6.055  -5.481  21.843  0.00  0.00    +0.190 C 
BRANCH  18  19
ATOM     19  O5*   T A   1       4.730  -5.935  22.117  0.00  0.00    -0.392 OA
ATOM     20  H5*   T A   1       4.603  -5.821  23.076  0.00  0.00    +0.210 HD
ENDBRANCH  18  19
ENDBRANCH  13  18
ENDBRANCH   9  11
TORSDOF 4
ENDMDL
MODEL 9
REMARK VINA RESULT:      -5.5      3.352      6.346
REMARK  Name = 
REMARK  5 active torsions:
REMARK  status: ('A' for Active; 'I' for Inactive)
REMARK    1  A    between atoms: C5M_1  and  C5_2
REMARK    2  A    between atoms: N1_4  and  C1*_10
REMARK    3  A    between atoms: C3*_13  and  O3*_20
REMARK    4  A    between atoms: C4*_15  and  C5*_18
REMARK    5  A    between atoms: C5*_18  and  O5*_19
REMARK                            x       y       z     vdW  Elec       q    Type
REMARK                         _______ _______ _______ _____ _____    ______ ____
ROOT
ATOM      1  C5M   T A   1       5.171   2.690  23.181  0.00  0.00    +0.051 C 
ATOM      2  C5    T A   1       6.518   2.181  22.784  0.00  0.00    +0.030 A 
ATOM      3  C4    T A   1       7.446   3.133  22.133  0.00  0.00    +0.257 A 
ATOM      4  O4    T A   1       7.142   4.304  21.934  0.00  0.00    -0.267 OA
ATOM      5  N3    T A   1       8.665   2.630  21.781  0.00  0.00    -0.275 N 
ATOM      6  H3    T A   1       9.314   3.267  21.347  0.00  0.00    +0.173 HD
ATOM      7  C2    T A   1       9.115   1.359  22.017  0.00  0.00    +0.331 A 
ATOM      8  O2    T A   1      10.268   1.046  21.727  0.00  0.00    -0.246 OA
ATOM      9  N1    T A   1       8.198   0.492  22.598  0.00  0.00    -0.274 N 
ATOM     10  C6    T A   1       6.938   0.925  22.970  0.00  0.00    +0.101 A 
ENDROOT
BRANCH   9  11
ATOM     11  C1*   T A   1       8.638  -0.878  22.824  0.00  0.00    +0.226 C 
ATOM     12  O4*   T A   1       7.862  -1.808  22.049  0.00  0.00    -0.348 OA
ATOM     13  C4*   T A   1       7.895  -3.083  22.740  0.00  0.00    +0.175 C 
ATOM     14  C3*   T A   1       8.557  -2.841  24.103  0.00  0.00    +0.150 C 
ATOM     15  C2*   T A   1       8.488  -1.339  24.268  0.00  0.00    +0.088 C 
BRANCH  14  16
ATOM     16  O3*   T A   1       9.930  -3.238  24.041  0.00  0.00    -0.389 OA
ATOM     17  H3*   T A   1      10.324  -3.078  24.918  0.00  0.00    +0.210 HD
ENDBRANCH  14  16
BRANCH  13  18
ATOM     18  C5*   T A   1       6.456  -3.589  22.851  0.00  0.00    +0.190 C 
BRANCH  18  19
ATOM     19  O5*   T A   1       5.535  -2.637  22.323  0.00  0.00    -0.392 OA
ATOM     20  H5*   T A   1       4.660  -2.896  22.664  0.00  0.00    +0.210 HD
ENDBRANCH  18  19
ENDBRANCH  13  18
ENDBRANCH   9  11
TORSDOF 4
ENDMDL
