MODEL 1
REMARK VINA RESULT:      -5.9      0.000      0.000
REMARK  Name = 
REMARK  3 active torsions:
REMARK  status: ('A' for Active; 'I' for Inactive)
REMARK    1  A    between atoms: C_2  and  N_10
REMARK    2  A    between atoms: C_5  and  C_8
REMARK    3  A    between atoms: C_8  and  O_9
REMARK                            x       y       z     vdW  Elec       q    Type
REMARK                         _______ _______ _______ _____ _____    ______ ____
ROOT
ATOM      1  N   UNL     1       8.458  -1.525  22.763  0.00  0.00    -0.269 N 
ATOM      2  C   UNL     1       9.734  -1.141  22.329  0.00  0.00    +0.352 A 
ATOM      3  O   UNL     1      10.664  -1.946  22.337  0.00  0.00    -0.244 OA
ATOM      4  N   UNL     1       9.931   0.157  21.910  0.00  0.00    -0.175 NA
ATOM      5  C   UNL     1       8.954   1.013  21.969  0.00  0.00    +0.159 A 
ATOM      6  N   UNL     1       9.205   2.282  21.520  0.00  0.00    -0.341 N 
ATOM      7  H   UNL     1      10.189   2.507  21.424  0.00  0.00    +0.144 HD
ATOM      8  H   UNL     1       8.620   3.033  21.865  0.00  0.00    +0.144 HD
ATOM      9  C   UNL     1       7.622   0.655  22.507  0.00  0.00    +0.179 A 
ATOM     10  F   UNL     1       6.691   1.618  22.599  0.00  0.00    -0.200 F 
ATOM     11  C   UNL     1       7.434  -0.606  22.877  0.00  0.00    +0.135 A 
ENDROOT
BRANCH   1  16
ATOM     12  C   UNL     1       7.470  -2.996  24.497  0.00  0.00    +0.126 C 
ATOM     13  S   UNL     1       7.048  -4.745  24.580  0.00  0.00    -0.123 S 
ATOM     14  C   UNL     1       7.273  -4.950  22.786  0.00  0.00    +0.203 C 
ATOM     15  O   UNL     1       7.640  -3.687  22.210  0.00  0.00    -0.340 OA
ATOM     16  C   UNL     1       8.301  -2.903  23.216  0.00  0.00    +0.235 C 
BRANCH  14  17
ATOM     17  C   UNL     1       5.976  -5.452  22.133  0.00  0.00    +0.198 C 
BRANCH  17  18
ATOM     18  O   UNL     1       5.925  -5.146  20.734  0.00  0.00    -0.392 OA
ATOM     19  H   UNL     1       5.772  -5.991  20.275  0.00  0.00    +0.210 HD
ENDBRANCH  17  18
ENDBRANCH  14  17
ENDBRANCH   1  16
TORSDOF 3
ENDMDL
MODEL 2
REMARK VINA RESULT:      -5.8      4.038      5.738
REMARK  Name = 
REMARK  3 active torsions:
REMARK  status: ('A' for Active; 'I' for Inactive)
REMARK    1  A    between atoms: C_2  and  N_10
REMARK    2  A    between atoms: C_5  and  C_8
REMARK    3  A    between atoms: C_8  and  O_9
REMARK                            x       y       z     vdW  Elec       q    Type
REMARK                         _______ _______ _______ _____ _____    ______ ____
ROOT
ATOM      1  N   UNL     1       9.021  -1.944  25.061  0.00  0.00    -0.269 N 
ATOM      2  C   UNL     1       9.789  -2.668  24.138  0.00  0.00    +0.352 A 
ATOM      3  O   UNL     1      10.276  -2.109  23.157  0.00  0.00    -0.244 OA
ATOM      4  N   UNL     1       9.973  -4.018  24.342  0.00  0.00    -0.175 NA
ATOM      5  C   UNL     1       9.398  -4.607  25.348  0.00  0.00    +0.159 A 
ATOM      6  N   UNL     1       9.635  -5.946  25.511  0.00  0.00    -0.341 N 
ATOM      7  H   UNL     1      10.023  -6.406  24.694  0.00  0.00    +0.144 HD
ATOM      8  H   UNL     1       8.958  -6.489  26.033  0.00  0.00    +0.144 HD
ATOM      9  C   UNL     1       8.511  -3.881  26.285  0.00  0.00    +0.179 A 
ATOM     10  F   UNL     1       7.900  -4.580  27.256  0.00  0.00    -0.200 F 
ATOM     11  C   UNL     1       8.367  -2.575  26.100  0.00  0.00    +0.135 A 
ENDROOT
BRANCH   1  16
ATOM     12  C   UNL     1      10.130   0.273  24.987  0.00  0.00    +0.126 C 
ATOM     13  S   UNL     1       9.767   1.841  24.183  0.00  0.00    -0.123 S 
ATOM     14  C   UNL     1       8.481   1.083  23.142  0.00  0.00    +0.203 C 
ATOM     15  O   UNL     1       8.399  -0.319  23.441  0.00  0.00    -0.340 OA
ATOM     16  C   UNL     1       8.837  -0.522  24.795  0.00  0.00    +0.235 C 
BRANCH  14  17
ATOM     17  C   UNL     1       8.812   1.268  21.653  0.00  0.00    +0.198 C 
BRANCH  17  18
ATOM     18  O   UNL     1       9.932   2.138  21.455  0.00  0.00    -0.392 OA
ATOM     19  H   UNL     1      10.672   1.751  21.957  0.00  0.00    +0.210 HD
ENDBRANCH  17  18
ENDBRANCH  14  17
ENDBRANCH   1  16
TORSDOF 3
ENDMDL
MODEL 3
REMARK VINA RESULT:      -5.6      3.803      5.841
REMARK  Name = 
REMARK  3 active torsions:
REMARK  status: ('A' for Active; 'I' for Inactive)
REMARK    1  A    between atoms: C_2  and  N_10
REMARK    2  A    between atoms: C_5  and  C_8
REMARK    3  A    between atoms: C_8  and  O_9
REMARK                            x       y       z     vdW  Elec       q    Type
REMARK                         _______ _______ _______ _____ _____    ______ ____
ROOT
ATOM      1  N   UNL     1       8.457  -3.375  24.358  0.00  0.00    -0.269 N 
ATOM      2  C   UNL     1       9.089  -4.491  24.924  0.00  0.00    +0.352 A 
ATOM      3  O   UNL     1      10.284  -4.700  24.722  0.00  0.00    -0.244 OA
ATOM      4  N   UNL     1       8.343  -5.358  25.693  0.00  0.00    -0.175 NA
ATOM      5  C   UNL     1       7.066  -5.159  25.842  0.00  0.00    +0.159 A 
ATOM      6  N   UNL     1       6.382  -6.042  26.634  0.00  0.00    -0.341 N 
ATOM      7  H   UNL     1       6.876  -6.908  26.821  0.00  0.00    +0.144 HD
ATOM      8  H   UNL     1       5.384  -6.134  26.492  0.00  0.00    +0.144 HD
ATOM      9  C   UNL     1       6.360  -4.037  25.182  0.00  0.00    +0.179 A 
ATOM     10  F   UNL     1       5.028  -3.946  25.331  0.00  0.00    -0.200 F 
ATOM     11  C   UNL     1       7.094  -3.190  24.470  0.00  0.00    +0.135 A 
ENDROOT
BRANCH   1  16
ATOM     12  C   UNL     1       8.474  -1.828  22.421  0.00  0.00    +0.126 C 
ATOM     13  S   UNL     1       9.562  -0.503  21.871  0.00  0.00    -0.123 S 
ATOM     14  C   UNL     1      10.438  -0.475  23.466  0.00  0.00    +0.203 C 
ATOM     15  O   UNL     1       9.859  -1.455  24.340  0.00  0.00    -0.340 OA
ATOM     16  C   UNL     1       9.281  -2.496  23.535  0.00  0.00    +0.235 C 
BRANCH  14  17
ATOM     17  C   UNL     1      10.334   0.914  24.116  0.00  0.00    +0.198 C 
BRANCH  17  18
ATOM     18  O   UNL     1       9.660   0.867  25.379  0.00  0.00    -0.392 OA
ATOM     19  H   UNL     1       9.847  -0.012  25.756  0.00  0.00    +0.210 HD
ENDBRANCH  17  18
ENDBRANCH  14  17
ENDBRANCH   1  16
TORSDOF 3
ENDMDL
MODEL 4
REMARK VINA RESULT:      -5.6      3.501      5.738
REMARK  Name = 
REMARK  3 active torsions:
REMARK  status: ('A' for Active; 'I' for Inactive)
REMARK    1  A    between atoms: C_2  and  N_10
REMARK    2  A    between atoms: C_5  and  C_8
REMARK    3  A    between atoms: C_8  and  O_9
REMARK                            x       y       z     vdW  Elec       q    Type
REMARK                         _______ _______ _______ _____ _____    ______ ____
ROOT
ATOM      1  N   UNL     1       7.353  -3.160  23.391  0.00  0.00    -0.269 N 
ATOM      2  C   UNL     1       6.877  -3.856  24.512  0.00  0.00    +0.352 A 
ATOM      3  O   UNL     1       7.117  -3.448  25.647  0.00  0.00    -0.244 OA
ATOM      4  N   UNL     1       6.154  -5.013  24.318  0.00  0.00    -0.175 NA
ATOM      5  C   UNL     1       5.965  -5.466  23.114  0.00  0.00    +0.159 A 
ATOM      6  N   UNL     1       5.221  -6.608  22.983  0.00  0.00    -0.341 N 
ATOM      7  H   UNL     1       5.103  -7.134  23.843  0.00  0.00    +0.144 HD
ATOM      8  H   UNL     1       5.348  -7.166  22.148  0.00  0.00    +0.144 HD
ATOM      9  C   UNL     1       6.533  -4.798  21.921  0.00  0.00    +0.179 A 
ATOM     10  F   UNL     1       6.350  -5.372  20.721  0.00  0.00    -0.200 F 
ATOM     11  C   UNL     1       7.200  -3.667  22.116  0.00  0.00    +0.135 A 
ENDROOT
BRANCH   1  16
ATOM     12  C   UNL     1       9.636  -2.216  23.587  0.00  0.00    +0.126 C 
ATOM     13  S   UNL     1      10.333  -0.560  23.472  0.00  0.00    -0.123 S 
ATOM     14  C   UNL     1       8.787   0.112  22.787  0.00  0.00    +0.203 C 
ATOM     15  O   UNL     1       7.826  -0.947  22.665  0.00  0.00    -0.340 OA
ATOM     16  C   UNL     1       8.131  -1.953  23.645  0.00  0.00    +0.235 C 
BRANCH  14  17
ATOM     17  C   UNL     1       9.035   0.738  21.406  0.00  0.00    +0.198 C 
BRANCH  17  18
ATOM     18  O   UNL     1       9.767   1.967  21.496  0.00  0.00    -0.392 OA
ATOM     19  H   UNL     1       9.287   2.612  20.945  0.00  0.00    +0.210 HD
ENDBRANCH  17  18
ENDBRANCH  14  17
ENDBRANCH   1  16
TORSDOF 3
ENDMDL
MODEL 5
REMARK VINA RESULT:      -5.6      2.594      3.039
REMARK  Name = 
REMARK  3 active torsions:
REMARK  status: ('A' for Active; 'I' for Inactive)
REMARK    1  A    between atoms: C_2  and  N_10
REMARK    2  A    between atoms: C_5  and  C_8
REMARK    3  A    between atoms: C_8  and  O_9
REMARK                            x       y       z     vdW  Elec       q    Type
REMARK                         _______ _______ _______ _____ _____    ______ ____
ROOT
ATOM      1  N   UNL     1       8.532  -0.983  23.894  0.00  0.00    -0.269 N 
ATOM      2  C   UNL     1       8.823   0.252  24.492  0.00  0.00    +0.352 A 
ATOM      3  O   UNL     1       8.607   0.430  25.690  0.00  0.00    -0.244 OA
ATOM      4  N   UNL     1       9.336   1.264  23.711  0.00  0.00    -0.175 NA
ATOM      5  C   UNL     1       9.497   1.080  22.434  0.00  0.00    +0.159 A 
ATOM      6  N   UNL     1      10.031   2.116  21.714  0.00  0.00    -0.341 N 
ATOM      7  H   UNL     1      10.013   3.011  22.189  0.00  0.00    +0.144 HD
ATOM      8  H   UNL     1       9.846   2.148  20.719  0.00  0.00    +0.144 HD
ATOM      9  C   UNL     1       9.115  -0.183  21.764  0.00  0.00    +0.179 A 
ATOM     10  F   UNL     1       9.248  -0.264  20.430  0.00  0.00    -0.200 F 
ATOM     11  C   UNL     1       8.651  -1.163  22.531  0.00  0.00    +0.135 A 
ENDROOT
BRANCH   1  16
ATOM     12  C   UNL     1       7.081  -2.991  23.980  0.00  0.00    +0.126 C 
ATOM     13  S   UNL     1       6.901  -4.373  25.119  0.00  0.00    -0.123 S 
ATOM     14  C   UNL     1       8.440  -3.939  25.988  0.00  0.00    +0.203 C 
ATOM     15  O   UNL     1       9.022  -2.783  25.367  0.00  0.00    -0.340 OA
ATOM     16  C   UNL     1       7.971  -2.018  24.755  0.00  0.00    +0.235 C 
BRANCH  14  17
ATOM     17  C   UNL     1       9.439  -5.105  25.932  0.00  0.00    +0.198 C 
BRANCH  17  18
ATOM     18  O   UNL     1      10.281  -5.037  24.775  0.00  0.00    -0.392 OA
ATOM     19  H   UNL     1      10.029  -5.790  24.210  0.00  0.00    +0.210 HD
ENDBRANCH  17  18
ENDBRANCH  14  17
ENDBRANCH   1  16
TORSDOF 3
ENDMDL
MODEL 6
REMARK VINA RESULT:      -5.6      1.693      2.224
REMARK  Name = 
REMARK  3 active torsions:
REMARK  status: ('A' for Active; 'I' for Inactive)
REMARK    1  A    between atoms: C_2  and  N_10
REMARK    2  A    between atoms: C_5  and  C_8
REMARK    3  A    between atoms: C_8  and  O_9
REMARK                            x       y       z     vdW  Elec       q    Type
REMARK                         _______ _______ _______ _____ _____    ______ ____
ROOT
ATOM      1  N   UNL     1       8.191  -1.402  22.987  0.00  0.00    -0.269 N 
ATOM      2  C   UNL     1       9.564  -1.421  22.703  0.00  0.00    +0.352 A 
ATOM      3  O   UNL     1      10.225  -2.442  22.886  0.00  0.00    -0.244 OA
ATOM      4  N   UNL     1      10.162  -0.271  22.234  0.00  0.00    -0.175 NA
ATOM      5  C   UNL     1       9.463   0.818  22.108  0.00  0.00    +0.159 A 
ATOM      6  N   UNL     1      10.107   1.923  21.617  0.00  0.00    -0.341 N 
ATOM      7  H   UNL     1      11.120   1.863  21.640  0.00  0.00    +0.144 HD
ATOM      8  H   UNL     1       9.721   2.834  21.833  0.00  0.00    +0.144 HD
ATOM      9  C   UNL     1       8.033   0.887  22.485  0.00  0.00    +0.179 A 
ATOM     10  F   UNL     1       7.405   2.070  22.391  0.00  0.00    -0.200 F 
ATOM     11  C   UNL     1       7.459  -0.234  22.905  0.00  0.00    +0.135 A 
ENDROOT
BRANCH   1  16
ATOM     12  C   UNL     1       7.521  -3.722  22.427  0.00  0.00    +0.126 C 
ATOM     13  S   UNL     1       7.215  -5.215  23.386  0.00  0.00    -0.123 S 
ATOM     14  C   UNL     1       7.944  -4.480  24.882  0.00  0.00    +0.203 C 
ATOM     15  O   UNL     1       8.397  -3.151  24.582  0.00  0.00    -0.340 OA
ATOM     16  C   UNL     1       7.606  -2.635  23.500  0.00  0.00    +0.235 C 
BRANCH  14  17
ATOM     17  C   UNL     1       9.130  -5.324  25.375  0.00  0.00    +0.198 C 
BRANCH  17  18
ATOM     18  O   UNL     1      10.366  -4.917  24.776  0.00  0.00    -0.392 OA
ATOM     19  H   UNL     1      10.161  -4.695  23.850  0.00  0.00    +0.210 HD
ENDBRANCH  17  18
ENDBRANCH  14  17
ENDBRANCH   1  16
TORSDOF 3
ENDMDL
MODEL 7
REMARK VINA RESULT:      -5.5      1.842      1.981
REMARK  Name = 
REMARK  3 active torsions:
REMARK  status: ('A' for Active; 'I' for Inactive)
REMARK    1  A    between atoms: C_2  and  N_10
REMARK    2  A    between atoms: C_5  and  C_8
REMARK    3  A    between atoms: C_8  and  O_9
REMARK                            x       y       z     vdW  Elec       q    Type
REMARK                         _______ _______ _______ _____ _____    ______ ____
ROOT
ATOM      1  N   UNL     1       8.658  -1.854  23.416  0.00  0.00    -0.269 N 
ATOM      2  C   UNL     1       9.796  -1.545  22.657  0.00  0.00    +0.352 A 
ATOM      3  O   UNL     1      10.791  -2.267  22.703  0.00  0.00    -0.244 OA
ATOM      4  N   UNL     1       9.786  -0.410  21.876  0.00  0.00    -0.175 NA
ATOM      5  C   UNL     1       8.751   0.377  21.889  0.00  0.00    +0.159 A 
ATOM      6  N   UNL     1       8.791   1.479  21.076  0.00  0.00    -0.341 N 
ATOM      7  H   UNL     1       9.717   1.717  20.736  0.00  0.00    +0.144 HD
ATOM      8  H   UNL     1       8.201   2.267  21.312  0.00  0.00    +0.144 HD
ATOM      9  C   UNL     1       7.574   0.120  22.749  0.00  0.00    +0.179 A 
ATOM     10  F   UNL     1       6.579   1.022  22.755  0.00  0.00    -0.200 F 
ATOM     11  C   UNL     1       7.581  -0.993  23.473  0.00  0.00    +0.135 A 
ENDROOT
BRANCH   1  16
ATOM     12  C   UNL     1       8.674  -2.725  25.736  0.00  0.00    +0.126 C 
ATOM     13  S   UNL     1       8.310  -4.319  26.491  0.00  0.00    -0.123 S 
ATOM     14  C   UNL     1       7.565  -4.947  24.954  0.00  0.00    +0.203 C 
ATOM     15  O   UNL     1       7.613  -3.920  23.952  0.00  0.00    -0.340 OA
ATOM     16  C   UNL     1       8.722  -3.053  24.243  0.00  0.00    +0.235 C 
BRANCH  14  17
ATOM     17  C   UNL     1       6.104  -5.360  25.192  0.00  0.00    +0.198 C 
BRANCH  17  18
ATOM     18  O   UNL     1       5.984  -6.341  26.229  0.00  0.00    -0.392 OA
ATOM     19  H   UNL     1       6.539  -7.095  25.958  0.00  0.00    +0.210 HD
ENDBRANCH  17  18
ENDBRANCH  14  17
ENDBRANCH   1  16
TORSDOF 3
ENDMDL
MODEL 8
REMARK VINA RESULT:      -5.4      2.186      2.496
REMARK  Name = 
REMARK  3 active torsions:
REMARK  status: ('A' for Active; 'I' for Inactive)
REMARK    1  A    between atoms: C_2  and  N_10
REMARK    2  A    between atoms: C_5  and  C_8
REMARK    3  A    between atoms: C_8  and  O_9
REMARK                            x       y       z     vdW  Elec       q    Type
REMARK                         _______ _______ _______ _____ _____    ______ ____
ROOT
ATOM      1  N   UNL     1       8.329  -1.958  23.886  0.00  0.00    -0.269 N 
ATOM      2  C   UNL     1       8.710  -1.476  25.146  0.00  0.00    +0.352 A 
ATOM      3  O   UNL     1       8.204  -1.936  26.169  0.00  0.00    -0.244 OA
ATOM      4  N   UNL     1       9.645  -0.467  25.217  0.00  0.00    -0.175 NA
ATOM      5  C   UNL     1      10.122   0.054  24.125  0.00  0.00    +0.159 A 
ATOM      6  N   UNL     1      11.064   1.039  24.259  0.00  0.00    -0.341 N 
ATOM      7  H   UNL     1      11.115   1.448  25.186  0.00  0.00    +0.144 HD
ATOM      8  H   UNL     1      11.187   1.687  23.491  0.00  0.00    +0.144 HD
ATOM      9  C   UNL     1       9.669  -0.377  22.783  0.00  0.00    +0.179 A 
ATOM     10  F   UNL     1      10.160   0.263  21.708  0.00  0.00    -0.200 F 
ATOM     11  C   UNL     1       8.792  -1.372  22.725  0.00  0.00    +0.135 A 
ENDROOT
BRANCH   1  16
ATOM     12  C   UNL     1       6.026  -2.553  23.187  0.00  0.00    +0.126 C 
ATOM     13  S   UNL     1       5.160  -4.100  22.876  0.00  0.00    -0.123 S 
ATOM     14  C   UNL     1       6.712  -5.049  22.905  0.00  0.00    +0.203 C 
ATOM     15  O   UNL     1       7.809  -4.152  23.132  0.00  0.00    -0.340 OA
ATOM     16  C   UNL     1       7.321  -3.012  23.859  0.00  0.00    +0.235 C 
BRANCH  14  17
ATOM     17  C   UNL     1       6.921  -5.783  21.572  0.00  0.00    +0.198 C 
BRANCH  17  18
ATOM     18  O   UNL     1       5.999  -5.346  20.566  0.00  0.00    -0.392 OA
ATOM     19  H   UNL     1       5.245  -5.963  20.600  0.00  0.00    +0.210 HD
ENDBRANCH  17  18
ENDBRANCH  14  17
ENDBRANCH   1  16
TORSDOF 3
ENDMDL
MODEL 9
REMARK VINA RESULT:      -5.4      3.887      5.894
REMARK  Name = 
REMARK  3 active torsions:
REMARK  status: ('A' for Active; 'I' for Inactive)
REMARK    1  A    between atoms: C_2  and  N_10
REMARK    2  A    between atoms: C_5  and  C_8
REMARK    3  A    between atoms: C_8  and  O_9
REMARK                            x       y       z     vdW  Elec       q    Type
REMARK                         _______ _______ _______ _____ _____    ______ ____
ROOT
ATOM      1  N   UNL     1       9.062  -1.869  24.630  0.00  0.00    -0.269 N 
ATOM      2  C   UNL     1       9.889  -2.726  23.890  0.00  0.00    +0.352 A 
ATOM      3  O   UNL     1      10.443  -2.327  22.867  0.00  0.00    -0.244 OA
ATOM      4  N   UNL     1      10.055  -4.024  24.320  0.00  0.00    -0.175 NA
ATOM      5  C   UNL     1       9.411  -4.449  25.367  0.00  0.00    +0.159 A 
ATOM      6  N   UNL     1       9.632  -5.743  25.757  0.00  0.00    -0.341 N 
ATOM      7  H   UNL     1      10.075  -6.324  25.054  0.00  0.00    +0.144 HD
ATOM      8  H   UNL     1       8.920  -6.201  26.313  0.00  0.00    +0.144 HD
ATOM      9  C   UNL     1       8.463  -3.590  26.112  0.00  0.00    +0.179 A 
ATOM     10  F   UNL     1       7.786  -4.129  27.139  0.00  0.00    -0.200 F 
ATOM     11  C   UNL     1       8.336  -2.331  25.710  0.00  0.00    +0.135 A 
ENDROOT
BRANCH   1  16
ATOM     12  C   UNL     1       7.601  -0.340  23.337  0.00  0.00    +0.126 C 
ATOM     13  S   UNL     1       7.420   1.448  23.233  0.00  0.00    -0.123 S 
ATOM     14  C   UNL     1       8.455   1.702  24.708  0.00  0.00    +0.203 C 
ATOM     15  O   UNL     1       8.873   0.427  25.216  0.00  0.00    -0.340 OA
ATOM     16  C   UNL     1       8.900  -0.510  24.127  0.00  0.00    +0.235 C 
BRANCH  14  17
ATOM     17  C   UNL     1       7.670   2.452  25.796  0.00  0.00    +0.198 C 
BRANCH  17  18
ATOM     18  O   UNL     1       7.614   1.716  27.023  0.00  0.00    -0.392 OA
ATOM     19  H   UNL     1       7.337   2.349  27.710  0.00  0.00    +0.210 HD
ENDBRANCH  17  18
ENDBRANCH  14  17
ENDBRANCH   1  16
TORSDOF 3
ENDMDL
