MODEL 1
REMARK VINA RESULT:      -6.3      0.000      0.000
REMARK  Name = 
REMARK  5 active torsions:
REMARK  status: ('A' for Active; 'I' for Inactive)
REMARK    1  A    between atoms: C_1  and  C_2
REMARK    2  A    between atoms: N_4  and  C_10
REMARK    3  A    between atoms: C_13  and  N_20
REMARK    4  A    between atoms: C_15  and  C_18
REMARK    5  A    between atoms: C_18  and  O_19
REMARK                            x       y       z     vdW  Elec       q    Type
REMARK                         _______ _______ _______ _____ _____    ______ ____
ROOT
ATOM      1  C   UNL     1       7.514  -3.981  22.612  0.00  0.00    +0.226 C 
ATOM      2  O   UNL     1       8.643  -3.811  23.483  0.00  0.00    -0.349 OA
ATOM      3  C   UNL     1       9.169  -2.480  23.280  0.00  0.00    +0.177 C 
ATOM      4  C   UNL     1       8.232  -1.774  22.283  0.00  0.00    +0.226 C 
ATOM      5  C   UNL     1       6.957  -2.585  22.392  0.00  0.00    +0.091 C 
ENDROOT
BRANCH   1  14
ATOM      6  C   UNL     1       5.298  -6.126  26.529  0.00  0.00    +0.051 C 
ATOM      7  C   UNL     1       5.519  -5.934  25.065  0.00  0.00    +0.030 A 
ATOM      8  C   UNL     1       4.716  -6.769  24.141  0.00  0.00    +0.257 A 
ATOM      9  O   UNL     1       3.893  -7.583  24.547  0.00  0.00    -0.267 OA
ATOM     10  N   UNL     1       4.940  -6.569  22.810  0.00  0.00    -0.275 N 
ATOM     11  H   UNL     1       4.390  -7.117  22.167  0.00  0.00    +0.173 HD
ATOM     12  C   UNL     1       5.791  -5.646  22.264  0.00  0.00    +0.331 A 
ATOM     13  O   UNL     1       5.842  -5.490  21.045  0.00  0.00    -0.246 OA
ATOM     14  N   UNL     1       6.557  -4.924  23.168  0.00  0.00    -0.274 N 
ATOM     15  C   UNL     1       6.391  -5.068  24.533  0.00  0.00    +0.101 A 
ENDBRANCH   1  14
BRANCH   4  16
ATOM     16  N   UNL     1       7.992  -0.359  22.594  0.00  0.00    +0.082 NA
ATOM     17  N   UNL     1       8.866   0.440  22.198  0.00  0.00    -0.014 NA
ATOM     18  N   UNL     1       9.665   1.166  21.840  0.00  0.00    -0.328 NA
ENDBRANCH   4  16
BRANCH   3  19
ATOM     19  C   UNL     1       9.328  -1.817  24.652  0.00  0.00    +0.189 C 
BRANCH  19  20
ATOM     20  O   UNL     1      10.125  -0.641  24.585  0.00  0.00    -0.392 OA
ATOM     21  H   UNL     1       9.950  -0.243  23.710  0.00  0.00    +0.210 HD
ENDBRANCH  19  20
ENDBRANCH   3  19
TORSDOF 4
ENDMDL
MODEL 2
REMARK VINA RESULT:      -6.2      2.299      6.673
REMARK  Name = 
REMARK  5 active torsions:
REMARK  status: ('A' for Active; 'I' for Inactive)
REMARK    1  A    between atoms: C_1  and  C_2
REMARK    2  A    between atoms: N_4  and  C_10
REMARK    3  A    between atoms: C_13  and  N_20
REMARK    4  A    between atoms: C_15  and  C_18
REMARK    5  A    between atoms: C_18  and  O_19
REMARK                            x       y       z     vdW  Elec       q    Type
REMARK                         _______ _______ _______ _____ _____    ______ ____
ROOT
ATOM      1  C   UNL     1       7.314  -2.754  24.617  0.00  0.00    +0.226 C 
ATOM      2  O   UNL     1       7.892  -3.989  24.167  0.00  0.00    -0.349 OA
ATOM      3  C   UNL     1       6.824  -4.830  23.678  0.00  0.00    +0.177 C 
ATOM      4  C   UNL     1       5.527  -4.004  23.758  0.00  0.00    +0.226 C 
ATOM      5  C   UNL     1       6.042  -2.580  23.805  0.00  0.00    +0.091 C 
ENDROOT
BRANCH   1  14
ATOM      6  C   UNL     1       9.828   0.517  21.818  0.00  0.00    +0.051 C 
ATOM      7  C   UNL     1       9.448  -0.104  23.121  0.00  0.00    +0.030 A 
ATOM      8  C   UNL     1      10.086   0.437  24.345  0.00  0.00    +0.257 A 
ATOM      9  O   UNL     1      10.889   1.363  24.305  0.00  0.00    -0.267 OA
ATOM     10  N   UNL     1       9.716  -0.150  25.519  0.00  0.00    -0.275 N 
ATOM     11  H   UNL     1      10.128   0.217  26.363  0.00  0.00    +0.173 HD
ATOM     12  C   UNL     1       8.788  -1.145  25.668  0.00  0.00    +0.331 A 
ATOM     13  O   UNL     1       8.466  -1.534  26.789  0.00  0.00    -0.246 OA
ATOM     14  N   UNL     1       8.256  -1.653  24.491  0.00  0.00    -0.274 N 
ATOM     15  C   UNL     1       8.578  -1.113  23.260  0.00  0.00    +0.101 A 
ENDBRANCH   1  14
BRANCH   4  16
ATOM     16  N   UNL     1       4.623  -4.208  22.619  0.00  0.00    +0.082 NA
ATOM     17  N   UNL     1       3.695  -5.022  22.801  0.00  0.00    -0.014 NA
ATOM     18  N   UNL     1       2.851  -5.768  22.967  0.00  0.00    -0.328 NA
ENDBRANCH   4  16
BRANCH   3  19
ATOM     19  C   UNL     1       7.221  -5.343  22.290  0.00  0.00    +0.189 C 
BRANCH  19  20
ATOM     20  O   UNL     1       6.388  -6.413  21.860  0.00  0.00    -0.392 OA
ATOM     21  H   UNL     1       5.997  -6.128  21.010  0.00  0.00    +0.210 HD
ENDBRANCH  19  20
ENDBRANCH   3  19
TORSDOF 4
ENDMDL
MODEL 3
REMARK VINA RESULT:      -6.0      2.981      3.124
REMARK  Name = 
REMARK  5 active torsions:
REMARK  status: ('A' for Active; 'I' for Inactive)
REMARK    1  A    between atoms: C_1  and  C_2
REMARK    2  A    between atoms: N_4  and  C_10
REMARK    3  A    between atoms: C_13  and  N_20
REMARK    4  A    between atoms: C_15  and  C_18
REMARK    5  A    between atoms: C_18  and  O_19
REMARK                            x       y       z     vdW  Elec       q    Type
REMARK                         _______ _______ _______ _____ _____    ______ ____
ROOT
ATOM      1  C   UNL     1       8.496  -2.836  24.304  0.00  0.00    +0.226 C 
ATOM      2  O   UNL     1       9.534  -1.951  24.752  0.00  0.00    -0.349 OA
ATOM      3  C   UNL     1       9.436  -0.726  23.992  0.00  0.00    +0.177 C 
ATOM      4  C   UNL     1       8.194  -0.854  23.091  0.00  0.00    +0.226 C 
ATOM      5  C   UNL     1       7.390  -1.934  23.784  0.00  0.00    +0.091 C 
ENDROOT
BRANCH   1  14
ATOM      6  C   UNL     1       5.357  -4.073  27.975  0.00  0.00    +0.051 C 
ATOM      7  C   UNL     1       6.560  -4.299  27.119  0.00  0.00    +0.030 A 
ATOM      8  C   UNL     1       7.369  -5.511  27.389  0.00  0.00    +0.257 A 
ATOM      9  O   UNL     1       7.070  -6.310  28.270  0.00  0.00    -0.267 OA
ATOM     10  N   UNL     1       8.459  -5.690  26.589  0.00  0.00    -0.275 N 
ATOM     11  H   UNL     1       9.012  -6.518  26.748  0.00  0.00    +0.173 HD
ATOM     12  C   UNL     1       8.837  -4.887  25.547  0.00  0.00    +0.331 A 
ATOM     13  O   UNL     1       9.788  -5.198  24.834  0.00  0.00    -0.246 OA
ATOM     14  N   UNL     1       8.078  -3.739  25.366  0.00  0.00    -0.274 N 
ATOM     15  C   UNL     1       6.957  -3.484  26.134  0.00  0.00    +0.101 A 
ENDBRANCH   1  14
BRANCH   4  16
ATOM     16  N   UNL     1       7.422   0.390  22.965  0.00  0.00    +0.082 NA
ATOM     17  N   UNL     1       7.942   1.284  22.268  0.00  0.00    -0.014 NA
ATOM     18  N   UNL     1       8.420   2.100  21.634  0.00  0.00    -0.328 NA
ENDBRANCH   4  16
BRANCH   3  19
ATOM     19  C   UNL     1       9.445   0.447  24.978  0.00  0.00    +0.189 C 
BRANCH  19  20
ATOM     20  O   UNL     1       9.901   1.649  24.371  0.00  0.00    -0.392 OA
ATOM     21  H   UNL     1       9.472   1.690  23.494  0.00  0.00    +0.210 HD
ENDBRANCH  19  20
ENDBRANCH   3  19
TORSDOF 4
ENDMDL
MODEL 4
REMARK VINA RESULT:      -6.0      2.513      6.511
REMARK  Name = 
REMARK  5 active torsions:
REMARK  status: ('A' for Active; 'I' for Inactive)
REMARK    1  A    between atoms: C_1  and  C_2
REMARK    2  A    between atoms: N_4  and  C_10
REMARK    3  A    between atoms: C_13  and  N_20
REMARK    4  A    between atoms: C_15  and  C_18
REMARK    5  A    between atoms: C_18  and  O_19
REMARK                            x       y       z     vdW  Elec       q    Type
REMARK                         _______ _______ _______ _____ _____    ______ ____
ROOT
ATOM      1  C   UNL     1       8.575  -3.079  23.504  0.00  0.00    +0.226 C 
ATOM      2  O   UNL     1       7.879  -3.896  22.550  0.00  0.00    -0.349 OA
ATOM      3  C   UNL     1       7.346  -5.043  23.247  0.00  0.00    +0.177 C 
ATOM      4  C   UNL     1       7.670  -4.853  24.740  0.00  0.00    +0.226 C 
ATOM      5  C   UNL     1       7.911  -3.360  24.840  0.00  0.00    +0.091 C 
ENDROOT
BRANCH   1  14
ATOM      6  C   UNL     1       6.331   1.372  23.380  0.00  0.00    +0.051 C 
ATOM      7  C   UNL     1       7.453   0.437  23.068  0.00  0.00    +0.030 A 
ATOM      8  C   UNL     1       8.600   0.983  22.304  0.00  0.00    +0.257 A 
ATOM      9  O   UNL     1       8.644   2.155  21.944  0.00  0.00    -0.267 OA
ATOM     10  N   UNL     1       9.609   0.105  22.035  0.00  0.00    -0.275 N 
ATOM     11  H   UNL     1      10.405   0.464  21.531  0.00  0.00    +0.173 HD
ATOM     12  C   UNL     1       9.675  -1.199  22.445  0.00  0.00    +0.331 A 
ATOM     13  O   UNL     1      10.680  -1.871  22.223  0.00  0.00    -0.246 OA
ATOM     14  N   UNL     1       8.557  -1.678  23.112  0.00  0.00    -0.274 N 
ATOM     15  C   UNL     1       7.492  -0.853  23.424  0.00  0.00    +0.101 A 
ENDBRANCH   1  14
BRANCH   4  16
ATOM     16  N   UNL     1       6.591  -5.281  25.641  0.00  0.00    +0.082 NA
ATOM     17  N   UNL     1       6.947  -5.641  26.781  0.00  0.00    -0.014 NA
ATOM     18  N   UNL     1       7.273  -5.973  27.820  0.00  0.00    -0.328 NA
ENDBRANCH   4  16
BRANCH   3  19
ATOM     19  C   UNL     1       5.864  -5.176  22.883  0.00  0.00    +0.189 C 
BRANCH  19  20
ATOM     20  O   UNL     1       5.401  -6.514  23.014  0.00  0.00    -0.392 OA
ATOM     21  H   UNL     1       5.626  -6.963  22.175  0.00  0.00    +0.210 HD
ENDBRANCH  19  20
ENDBRANCH   3  19
TORSDOF 4
ENDMDL
MODEL 5
REMARK VINA RESULT:      -6.0      3.040      6.504
REMARK  Name = 
REMARK  5 active torsions:
REMARK  status: ('A' for Active; 'I' for Inactive)
REMARK    1  A    between atoms: C_1  and  C_2
REMARK    2  A    between atoms: N_4  and  C_10
REMARK    3  A    between atoms: C_13  and  N_20
REMARK    4  A    between atoms: C_15  and  C_18
REMARK    5  A    between atoms: C_18  and  O_19
REMARK                            x       y       z     vdW  Elec       q    Type
REMARK                         _______ _______ _______ _____ _____    ______ ____
ROOT
ATOM      1  C   UNL     1       7.658  -4.059  24.588  0.00  0.00    +0.226 C 
ATOM      2  O   UNL     1       6.248  -3.856  24.766  0.00  0.00    -0.349 OA
ATOM      3  C   UNL     1       5.829  -4.617  25.921  0.00  0.00    +0.177 C 
ATOM      4  C   UNL     1       7.096  -5.246  26.528  0.00  0.00    +0.226 C 
ATOM      5  C   UNL     1       8.201  -4.373  25.971  0.00  0.00    +0.091 C 
ENDROOT
BRANCH   1  14
ATOM      6  C   UNL     1      10.449   0.066  24.834  0.00  0.00    +0.051 C 
ATOM      7  C   UNL     1       9.616  -0.937  24.105  0.00  0.00    +0.030 A 
ATOM      8  C   UNL     1       9.414  -0.725  22.652  0.00  0.00    +0.257 A 
ATOM      9  O   UNL     1       9.910   0.226  22.057  0.00  0.00    -0.267 OA
ATOM     10  N   UNL     1       8.650  -1.658  22.014  0.00  0.00    -0.275 N 
ATOM     11  H   UNL     1       8.515  -1.539  21.023  0.00  0.00    +0.173 HD
ATOM     12  C   UNL     1       8.106  -2.780  22.580  0.00  0.00    +0.331 A 
ATOM     13  O   UNL     1       7.512  -3.602  21.886  0.00  0.00    -0.246 OA
ATOM     14  N   UNL     1       8.280  -2.908  23.951  0.00  0.00    -0.274 N 
ATOM     15  C   UNL     1       9.041  -2.005  24.671  0.00  0.00    +0.101 A 
ENDBRANCH   1  14
BRANCH   4  16
ATOM     16  N   UNL     1       7.109  -5.252  27.997  0.00  0.00    +0.082 NA
ATOM     17  N   UNL     1       6.796  -6.331  28.539  0.00  0.00    -0.014 NA
ATOM     18  N   UNL     1       6.506  -7.315  29.032  0.00  0.00    -0.328 NA
ENDBRANCH   4  16
BRANCH   3  19
ATOM     19  C   UNL     1       5.023  -3.689  26.835  0.00  0.00    +0.189 C 
BRANCH  19  20
ATOM     20  O   UNL     1       4.372  -4.403  27.878  0.00  0.00    -0.392 OA
ATOM     21  H   UNL     1       5.075  -4.687  28.494  0.00  0.00    +0.210 HD
ENDBRANCH  19  20
ENDBRANCH   3  19
TORSDOF 4
ENDMDL
MODEL 6
REMARK VINA RESULT:      -6.0      5.042      8.778
REMARK  Name = 
REMARK  5 active torsions:
REMARK  status: ('A' for Active; 'I' for Inactive)
REMARK    1  A    between atoms: C_1  and  C_2
REMARK    2  A    between atoms: N_4  and  C_10
REMARK    3  A    between atoms: C_13  and  N_20
REMARK    4  A    between atoms: C_15  and  C_18
REMARK    5  A    between atoms: C_18  and  O_19
REMARK                            x       y       z     vdW  Elec       q    Type
REMARK                         _______ _______ _______ _____ _____    ______ ____
ROOT
ATOM      1  C   UNL     1      10.381   1.990  23.973  0.00  0.00    +0.226 C 
ATOM      2  O   UNL     1      10.530   1.382  22.681  0.00  0.00    -0.349 OA
ATOM      3  C   UNL     1      10.388  -0.047  22.840  0.00  0.00    +0.177 C 
ATOM      4  C   UNL     1      10.040  -0.303  24.318  0.00  0.00    +0.226 C 
ATOM      5  C   UNL     1       9.505   1.040  24.771  0.00  0.00    +0.091 C 
ENDROOT
BRANCH   1  14
ATOM      6  C   UNL     1       6.580   5.204  24.261  0.00  0.00    +0.051 C 
ATOM      7  C   UNL     1       8.009   4.850  24.006  0.00  0.00    +0.030 A 
ATOM      8  C   UNL     1       8.920   5.949  23.607  0.00  0.00    +0.257 A 
ATOM      9  O   UNL     1       8.533   7.108  23.496  0.00  0.00    -0.267 OA
ATOM     10  N   UNL     1      10.218   5.595  23.383  0.00  0.00    -0.275 N 
ATOM     11  H   UNL     1      10.856   6.333  23.127  0.00  0.00    +0.173 HD
ATOM     12  C   UNL     1      10.752   4.344  23.538  0.00  0.00    +0.331 A 
ATOM     13  O   UNL     1      11.960   4.160  23.398  0.00  0.00    -0.246 OA
ATOM     14  N   UNL     1       9.850   3.340  23.863  0.00  0.00    -0.274 N 
ATOM     15  C   UNL     1       8.518   3.616  24.108  0.00  0.00    +0.101 A 
ENDBRANCH   1  14
BRANCH   4  16
ATOM     16  N   UNL     1       9.048  -1.368  24.518  0.00  0.00    +0.082 NA
ATOM     17  N   UNL     1       9.469  -2.534  24.377  0.00  0.00    -0.014 NA
ATOM     18  N   UNL     1       9.852  -3.597  24.244  0.00  0.00    -0.328 NA
ENDBRANCH   4  16
BRANCH   3  19
ATOM     19  C   UNL     1       9.372  -0.542  21.805  0.00  0.00    +0.189 C 
BRANCH  19  20
ATOM     20  O   UNL     1       9.582  -1.907  21.465  0.00  0.00    -0.392 OA
ATOM     21  H   UNL     1       9.302  -2.000  20.533  0.00  0.00    +0.210 HD
ENDBRANCH  19  20
ENDBRANCH   3  19
TORSDOF 4
ENDMDL
MODEL 7
REMARK VINA RESULT:      -5.8      3.094      6.685
REMARK  Name = 
REMARK  5 active torsions:
REMARK  status: ('A' for Active; 'I' for Inactive)
REMARK    1  A    between atoms: C_1  and  C_2
REMARK    2  A    between atoms: N_4  and  C_10
REMARK    3  A    between atoms: C_13  and  N_20
REMARK    4  A    between atoms: C_15  and  C_18
REMARK    5  A    between atoms: C_18  and  O_19
REMARK                            x       y       z     vdW  Elec       q    Type
REMARK                         _______ _______ _______ _____ _____    ______ ____
ROOT
ATOM      1  C   UNL     1       7.709  -2.096  24.844  0.00  0.00    +0.226 C 
ATOM      2  O   UNL     1       8.506  -2.832  25.785  0.00  0.00    -0.349 OA
ATOM      3  C   UNL     1       8.403  -4.235  25.458  0.00  0.00    +0.177 C 
ATOM      4  C   UNL     1       7.557  -4.337  24.176  0.00  0.00    +0.226 C 
ATOM      5  C   UNL     1       7.676  -2.947  23.587  0.00  0.00    +0.091 C 
ENDROOT
BRANCH   1  14
ATOM      6  C   UNL     1       9.961   1.306  21.980  0.00  0.00    +0.051 C 
ATOM      7  C   UNL     1       9.318   0.848  23.247  0.00  0.00    +0.030 A 
ATOM      8  C   UNL     1       9.229   1.827  24.356  0.00  0.00    +0.257 A 
ATOM      9  O   UNL     1       9.654   2.973  24.250  0.00  0.00    -0.267 OA
ATOM     10  N   UNL     1       8.635   1.379  25.500  0.00  0.00    -0.275 N 
ATOM     11  H   UNL     1       8.551   2.037  26.259  0.00  0.00    +0.173 HD
ATOM     12  C   UNL     1       8.081   0.142  25.691  0.00  0.00    +0.331 A 
ATOM     13  O   UNL     1       7.487  -0.120  26.735  0.00  0.00    -0.246 OA
ATOM     14  N   UNL     1       8.234  -0.754  24.643  0.00  0.00    -0.274 N 
ATOM     15  C   UNL     1       8.823  -0.379  23.450  0.00  0.00    +0.101 A 
ENDBRANCH   1  14
BRANCH   4  16
ATOM     16  N   UNL     1       8.030  -5.360  23.232  0.00  0.00    +0.082 NA
ATOM     17  N   UNL     1       7.307  -5.553  22.234  0.00  0.00    -0.014 NA
ATOM     18  N   UNL     1       6.644  -5.731  21.326  0.00  0.00    -0.328 NA
ENDBRANCH   4  16
BRANCH   3  19
ATOM     19  C   UNL     1       9.821  -4.812  25.386  0.00  0.00    +0.189 C 
BRANCH  19  20
ATOM     20  O   UNL     1       9.830  -6.224  25.555  0.00  0.00    -0.392 OA
ATOM     21  H   UNL     1       9.017  -6.444  26.052  0.00  0.00    +0.210 HD
ENDBRANCH  19  20
ENDBRANCH   3  19
TORSDOF 4
ENDMDL
MODEL 8
REMARK VINA RESULT:      -5.8      2.190      3.593
REMARK  Name = 
REMARK  5 active torsions:
REMARK  status: ('A' for Active; 'I' for Inactive)
REMARK    1  A    between atoms: C_1  and  C_2
REMARK    2  A    between atoms: N_4  and  C_10
REMARK    3  A    between atoms: C_13  and  N_20
REMARK    4  A    between atoms: C_15  and  C_18
REMARK    5  A    between atoms: C_18  and  O_19
REMARK                            x       y       z     vdW  Elec       q    Type
REMARK                         _______ _______ _______ _____ _____    ______ ____
ROOT
ATOM      1  C   UNL     1       9.558  -1.743  24.068  0.00  0.00    +0.226 C 
ATOM      2  O   UNL     1       9.099  -0.904  25.140  0.00  0.00    -0.349 OA
ATOM      3  C   UNL     1       9.585   0.435  24.900  0.00  0.00    +0.177 C 
ATOM      4  C   UNL     1      10.310   0.414  23.541  0.00  0.00    +0.226 C 
ATOM      5  C   UNL     1       9.732  -0.818  22.876  0.00  0.00    +0.091 C 
ENDROOT
BRANCH   1  14
ATOM      6  C   UNL     1       5.278  -3.535  22.245  0.00  0.00    +0.051 C 
ATOM      7  C   UNL     1       6.584  -3.674  22.955  0.00  0.00    +0.030 A 
ATOM      8  C   UNL     1       6.947  -5.021  23.454  0.00  0.00    +0.257 A 
ATOM      9  O   UNL     1       6.219  -5.994  23.291  0.00  0.00    -0.267 OA
ATOM     10  N   UNL     1       8.147  -5.115  24.097  0.00  0.00    -0.275 N 
ATOM     11  H   UNL     1       8.418  -6.028  24.429  0.00  0.00    +0.173 HD
ATOM     12  C   UNL     1       9.050  -4.102  24.275  0.00  0.00    +0.331 A 
ATOM     13  O   UNL     1      10.144  -4.325  24.788  0.00  0.00    -0.246 OA
ATOM     14  N   UNL     1       8.643  -2.850  23.835  0.00  0.00    -0.274 N 
ATOM     15  C   UNL     1       7.443  -2.670  23.174  0.00  0.00    +0.101 A 
ENDBRANCH   1  14
BRANCH   4  16
ATOM     16  N   UNL     1      10.081   1.616  22.729  0.00  0.00    +0.082 NA
ATOM     17  N   UNL     1      10.710   2.636  23.079  0.00  0.00    -0.014 NA
ATOM     18  N   UNL     1      11.282   3.566  23.402  0.00  0.00    -0.328 NA
ENDBRANCH   4  16
BRANCH   3  19
ATOM     19  C   UNL     1       8.403   1.400  25.026  0.00  0.00    +0.189 C 
BRANCH  19  20
ATOM     20  O   UNL     1       8.829   2.740  25.239  0.00  0.00    -0.392 OA
ATOM     21  H   UNL     1       8.081   3.309  24.971  0.00  0.00    +0.210 HD
ENDBRANCH  19  20
ENDBRANCH   3  19
TORSDOF 4
ENDMDL
MODEL 9
REMARK VINA RESULT:      -5.8      3.463      7.527
REMARK  Name = 
REMARK  5 active torsions:
REMARK  status: ('A' for Active; 'I' for Inactive)
REMARK    1  A    between atoms: C_1  and  C_2
REMARK    2  A    between atoms: N_4  and  C_10
REMARK    3  A    between atoms: C_13  and  N_20
REMARK    4  A    between atoms: C_15  and  C_18
REMARK    5  A    between atoms: C_18  and  O_19
REMARK                            x       y       z     vdW  Elec       q    Type
REMARK                         _______ _______ _______ _____ _____    ______ ____
ROOT
ATOM      1  C   UNL     1       9.656  -0.052  22.981  0.00  0.00    +0.226 C 
ATOM      2  O   UNL     1       8.985  -0.849  21.993  0.00  0.00    -0.349 OA
ATOM      3  C   UNL     1       8.984  -2.220  22.449  0.00  0.00    +0.177 C 
ATOM      4  C   UNL     1       9.621  -2.228  23.851  0.00  0.00    +0.226 C 
ATOM      5  C   UNL     1       9.464  -0.788  24.295  0.00  0.00    +0.091 C 
ENDROOT
BRANCH   1  14
ATOM      6  C   UNL     1       5.970   3.231  22.280  0.00  0.00    +0.051 C 
ATOM      7  C   UNL     1       7.371   2.859  22.635  0.00  0.00    +0.030 A 
ATOM      8  C   UNL     1       8.295   3.960  22.999  0.00  0.00    +0.257 A 
ATOM      9  O   UNL     1       7.935   5.132  23.020  0.00  0.00    -0.267 OA
ATOM     10  N   UNL     1       9.568   3.587  23.320  0.00  0.00    -0.275 N 
ATOM     11  H   UNL     1      10.206   4.321  23.585  0.00  0.00    +0.173 HD
ATOM     12  C   UNL     1      10.044   2.305  23.381  0.00  0.00    +0.331 A 
ATOM     13  O   UNL     1      11.187   2.083  23.775  0.00  0.00    -0.246 OA
ATOM     14  N   UNL     1       9.156   1.314  22.984  0.00  0.00    -0.274 N 
ATOM     15  C   UNL     1       7.849   1.608  22.644  0.00  0.00    +0.101 A 
ENDBRANCH   1  14
BRANCH   4  16
ATOM     16  N   UNL     1       8.971  -3.150  24.792  0.00  0.00    +0.082 NA
ATOM     17  N   UNL     1       9.273  -4.355  24.667  0.00  0.00    -0.014 NA
ATOM     18  N   UNL     1       9.546  -5.453  24.549  0.00  0.00    -0.328 NA
ENDBRANCH   4  16
BRANCH   3  19
ATOM     19  C   UNL     1       7.552  -2.755  22.348  0.00  0.00    +0.189 C 
BRANCH  19  20
ATOM     20  O   UNL     1       7.512  -4.176  22.363  0.00  0.00    -0.392 OA
ATOM     21  H   UNL     1       8.007  -4.453  23.159  0.00  0.00    +0.210 HD
ENDBRANCH  19  20
ENDBRANCH   3  19
TORSDOF 4
ENDMDL
