MODEL 1
REMARK VINA RESULT:      -6.8      0.000      0.000
REMARK  Name = 
REMARK  21 active torsions:
REMARK  status: ('A' for Active; 'I' for Inactive)
REMARK    1  A    between atoms: C_1  and  C_2
REMARK    2  A    between atoms: C_2  and  C_3
REMARK    3  A    between atoms: C_2  and  C_4
REMARK    4  A    between atoms: C_2  and  C_5
REMARK    5  A    between atoms: C_5  and  C_6
REMARK    6  A    between atoms: C_5  and  N_44
REMARK    7  A    between atoms: C_10  and  O_30
REMARK    8  A    between atoms: C_12  and  C_13
REMARK    9  A    between atoms: N_15  and  C_16
REMARK   10  A    between atoms: C_16  and  C_21
REMARK   11  A    between atoms: C_18  and  C_19
REMARK   12  A    between atoms: N_23  and  S_24
REMARK   13  A    between atoms: S_24  and  C_27
REMARK   14  A    between atoms: O_30  and  C_31
REMARK   15  A    between atoms: C_34  and  O_42
REMARK   16  A    between atoms: O_42  and  C_43
REMARK   17  A    between atoms: C_45  and  O_47
REMARK   18  A    between atoms: O_47  and  C_48
REMARK   19  A    between atoms: C_48  and  C_49
REMARK   20  A    between atoms: C_48  and  C_50
REMARK   21  A    between atoms: C_48  and  C_51
REMARK                            x       y       z     vdW  Elec       q    Type
REMARK                         _______ _______ _______ _____ _____    ______ ____
ROOT
ATOM      1  C   UNL     1       6.513  -0.141  24.026  0.00  0.00    +0.237 C 
ATOM      2  N   UNL     1       5.696   0.570  24.884  0.00  0.00    -0.285 N 
ATOM      3  C   UNL     1       4.912   0.296  26.106  0.00  0.00    +0.166 C 
ATOM      4  C   UNL     1       5.084   1.591  26.951  0.00  0.00    +0.078 C 
ATOM      5  C   UNL     1       5.808   2.593  26.027  0.00  0.00    +0.195 C 
ATOM      6  C   UNL     1       5.573   2.009  24.642  0.00  0.00    +0.153 C 
ATOM      7  O   UNL     1       6.929   0.449  23.019  0.00  0.00    -0.274 OA
ENDROOT
BRANCH   3   8
ATOM      8  C   UNL     1       4.791  -1.009  26.928  0.00  0.00    +0.234 C 
ATOM      9  N   UNL     1       3.629  -1.732  26.776  0.00  0.00    -0.299 N 
ATOM     10  H   UNL     1       2.901  -1.338  26.191  0.00  0.00    +0.150 HD
ATOM     11  O   UNL     1       5.717  -1.346  27.660  0.00  0.00    -0.274 OA
BRANCH   9  12
ATOM     12  C   UNL     1       3.191  -2.893  27.552  0.00  0.00    +0.119 C 
ATOM     13  C   UNL     1       2.805  -2.813  29.031  0.00  0.00    +0.046 C 
ATOM     14  C   UNL     1       1.763  -3.137  28.001  0.00  0.00    +0.046 C 
BRANCH  12  15
ATOM     15  C   UNL     1       3.909  -4.154  27.127  0.00  0.00    +0.256 C 
ATOM     16  N   UNL     1       5.150  -4.310  27.737  0.00  0.00    -0.188 N 
ATOM     17  H   UNL     1       5.508  -3.608  28.382  0.00  0.00    +0.176 HD
ATOM     18  O   UNL     1       3.409  -4.949  26.347  0.00  0.00    -0.272 OA
BRANCH  16  19
ATOM     19  S   UNL     1       6.074  -5.662  27.553  0.00  0.00    +0.048 S 
ATOM     20  O   UNL     1       7.434  -5.268  27.819  0.00  0.00    -0.155 OA
ATOM     21  O   UNL     1       5.687  -6.241  26.284  0.00  0.00    -0.155 OA
BRANCH  19  22
ATOM     22  C   UNL     1       5.640  -6.806  28.880  0.00  0.00    +0.151 C 
ATOM     23  C   UNL     1       4.187  -6.943  29.218  0.00  0.00    +0.030 C 
ATOM     24  C   UNL     1       5.088  -6.123  30.101  0.00  0.00    +0.030 C 
ENDBRANCH  19  22
ENDBRANCH  16  19
ENDBRANCH  12  15
BRANCH  13  25
ATOM     25  C   UNL     1       2.592  -1.576  29.790  0.00  0.00    -0.028 C 
ATOM     26  C   UNL     1       3.527  -0.904  30.474  0.00  0.00    +0.004 C 
ENDBRANCH  13  25
ENDBRANCH   9  12
ENDBRANCH   3   8
BRANCH   1  27
ATOM     27  C   UNL     1       6.907  -1.633  24.236  0.00  0.00    +0.168 C 
BRANCH  27  29
ATOM     28  C   UNL     1       8.531  -3.161  25.502  0.00  0.00    +0.013 C 
ATOM     29  C   UNL     1       8.433  -1.848  24.689  0.00  0.00    -0.011 C 
ATOM     30  C   UNL     1       9.371  -1.978  23.462  0.00  0.00    +0.013 C 
ATOM     31  C   UNL     1       9.070  -0.727  25.553  0.00  0.00    +0.013 C 
ENDBRANCH  27  29
BRANCH  27  32
ATOM     32  N   UNL     1       6.567  -2.438  23.054  0.00  0.00    -0.269 N 
ATOM     33  H   UNL     1       7.266  -2.614  22.351  0.00  0.00    +0.153 HD
ATOM     34  C   UNL     1       5.423  -3.193  23.010  0.00  0.00    +0.401 C 
ATOM     35  O   UNL     1       4.581  -3.154  23.887  0.00  0.00    -0.226 OA
BRANCH  34  36
ATOM     36  O   UNL     1       5.413  -4.014  21.927  0.00  0.00    -0.445 OA
BRANCH  36  37
ATOM     37  C   UNL     1       5.839  -5.411  22.050  0.00  0.00    +0.107 C 
ATOM     38  C   UNL     1       4.857  -6.268  22.860  0.00  0.00    +0.055 C 
ATOM     39  C   UNL     1       7.175  -5.390  22.816  0.00  0.00    +0.055 C 
ATOM     40  C   UNL     1       6.106  -6.018  20.669  0.00  0.00    +0.055 C 
ENDBRANCH  36  37
ENDBRANCH  34  36
ENDBRANCH  27  32
ENDBRANCH   1  27
BRANCH   5  41
ATOM     41  O   UNL     1       7.233   2.558  26.221  0.00  0.00    -0.471 OA
BRANCH  41  42
ATOM     42  C   UNL     1       7.878   3.729  25.899  0.00  0.00    +0.223 A 
ATOM     43  C   UNL     1       8.840   3.678  24.881  0.00  0.00    +0.049 A 
ATOM     44  C   UNL     1       9.046   2.536  24.073  0.00  0.00    +0.034 A 
ATOM     45  C   UNL     1      10.035   2.533  23.094  0.00  0.00    +0.042 A 
ATOM     46 CL   UNL     1      10.186   1.178  22.038  0.00  0.00    -0.084 Cl
ATOM     47  C   UNL     1      10.886   3.621  22.962  0.00  0.00    +0.021 A 
ATOM     48  C   UNL     1      10.682   4.763  23.744  0.00  0.00    +0.014 A 
ATOM     49  C   UNL     1       9.633   4.832  24.689  0.00  0.00    +0.030 A 
ATOM     50  C   UNL     1       9.346   5.990  25.451  0.00  0.00    +0.146 A 
ATOM     51  C   UNL     1       8.305   5.926  26.373  0.00  0.00    +0.160 A 
ATOM     52  N   UNL     1       7.588   4.819  26.637  0.00  0.00    -0.217 NA
BRANCH  50  53
ATOM     53  O   UNL     1      10.110   7.107  25.221  0.00  0.00    -0.493 OA
ATOM     54  C   UNL     1      11.418   7.108  25.784  0.00  0.00    +0.277 C 
ENDBRANCH  50  53
ENDBRANCH  41  42
ENDBRANCH   5  41
TORSDOF 14
ENDMDL
MODEL 2
REMARK VINA RESULT:      -6.8      3.552      9.349
REMARK  Name = 
REMARK  21 active torsions:
REMARK  status: ('A' for Active; 'I' for Inactive)
REMARK    1  A    between atoms: C_1  and  C_2
REMARK    2  A    between atoms: C_2  and  C_3
REMARK    3  A    between atoms: C_2  and  C_4
REMARK    4  A    between atoms: C_2  and  C_5
REMARK    5  A    between atoms: C_5  and  C_6
REMARK    6  A    between atoms: C_5  and  N_44
REMARK    7  A    between atoms: C_10  and  O_30
REMARK    8  A    between atoms: C_12  and  C_13
REMARK    9  A    between atoms: N_15  and  C_16
REMARK   10  A    between atoms: C_16  and  C_21
REMARK   11  A    between atoms: C_18  and  C_19
REMARK   12  A    between atoms: N_23  and  S_24
REMARK   13  A    between atoms: S_24  and  C_27
REMARK   14  A    between atoms: O_30  and  C_31
REMARK   15  A    between atoms: C_34  and  O_42
REMARK   16  A    between atoms: O_42  and  C_43
REMARK   17  A    between atoms: C_45  and  O_47
REMARK   18  A    between atoms: O_47  and  C_48
REMARK   19  A    between atoms: C_48  and  C_49
REMARK   20  A    between atoms: C_48  and  C_50
REMARK   21  A    between atoms: C_48  and  C_51
REMARK                            x       y       z     vdW  Elec       q    Type
REMARK                         _______ _______ _______ _____ _____    ______ ____
ROOT
ATOM      1  C   UNL     1       8.956   0.561  25.062  0.00  0.00    +0.237 C 
ATOM      2  N   UNL     1       7.817   0.586  25.844  0.00  0.00    -0.285 N 
ATOM      3  C   UNL     1       6.508   1.270  25.827  0.00  0.00    +0.166 C 
ATOM      4  C   UNL     1       5.520   0.185  26.347  0.00  0.00    +0.078 C 
ATOM      5  C   UNL     1       6.406  -0.990  26.813  0.00  0.00    +0.195 C 
ATOM      6  C   UNL     1       7.772  -0.341  26.977  0.00  0.00    +0.153 C 
ATOM      7  O   UNL     1       9.917  -0.101  25.478  0.00  0.00    -0.274 OA
ENDROOT
BRANCH   3   8
ATOM      8  C   UNL     1       5.917   2.244  24.780  0.00  0.00    +0.234 C 
ATOM      9  N   UNL     1       5.961   3.585  25.087  0.00  0.00    -0.299 N 
ATOM     10  H   UNL     1       6.315   3.849  26.000  0.00  0.00    +0.150 HD
ATOM     11  O   UNL     1       5.452   1.794  23.737  0.00  0.00    -0.274 OA
BRANCH   9  12
ATOM     12  C   UNL     1       5.329   4.689  24.363  0.00  0.00    +0.119 C 
ATOM     13  C   UNL     1       5.820   6.136  24.450  0.00  0.00    +0.046 C 
ATOM     14  C   UNL     1       5.932   5.383  23.158  0.00  0.00    +0.046 C 
BRANCH  12  15
ATOM     15  C   UNL     1       3.831   4.508  24.264  0.00  0.00    +0.256 C 
ATOM     16  N   UNL     1       3.418   4.025  23.026  0.00  0.00    -0.188 N 
ATOM     17  H   UNL     1       4.090   3.846  22.283  0.00  0.00    +0.176 HD
ATOM     18  O   UNL     1       3.090   4.744  25.204  0.00  0.00    -0.272 OA
BRANCH  16  19
ATOM     19  S   UNL     1       1.856   3.611  22.703  0.00  0.00    +0.048 S 
ATOM     20  O   UNL     1       1.119   4.845  22.595  0.00  0.00    -0.155 OA
ATOM     21  O   UNL     1       1.501   2.600  23.676  0.00  0.00    -0.155 OA
BRANCH  19  22
ATOM     22  C   UNL     1       1.812   2.883  21.052  0.00  0.00    +0.151 C 
ATOM     23  C   UNL     1       0.740   3.359  20.122  0.00  0.00    +0.030 C 
ATOM     24  C   UNL     1       0.598   2.028  20.809  0.00  0.00    +0.030 C 
ENDBRANCH  19  22
ENDBRANCH  16  19
ENDBRANCH  12  15
BRANCH  13  25
ATOM     25  C   UNL     1       7.086   6.571  25.049  0.00  0.00    -0.028 C 
ATOM     26  C   UNL     1       7.238   7.082  26.278  0.00  0.00    +0.004 C 
ENDBRANCH  13  25
ENDBRANCH   9  12
ENDBRANCH   3   8
BRANCH   1  27
ATOM     27  C   UNL     1       9.106   1.337  23.720  0.00  0.00    +0.168 C 
BRANCH  27  29
ATOM     28  C   UNL     1       7.812  -0.619  22.684  0.00  0.00    +0.013 C 
ATOM     29  C   UNL     1       8.923   0.422  22.412  0.00  0.00    -0.011 C 
ATOM     30  C   UNL     1       8.490   1.270  21.189  0.00  0.00    +0.013 C 
ATOM     31  C   UNL     1      10.173  -0.358  21.926  0.00  0.00    +0.013 C 
ENDBRANCH  27  29
BRANCH  27  32
ATOM     32  N   UNL     1      10.367   2.093  23.688  0.00  0.00    -0.269 N 
ATOM     33  H   UNL     1      11.181   1.691  23.253  0.00  0.00    +0.153 HD
ATOM     34  C   UNL     1      10.403   3.433  23.976  0.00  0.00    +0.401 C 
ATOM     35  O   UNL     1       9.428   4.042  24.375  0.00  0.00    -0.226 OA
BRANCH  34  36
ATOM     36  O   UNL     1      11.615   3.971  23.680  0.00  0.00    -0.445 OA
BRANCH  36  37
ATOM     37  C   UNL     1      11.742   5.398  23.372  0.00  0.00    +0.107 C 
ATOM     38  C   UNL     1      12.750   5.683  22.251  0.00  0.00    +0.055 C 
ATOM     39  C   UNL     1      12.272   6.071  24.653  0.00  0.00    +0.055 C 
ATOM     40  C   UNL     1      10.372   6.008  23.061  0.00  0.00    +0.055 C 
ENDBRANCH  36  37
ENDBRANCH  34  36
ENDBRANCH  27  32
ENDBRANCH   1  27
BRANCH   5  41
ATOM     41  O   UNL     1       6.570  -1.972  25.775  0.00  0.00    -0.471 OA
BRANCH  41  42
ATOM     42  C   UNL     1       6.325  -3.265  26.174  0.00  0.00    +0.223 A 
ATOM     43  C   UNL     1       6.044  -4.207  25.175  0.00  0.00    +0.049 A 
ATOM     44  C   UNL     1       6.171  -3.927  23.795  0.00  0.00    +0.034 A 
ATOM     45  C   UNL     1       5.853  -4.893  22.846  0.00  0.00    +0.042 A 
ATOM     46 CL   UNL     1       6.132  -4.573  21.175  0.00  0.00    -0.084 Cl
ATOM     47  C   UNL     1       5.325  -6.113  23.246  0.00  0.00    +0.021 A 
ATOM     48  C   UNL     1       5.210  -6.408  24.609  0.00  0.00    +0.014 A 
ATOM     49  C   UNL     1       5.604  -5.481  25.600  0.00  0.00    +0.030 A 
ATOM     50  C   UNL     1       5.573  -5.763  26.986  0.00  0.00    +0.146 A 
ATOM     51  C   UNL     1       5.957  -4.758  27.869  0.00  0.00    +0.160 A 
ATOM     52  N   UNL     1       6.301  -3.510  27.499  0.00  0.00    -0.217 NA
BRANCH  50  53
ATOM     53  O   UNL     1       5.172  -7.018  27.371  0.00  0.00    -0.493 OA
ATOM     54  C   UNL     1       4.523  -7.119  28.635  0.00  0.00    +0.277 C 
ENDBRANCH  50  53
ENDBRANCH  41  42
ENDBRANCH   5  41
TORSDOF 14
ENDMDL
MODEL 3
REMARK VINA RESULT:      -6.3      3.120      8.692
REMARK  Name = 
REMARK  21 active torsions:
REMARK  status: ('A' for Active; 'I' for Inactive)
REMARK    1  A    between atoms: C_1  and  C_2
REMARK    2  A    between atoms: C_2  and  C_3
REMARK    3  A    between atoms: C_2  and  C_4
REMARK    4  A    between atoms: C_2  and  C_5
REMARK    5  A    between atoms: C_5  and  C_6
REMARK    6  A    between atoms: C_5  and  N_44
REMARK    7  A    between atoms: C_10  and  O_30
REMARK    8  A    between atoms: C_12  and  C_13
REMARK    9  A    between atoms: N_15  and  C_16
REMARK   10  A    between atoms: C_16  and  C_21
REMARK   11  A    between atoms: C_18  and  C_19
REMARK   12  A    between atoms: N_23  and  S_24
REMARK   13  A    between atoms: S_24  and  C_27
REMARK   14  A    between atoms: O_30  and  C_31
REMARK   15  A    between atoms: C_34  and  O_42
REMARK   16  A    between atoms: O_42  and  C_43
REMARK   17  A    between atoms: C_45  and  O_47
REMARK   18  A    between atoms: O_47  and  C_48
REMARK   19  A    between atoms: C_48  and  C_49
REMARK   20  A    between atoms: C_48  and  C_50
REMARK   21  A    between atoms: C_48  and  C_51
REMARK                            x       y       z     vdW  Elec       q    Type
REMARK                         _______ _______ _______ _____ _____    ______ ____
ROOT
ATOM      1  C   UNL     1       7.468  -4.596  24.616  0.00  0.00    +0.237 C 
ATOM      2  N   UNL     1       7.259  -4.323  25.955  0.00  0.00    -0.285 N 
ATOM      3  C   UNL     1       6.569  -3.289  26.754  0.00  0.00    +0.166 C 
ATOM      4  C   UNL     1       5.968  -4.088  27.947  0.00  0.00    +0.078 C 
ATOM      5  C   UNL     1       6.549  -5.512  27.824  0.00  0.00    +0.195 C 
ATOM      6  C   UNL     1       7.753  -5.311  26.916  0.00  0.00    +0.153 C 
ATOM      7  O   UNL     1       8.208  -5.549  24.338  0.00  0.00    -0.274 OA
ENDROOT
BRANCH   3   8
ATOM      8  C   UNL     1       5.725  -2.080  26.285  0.00  0.00    +0.234 C 
ATOM      9  N   UNL     1       6.125  -0.838  26.723  0.00  0.00    -0.299 N 
ATOM     10  H   UNL     1       6.903  -0.794  27.373  0.00  0.00    +0.150 HD
ATOM     11  O   UNL     1       4.760  -2.271  25.551  0.00  0.00    -0.274 OA
BRANCH   9  12
ATOM     12  C   UNL     1       5.417   0.434  26.571  0.00  0.00    +0.119 C 
ATOM     13  C   UNL     1       6.133   1.768  26.347  0.00  0.00    +0.046 C 
ATOM     14  C   UNL     1       5.274   1.186  25.264  0.00  0.00    +0.046 C 
BRANCH  12  15
ATOM     15  C   UNL     1       4.177   0.490  27.435  0.00  0.00    +0.256 C 
ATOM     16  N   UNL     1       3.015   0.157  26.747  0.00  0.00    -0.188 N 
ATOM     17  H   UNL     1       3.040  -0.074  25.756  0.00  0.00    +0.176 HD
ATOM     18  O   UNL     1       4.230   0.776  28.620  0.00  0.00    -0.272 OA
BRANCH  16  19
ATOM     19  S   UNL     1       1.549   0.009  27.487  0.00  0.00    +0.048 S 
ATOM     20  O   UNL     1       0.602  -0.332  26.455  0.00  0.00    -0.155 OA
ATOM     21  O   UNL     1       1.390   1.195  28.300  0.00  0.00    -0.155 OA
BRANCH  19  22
ATOM     22  C   UNL     1       1.623  -1.438  28.564  0.00  0.00    +0.151 C 
ATOM     23  C   UNL     1       2.300  -2.660  28.023  0.00  0.00    +0.030 C 
ATOM     24  C   UNL     1       0.798  -2.594  28.067  0.00  0.00    +0.030 C 
ENDBRANCH  19  22
ENDBRANCH  16  19
ENDBRANCH  12  15
BRANCH  13  25
ATOM     25  C   UNL     1       7.554   1.927  26.020  0.00  0.00    -0.028 C 
ATOM     26  C   UNL     1       8.056   2.731  25.074  0.00  0.00    +0.004 C 
ENDBRANCH  13  25
ENDBRANCH   9  12
ENDBRANCH   3   8
BRANCH   1  27
ATOM     27  C   UNL     1       6.856  -3.759  23.453  0.00  0.00    +0.168 C 
BRANCH  27  29
ATOM     28  C   UNL     1       5.090  -5.512  22.834  0.00  0.00    +0.013 C 
ATOM     29  C   UNL     1       6.238  -4.646  22.264  0.00  0.00    -0.011 C 
ATOM     30  C   UNL     1       5.648  -3.752  21.144  0.00  0.00    +0.013 C 
ATOM     31  C   UNL     1       7.214  -5.604  21.530  0.00  0.00    +0.013 C 
ENDBRANCH  27  29
BRANCH  27  32
ATOM     32  N   UNL     1       7.822  -2.769  22.954  0.00  0.00    -0.269 N 
ATOM     33  H   UNL     1       8.634  -3.075  22.443  0.00  0.00    +0.153 HD
ATOM     34  C   UNL     1       7.516  -1.433  22.910  0.00  0.00    +0.401 C 
ATOM     35  O   UNL     1       6.487  -0.983  23.377  0.00  0.00    -0.226 OA
BRANCH  34  36
ATOM     36  O   UNL     1       8.456  -0.732  22.222  0.00  0.00    -0.445 OA
BRANCH  36  37
ATOM     37  C   UNL     1       9.753  -0.430  22.833  0.00  0.00    +0.107 C 
ATOM     38  C   UNL     1       9.712  -0.443  24.367  0.00  0.00    +0.055 C 
ATOM     39  C   UNL     1      10.115   1.002  22.393  0.00  0.00    +0.055 C 
ATOM     40  C   UNL     1      10.838  -1.368  22.294  0.00  0.00    +0.055 C 
ENDBRANCH  36  37
ENDBRANCH  34  36
ENDBRANCH  27  32
ENDBRANCH   1  27
BRANCH   5  41
ATOM     41  O   UNL     1       5.664  -6.385  27.099  0.00  0.00    -0.471 OA
BRANCH  41  42
ATOM     42  C   UNL     1       4.502  -6.694  27.766  0.00  0.00    +0.223 A 
ATOM     43  C   UNL     1       3.291  -6.404  27.122  0.00  0.00    +0.049 A 
ATOM     44  C   UNL     1       3.218  -5.976  25.776  0.00  0.00    +0.034 A 
ATOM     45  C   UNL     1       1.989  -5.676  25.196  0.00  0.00    +0.042 A 
ATOM     46 CL   UNL     1       1.911  -5.276  23.521  0.00  0.00    -0.084 Cl
ATOM     47  C   UNL     1       0.832  -5.711  25.962  0.00  0.00    +0.021 A 
ATOM     48  C   UNL     1       0.890  -6.148  27.290  0.00  0.00    +0.014 A 
ATOM     49  C   UNL     1       2.110  -6.542  27.884  0.00  0.00    +0.030 A 
ATOM     50  C   UNL     1       2.205  -7.058  29.199  0.00  0.00    +0.146 A 
ATOM     51  C   UNL     1       3.467  -7.383  29.686  0.00  0.00    +0.160 A 
ATOM     52  N   UNL     1       4.617  -7.185  29.015  0.00  0.00    -0.217 NA
BRANCH  50  53
ATOM     53  O   UNL     1       1.039  -7.213  29.907  0.00  0.00    -0.493 OA
ATOM     54  C   UNL     1       0.771  -8.518  30.411  0.00  0.00    +0.277 C 
ENDBRANCH  50  53
ENDBRANCH  41  42
ENDBRANCH   5  41
TORSDOF 14
ENDMDL
MODEL 4
REMARK VINA RESULT:      -6.2      3.020      9.086
REMARK  Name = 
REMARK  21 active torsions:
REMARK  status: ('A' for Active; 'I' for Inactive)
REMARK    1  A    between atoms: C_1  and  C_2
REMARK    2  A    between atoms: C_2  and  C_3
REMARK    3  A    between atoms: C_2  and  C_4
REMARK    4  A    between atoms: C_2  and  C_5
REMARK    5  A    between atoms: C_5  and  C_6
REMARK    6  A    between atoms: C_5  and  N_44
REMARK    7  A    between atoms: C_10  and  O_30
REMARK    8  A    between atoms: C_12  and  C_13
REMARK    9  A    between atoms: N_15  and  C_16
REMARK   10  A    between atoms: C_16  and  C_21
REMARK   11  A    between atoms: C_18  and  C_19
REMARK   12  A    between atoms: N_23  and  S_24
REMARK   13  A    between atoms: S_24  and  C_27
REMARK   14  A    between atoms: O_30  and  C_31
REMARK   15  A    between atoms: C_34  and  O_42
REMARK   16  A    between atoms: O_42  and  C_43
REMARK   17  A    between atoms: C_45  and  O_47
REMARK   18  A    between atoms: O_47  and  C_48
REMARK   19  A    between atoms: C_48  and  C_49
REMARK   20  A    between atoms: C_48  and  C_50
REMARK   21  A    between atoms: C_48  and  C_51
REMARK                            x       y       z     vdW  Elec       q    Type
REMARK                         _______ _______ _______ _____ _____    ______ ____
ROOT
ATOM      1  C   UNL     1       7.230  -4.381  24.901  0.00  0.00    +0.237 C 
ATOM      2  N   UNL     1       7.010  -4.264  26.261  0.00  0.00    -0.285 N 
ATOM      3  C   UNL     1       6.228  -3.390  27.159  0.00  0.00    +0.166 C 
ATOM      4  C   UNL     1       5.725  -4.359  28.268  0.00  0.00    +0.078 C 
ATOM      5  C   UNL     1       6.447  -5.697  28.005  0.00  0.00    +0.195 C 
ATOM      6  C   UNL     1       7.613  -5.285  27.120  0.00  0.00    +0.153 C 
ATOM      7  O   UNL     1       8.061  -5.222  24.530  0.00  0.00    -0.274 OA
ENDROOT
BRANCH   3   8
ATOM      8  C   UNL     1       5.259  -2.234  26.812  0.00  0.00    +0.234 C 
ATOM      9  N   UNL     1       5.287  -1.133  27.639  0.00  0.00    -0.299 N 
ATOM     10  H   UNL     1       5.888  -1.171  28.456  0.00  0.00    +0.150 HD
ATOM     11  O   UNL     1       4.528  -2.337  25.832  0.00  0.00    -0.274 OA
BRANCH   9  12
ATOM     12  C   UNL     1       4.370   0.007  27.640  0.00  0.00    +0.119 C 
ATOM     13  C   UNL     1       2.852  -0.141  27.778  0.00  0.00    +0.046 C 
ATOM     14  C   UNL     1       3.644   0.524  28.866  0.00  0.00    +0.046 C 
BRANCH  12  15
ATOM     15  C   UNL     1       4.842   1.106  26.715  0.00  0.00    +0.256 C 
ATOM     16  N   UNL     1       5.683   2.023  27.337  0.00  0.00    -0.188 N 
ATOM     17  H   UNL     1       5.913   1.937  28.325  0.00  0.00    +0.176 HD
ATOM     18  O   UNL     1       4.521   1.139  25.538  0.00  0.00    -0.272 OA
BRANCH  16  19
ATOM     19  S   UNL     1       6.443   3.237  26.521  0.00  0.00    +0.048 S 
ATOM     20  O   UNL     1       7.326   3.875  27.465  0.00  0.00    -0.155 OA
ATOM     21  O   UNL     1       5.401   3.975  25.841  0.00  0.00    -0.155 OA
BRANCH  19  22
ATOM     22  C   UNL     1       7.525   2.477  25.293  0.00  0.00    +0.151 C 
ATOM     23  C   UNL     1       8.666   3.302  24.783  0.00  0.00    +0.030 C 
ATOM     24  C   UNL     1       7.435   3.123  23.937  0.00  0.00    +0.030 C 
ENDBRANCH  19  22
ENDBRANCH  16  19
ENDBRANCH  12  15
BRANCH  13  25
ATOM     25  C   UNL     1       2.148  -1.369  28.159  0.00  0.00    -0.028 C 
ATOM     26  C   UNL     1       1.308  -2.065  27.381  0.00  0.00    +0.004 C 
ENDBRANCH  13  25
ENDBRANCH   9  12
ENDBRANCH   3   8
BRANCH   1  27
ATOM     27  C   UNL     1       6.523  -3.502  23.828  0.00  0.00    +0.168 C 
BRANCH  27  29
ATOM     28  C   UNL     1       4.137  -4.090  23.094  0.00  0.00    +0.013 C 
ATOM     29  C   UNL     1       5.633  -4.337  22.783  0.00  0.00    -0.011 C 
ATOM     30  C   UNL     1       5.897  -3.877  21.326  0.00  0.00    +0.013 C 
ATOM     31  C   UNL     1       5.847  -5.874  22.755  0.00  0.00    +0.013 C 
ENDBRANCH  27  29
BRANCH  27  32
ATOM     32  N   UNL     1       7.488  -2.625  23.148  0.00  0.00    -0.269 N 
ATOM     33  H   UNL     1       8.077  -2.997  22.421  0.00  0.00    +0.153 HD
ATOM     34  C   UNL     1       7.420  -1.261  23.268  0.00  0.00    +0.401 C 
ATOM     35  O   UNL     1       6.639  -0.710  24.021  0.00  0.00    -0.226 OA
BRANCH  34  36
ATOM     36  O   UNL     1       8.262  -0.645  22.398  0.00  0.00    -0.445 OA
BRANCH  36  37
ATOM     37  C   UNL     1       9.617  -0.270  22.812  0.00  0.00    +0.107 C 
ATOM     38  C   UNL     1      10.094   1.046  22.183  0.00  0.00    +0.055 C 
ATOM     39  C   UNL     1      10.548  -1.388  22.305  0.00  0.00    +0.055 C 
ATOM     40  C   UNL     1       9.725  -0.233  24.339  0.00  0.00    +0.055 C 
ENDBRANCH  36  37
ENDBRANCH  34  36
ENDBRANCH  27  32
ENDBRANCH   1  27
BRANCH   5  41
ATOM     41  O   UNL     1       5.647  -6.580  27.198  0.00  0.00    -0.471 OA
BRANCH  41  42
ATOM     42  C   UNL     1       4.442  -6.927  27.763  0.00  0.00    +0.223 A 
ATOM     43  C   UNL     1       3.324  -6.976  26.919  0.00  0.00    +0.049 A 
ATOM     44  C   UNL     1       3.415  -6.856  25.513  0.00  0.00    +0.034 A 
ATOM     45  C   UNL     1       2.268  -6.885  24.726  0.00  0.00    +0.042 A 
ATOM     46 CL   UNL     1       2.411  -6.861  23.007  0.00  0.00    -0.084 Cl
ATOM     47  C   UNL     1       1.016  -6.945  25.323  0.00  0.00    +0.021 A 
ATOM     48  C   UNL     1       0.914  -7.081  26.712  0.00  0.00    +0.014 A 
ATOM     49  C   UNL     1       2.063  -7.141  27.533  0.00  0.00    +0.030 A 
ATOM     50  C   UNL     1       2.009  -7.348  28.932  0.00  0.00    +0.146 A 
ATOM     51  C   UNL     1       3.207  -7.357  29.640  0.00  0.00    +0.160 A 
ATOM     52  N   UNL     1       4.415  -7.121  29.096  0.00  0.00    -0.217 NA
BRANCH  50  53
ATOM     53  O   UNL     1       0.774  -7.538  29.500  0.00  0.00    -0.493 OA
ATOM     54  C   UNL     1       0.546  -8.801  30.118  0.00  0.00    +0.277 C 
ENDBRANCH  50  53
ENDBRANCH  41  42
ENDBRANCH   5  41
TORSDOF 14
ENDMDL
MODEL 5
REMARK VINA RESULT:      -6.0      2.861      6.027
REMARK  Name = 
REMARK  21 active torsions:
REMARK  status: ('A' for Active; 'I' for Inactive)
REMARK    1  A    between atoms: C_1  and  C_2
REMARK    2  A    between atoms: C_2  and  C_3
REMARK    3  A    between atoms: C_2  and  C_4
REMARK    4  A    between atoms: C_2  and  C_5
REMARK    5  A    between atoms: C_5  and  C_6
REMARK    6  A    between atoms: C_5  and  N_44
REMARK    7  A    between atoms: C_10  and  O_30
REMARK    8  A    between atoms: C_12  and  C_13
REMARK    9  A    between atoms: N_15  and  C_16
REMARK   10  A    between atoms: C_16  and  C_21
REMARK   11  A    between atoms: C_18  and  C_19
REMARK   12  A    between atoms: N_23  and  S_24
REMARK   13  A    between atoms: S_24  and  C_27
REMARK   14  A    between atoms: O_30  and  C_31
REMARK   15  A    between atoms: C_34  and  O_42
REMARK   16  A    between atoms: O_42  and  C_43
REMARK   17  A    between atoms: C_45  and  O_47
REMARK   18  A    between atoms: O_47  and  C_48
REMARK   19  A    between atoms: C_48  and  C_49
REMARK   20  A    between atoms: C_48  and  C_50
REMARK   21  A    between atoms: C_48  and  C_51
REMARK                            x       y       z     vdW  Elec       q    Type
REMARK                         _______ _______ _______ _____ _____    ______ ____
ROOT
ATOM      1  C   UNL     1       3.914   1.139  28.434  0.00  0.00    +0.237 C 
ATOM      2  N   UNL     1       5.276   1.103  28.203  0.00  0.00    -0.285 N 
ATOM      3  C   UNL     1       6.194   0.465  27.236  0.00  0.00    +0.166 C 
ATOM      4  C   UNL     1       7.287   1.547  26.998  0.00  0.00    +0.078 C 
ATOM      5  C   UNL     1       6.996   2.661  28.027  0.00  0.00    +0.195 C 
ATOM      6  C   UNL     1       6.114   1.958  29.048  0.00  0.00    +0.153 C 
ATOM      7  O   UNL     1       3.524   1.741  29.444  0.00  0.00    -0.274 OA
ENDROOT
BRANCH   3   8
ATOM      8  C   UNL     1       5.873  -0.420  26.009  0.00  0.00    +0.234 C 
ATOM      9  N   UNL     1       6.552  -1.614  25.912  0.00  0.00    -0.299 N 
ATOM     10  H   UNL     1       7.263  -1.811  26.608  0.00  0.00    +0.150 HD
ATOM     11  O   UNL     1       5.039  -0.038  25.194  0.00  0.00    -0.274 OA
BRANCH   9  12
ATOM     12  C   UNL     1       6.566  -2.545  24.783  0.00  0.00    +0.119 C 
ATOM     13  C   UNL     1       6.640  -4.065  24.953  0.00  0.00    +0.046 C 
ATOM     14  C   UNL     1       5.402  -3.433  24.389  0.00  0.00    +0.046 C 
BRANCH  12  15
ATOM     15  C   UNL     1       7.315  -1.979  23.599  0.00  0.00    +0.256 C 
ATOM     16  N   UNL     1       8.524  -1.385  23.948  0.00  0.00    -0.188 N 
ATOM     17  H   UNL     1       8.824  -1.339  24.920  0.00  0.00    +0.176 HD
ATOM     18  O   UNL     1       6.888  -2.076  22.459  0.00  0.00    -0.272 OA
BRANCH  16  19
ATOM     19  S   UNL     1       9.595  -0.814  22.833  0.00  0.00    +0.048 S 
ATOM     20  O   UNL     1       9.811  -1.881  21.888  0.00  0.00    -0.155 OA
ATOM     21  O   UNL     1      10.688  -0.238  23.587  0.00  0.00    -0.155 OA
BRANCH  19  22
ATOM     22  C   UNL     1       8.770   0.491  21.899  0.00  0.00    +0.151 C 
ATOM     23  C   UNL     1       9.379   1.859  21.951  0.00  0.00    +0.030 C 
ATOM     24  C   UNL     1       8.156   1.552  22.771  0.00  0.00    +0.030 C 
ENDBRANCH  19  22
ENDBRANCH  16  19
ENDBRANCH  12  15
BRANCH  13  25
ATOM     25  C   UNL     1       6.470  -4.789  26.217  0.00  0.00    -0.028 C 
ATOM     26  C   UNL     1       7.458  -5.258  26.992  0.00  0.00    +0.004 C 
ENDBRANCH  13  25
ENDBRANCH   9  12
ENDBRANCH   3   8
BRANCH   1  27
ATOM     27  C   UNL     1       2.860   0.444  27.522  0.00  0.00    +0.168 C 
BRANCH  27  29
ATOM     28  C   UNL     1       2.010   2.592  26.408  0.00  0.00    +0.013 C 
ATOM     29  C   UNL     1       1.567   1.347  27.213  0.00  0.00    -0.011 C 
ATOM     30  C   UNL     1       0.532   0.572  26.358  0.00  0.00    +0.013 C 
ATOM     31  C   UNL     1       0.763   1.856  28.438  0.00  0.00    +0.013 C 
ENDBRANCH  27  29
BRANCH  27  32
ATOM     32  N   UNL     1       2.493  -0.875  28.056  0.00  0.00    -0.269 N 
ATOM     33  H   UNL     1       2.069  -0.947  28.966  0.00  0.00    +0.153 HD
ATOM     34  C   UNL     1       2.443  -1.983  27.249  0.00  0.00    +0.401 C 
ATOM     35  O   UNL     1       2.802  -1.961  26.086  0.00  0.00    -0.226 OA
BRANCH  34  36
ATOM     36  O   UNL     1       1.879  -3.040  27.892  0.00  0.00    -0.445 OA
BRANCH  36  37
ATOM     37  C   UNL     1       2.686  -4.209  28.250  0.00  0.00    +0.107 C 
ATOM     38  C   UNL     1       2.859  -5.197  27.090  0.00  0.00    +0.055 C 
ATOM     39  C   UNL     1       1.917  -4.938  29.369  0.00  0.00    +0.055 C 
ATOM     40  C   UNL     1       4.039  -3.777  28.825  0.00  0.00    +0.055 C 
ENDBRANCH  36  37
ENDBRANCH  34  36
ENDBRANCH  27  32
ENDBRANCH   1  27
BRANCH   5  41
ATOM     41  O   UNL     1       6.176   3.701  27.464  0.00  0.00    -0.471 OA
BRANCH  41  42
ATOM     42  C   UNL     1       6.826   4.507  26.559  0.00  0.00    +0.223 A 
ATOM     43  C   UNL     1       6.372   4.486  25.233  0.00  0.00    +0.049 A 
ATOM     44  C   UNL     1       5.190   3.819  24.835  0.00  0.00    +0.034 A 
ATOM     45  C   UNL     1       4.800   3.810  23.499  0.00  0.00    +0.042 A 
ATOM     46 CL   UNL     1       3.295   3.097  23.054  0.00  0.00    -0.084 Cl
ATOM     47  C   UNL     1       5.616   4.383  22.533  0.00  0.00    +0.021 A 
ATOM     48  C   UNL     1       6.779   5.060  22.917  0.00  0.00    +0.014 A 
ATOM     49  C   UNL     1       7.159   5.162  24.275  0.00  0.00    +0.030 A 
ATOM     50  C   UNL     1       8.286   5.896  24.714  0.00  0.00    +0.146 A 
ATOM     51  C   UNL     1       8.578   5.897  26.075  0.00  0.00    +0.160 A 
ATOM     52  N   UNL     1       7.896   5.197  27.001  0.00  0.00    -0.217 NA
BRANCH  50  53
ATOM     53  O   UNL     1       9.015   6.570  23.766  0.00  0.00    -0.493 OA
ATOM     54  C   UNL     1      10.349   6.118  23.552  0.00  0.00    +0.277 C 
ENDBRANCH  50  53
ENDBRANCH  41  42
ENDBRANCH   5  41
TORSDOF 14
ENDMDL
MODEL 6
REMARK VINA RESULT:      -5.9      1.859      3.023
REMARK  Name = 
REMARK  21 active torsions:
REMARK  status: ('A' for Active; 'I' for Inactive)
REMARK    1  A    between atoms: C_1  and  C_2
REMARK    2  A    between atoms: C_2  and  C_3
REMARK    3  A    between atoms: C_2  and  C_4
REMARK    4  A    between atoms: C_2  and  C_5
REMARK    5  A    between atoms: C_5  and  C_6
REMARK    6  A    between atoms: C_5  and  N_44
REMARK    7  A    between atoms: C_10  and  O_30
REMARK    8  A    between atoms: C_12  and  C_13
REMARK    9  A    between atoms: N_15  and  C_16
REMARK   10  A    between atoms: C_16  and  C_21
REMARK   11  A    between atoms: C_18  and  C_19
REMARK   12  A    between atoms: N_23  and  S_24
REMARK   13  A    between atoms: S_24  and  C_27
REMARK   14  A    between atoms: O_30  and  C_31
REMARK   15  A    between atoms: C_34  and  O_42
REMARK   16  A    between atoms: O_42  and  C_43
REMARK   17  A    between atoms: C_45  and  O_47
REMARK   18  A    between atoms: O_47  and  C_48
REMARK   19  A    between atoms: C_48  and  C_49
REMARK   20  A    between atoms: C_48  and  C_50
REMARK   21  A    between atoms: C_48  and  C_51
REMARK                            x       y       z     vdW  Elec       q    Type
REMARK                         _______ _______ _______ _____ _____    ______ ____
ROOT
ATOM      1  C   UNL     1       6.773  -0.683  23.936  0.00  0.00    +0.237 C 
ATOM      2  N   UNL     1       5.876  -0.232  24.886  0.00  0.00    -0.285 N 
ATOM      3  C   UNL     1       5.204  -0.777  26.084  0.00  0.00    +0.166 C 
ATOM      4  C   UNL     1       5.174   0.429  27.068  0.00  0.00    +0.078 C 
ATOM      5  C   UNL     1       5.668   1.641  26.250  0.00  0.00    +0.195 C 
ATOM      6  C   UNL     1       5.486   1.177  24.812  0.00  0.00    +0.153 C 
ATOM      7  O   UNL     1       7.035   0.079  22.995  0.00  0.00    -0.274 OA
ENDROOT
BRANCH   3   8
ATOM      8  C   UNL     1       5.353  -2.164  26.753  0.00  0.00    +0.234 C 
ATOM      9  N   UNL     1       4.841  -3.242  26.067  0.00  0.00    -0.299 N 
ATOM     10  H   UNL     1       4.343  -3.058  25.203  0.00  0.00    +0.150 HD
ATOM     11  O   UNL     1       5.917  -2.248  27.840  0.00  0.00    -0.274 OA
BRANCH   9  12
ATOM     12  C   UNL     1       4.697  -4.618  26.544  0.00  0.00    +0.119 C 
ATOM     13  C   UNL     1       5.811  -5.662  26.431  0.00  0.00    +0.046 C 
ATOM     14  C   UNL     1       5.374  -5.173  27.781  0.00  0.00    +0.046 C 
BRANCH  12  15
ATOM     15  C   UNL     1       3.290  -5.135  26.348  0.00  0.00    +0.256 C 
ATOM     16  N   UNL     1       2.867  -5.084  25.023  0.00  0.00    -0.188 N 
ATOM     17  H   UNL     1       3.470  -4.708  24.295  0.00  0.00    +0.176 HD
ATOM     18  O   UNL     1       2.629  -5.572  27.276  0.00  0.00    -0.272 OA
BRANCH  16  19
ATOM     19  S   UNL     1       1.429  -5.712  24.519  0.00  0.00    +0.048 S 
ATOM     20  O   UNL     1       1.278  -5.333  23.137  0.00  0.00    -0.155 OA
ATOM     21  O   UNL     1       0.454  -5.331  25.519  0.00  0.00    -0.155 OA
BRANCH  19  22
ATOM     22  C   UNL     1       1.590  -7.509  24.507  0.00  0.00    +0.151 C 
ATOM     23  C   UNL     1       2.212  -8.132  23.295  0.00  0.00    +0.030 C 
ATOM     24  C   UNL     1       0.720  -8.180  23.478  0.00  0.00    +0.030 C 
ENDBRANCH  19  22
ENDBRANCH  16  19
ENDBRANCH  12  15
BRANCH  13  25
ATOM     25  C   UNL     1       7.205  -5.384  26.070  0.00  0.00    -0.028 C 
ATOM     26  C   UNL     1       8.236  -5.309  26.922  0.00  0.00    +0.004 C 
ENDBRANCH  13  25
ENDBRANCH   9  12
ENDBRANCH   3   8
BRANCH   1  27
ATOM     27  C   UNL     1       7.437  -2.091  23.966  0.00  0.00    +0.168 C 
BRANCH  27  29
ATOM     28  C   UNL     1       9.525  -3.524  24.373  0.00  0.00    +0.013 C 
ATOM     29  C   UNL     1       9.001  -2.068  24.334  0.00  0.00    -0.011 C 
ATOM     30  C   UNL     1       9.818  -1.298  23.266  0.00  0.00    +0.013 C 
ATOM     31  C   UNL     1       9.391  -1.404  25.682  0.00  0.00    +0.013 C 
ENDBRANCH  27  29
BRANCH  27  32
ATOM     32  N   UNL     1       7.178  -2.821  22.717  0.00  0.00    -0.269 N 
ATOM     33  H   UNL     1       7.948  -3.095  22.128  0.00  0.00    +0.153 HD
ATOM     34  C   UNL     1       5.957  -3.393  22.464  0.00  0.00    +0.401 C 
ATOM     35  O   UNL     1       4.999  -3.236  23.197  0.00  0.00    -0.226 OA
BRANCH  34  36
ATOM     36  O   UNL     1       6.002  -4.191  21.365  0.00  0.00    -0.445 OA
BRANCH  36  37
ATOM     37  C   UNL     1       6.244  -5.630  21.500  0.00  0.00    +0.107 C 
ATOM     38  C   UNL     1       5.615  -6.228  22.765  0.00  0.00    +0.055 C 
ATOM     39  C   UNL     1       7.771  -5.802  21.617  0.00  0.00    +0.055 C 
ATOM     40  C   UNL     1       5.789  -6.375  20.242  0.00  0.00    +0.055 C 
ENDBRANCH  36  37
ENDBRANCH  34  36
ENDBRANCH  27  32
ENDBRANCH   1  27
BRANCH   5  41
ATOM     41  O   UNL     1       7.083   1.847  26.410  0.00  0.00    -0.471 OA
BRANCH  41  42
ATOM     42  C   UNL     1       7.485   3.153  26.262  0.00  0.00    +0.223 A 
ATOM     43  C   UNL     1       8.420   3.430  25.255  0.00  0.00    +0.049 A 
ATOM     44  C   UNL     1       8.826   2.473  24.296  0.00  0.00    +0.034 A 
ATOM     45  C   UNL     1       9.779   2.796  23.335  0.00  0.00    +0.042 A 
ATOM     46 CL   UNL     1      10.167   1.656  22.101  0.00  0.00    -0.084 Cl
ATOM     47  C   UNL     1      10.403   4.035  23.364  0.00  0.00    +0.021 A 
ATOM     48  C   UNL     1      10.000   4.996  24.298  0.00  0.00    +0.014 A 
ATOM     49  C   UNL     1       8.974   4.730  25.234  0.00  0.00    +0.030 A 
ATOM     50  C   UNL     1       8.485   5.694  26.147  0.00  0.00    +0.146 A 
ATOM     51  C   UNL     1       7.493   5.304  27.043  0.00  0.00    +0.160 A 
ATOM     52  N   UNL     1       7.006   4.053  27.143  0.00  0.00    -0.217 NA
BRANCH  50  53
ATOM     53  O   UNL     1       9.016   6.957  26.084  0.00  0.00    -0.493 OA
ATOM     54  C   UNL     1      10.366   7.101  26.517  0.00  0.00    +0.277 C 
ENDBRANCH  50  53
ENDBRANCH  41  42
ENDBRANCH   5  41
TORSDOF 14
ENDMDL
MODEL 7
REMARK VINA RESULT:      -5.8      1.866      2.769
REMARK  Name = 
REMARK  21 active torsions:
REMARK  status: ('A' for Active; 'I' for Inactive)
REMARK    1  A    between atoms: C_1  and  C_2
REMARK    2  A    between atoms: C_2  and  C_3
REMARK    3  A    between atoms: C_2  and  C_4
REMARK    4  A    between atoms: C_2  and  C_5
REMARK    5  A    between atoms: C_5  and  C_6
REMARK    6  A    between atoms: C_5  and  N_44
REMARK    7  A    between atoms: C_10  and  O_30
REMARK    8  A    between atoms: C_12  and  C_13
REMARK    9  A    between atoms: N_15  and  C_16
REMARK   10  A    between atoms: C_16  and  C_21
REMARK   11  A    between atoms: C_18  and  C_19
REMARK   12  A    between atoms: N_23  and  S_24
REMARK   13  A    between atoms: S_24  and  C_27
REMARK   14  A    between atoms: O_30  and  C_31
REMARK   15  A    between atoms: C_34  and  O_42
REMARK   16  A    between atoms: O_42  and  C_43
REMARK   17  A    between atoms: C_45  and  O_47
REMARK   18  A    between atoms: O_47  and  C_48
REMARK   19  A    between atoms: C_48  and  C_49
REMARK   20  A    between atoms: C_48  and  C_50
REMARK   21  A    between atoms: C_48  and  C_51
REMARK                            x       y       z     vdW  Elec       q    Type
REMARK                         _______ _______ _______ _____ _____    ______ ____
ROOT
ATOM      1  C   UNL     1       7.512   1.122  22.475  0.00  0.00    +0.237 C 
ATOM      2  N   UNL     1       6.624   2.012  23.049  0.00  0.00    -0.285 N 
ATOM      3  C   UNL     1       5.945   2.175  24.351  0.00  0.00    +0.166 C 
ATOM      4  C   UNL     1       5.936   3.716  24.570  0.00  0.00    +0.078 C 
ATOM      5  C   UNL     1       6.449   4.323  23.247  0.00  0.00    +0.195 C 
ATOM      6  C   UNL     1       6.257   3.187  22.255  0.00  0.00    +0.153 C 
ATOM      7  O   UNL     1       7.786   1.284  21.278  0.00  0.00    -0.274 OA
ENDROOT
BRANCH   3   8
ATOM      8  C   UNL     1       6.072   1.332  25.642  0.00  0.00    +0.234 C 
ATOM      9  N   UNL     1       5.055   0.440  25.902  0.00  0.00    -0.299 N 
ATOM     10  H   UNL     1       4.260   0.434  25.273  0.00  0.00    +0.150 HD
ATOM     11  O   UNL     1       7.054   1.481  26.362  0.00  0.00    -0.274 OA
BRANCH   9  12
ATOM     12  C   UNL     1       4.844  -0.344  27.120  0.00  0.00    +0.119 C 
ATOM     13  C   UNL     1       4.709   0.289  28.508  0.00  0.00    +0.046 C 
ATOM     14  C   UNL     1       3.536  -0.408  27.883  0.00  0.00    +0.046 C 
BRANCH  12  15
ATOM     15  C   UNL     1       5.574  -1.666  27.069  0.00  0.00    +0.256 C 
ATOM     16  N   UNL     1       4.738  -2.762  27.261  0.00  0.00    -0.188 N 
ATOM     17  H   UNL     1       3.743  -2.637  27.437  0.00  0.00    +0.176 HD
ATOM     18  O   UNL     1       6.773  -1.732  26.851  0.00  0.00    -0.272 OA
BRANCH  16  19
ATOM     19  S   UNL     1       5.258  -4.319  27.117  0.00  0.00    +0.048 S 
ATOM     20  O   UNL     1       6.691  -4.289  27.268  0.00  0.00    -0.155 OA
ATOM     21  O   UNL     1       4.633  -4.840  25.920  0.00  0.00    -0.155 OA
BRANCH  19  22
ATOM     22  C   UNL     1       4.646  -5.235  28.547  0.00  0.00    +0.151 C 
ATOM     23  C   UNL     1       5.647  -5.622  29.591  0.00  0.00    +0.030 C 
ATOM     24  C   UNL     1       5.151  -6.650  28.611  0.00  0.00    +0.030 C 
ENDBRANCH  19  22
ENDBRANCH  16  19
ENDBRANCH  12  15
BRANCH  13  25
ATOM     25  C   UNL     1       4.533   1.720  28.778  0.00  0.00    -0.028 C 
ATOM     26  C   UNL     1       3.410   2.304  29.216  0.00  0.00    +0.004 C 
ENDBRANCH  13  25
ENDBRANCH   9  12
ENDBRANCH   3   8
BRANCH   1  27
ATOM     27  C   UNL     1       8.153  -0.077  23.234  0.00  0.00    +0.168 C 
BRANCH  27  29
ATOM     28  C   UNL     1       9.801  -0.302  25.186  0.00  0.00    +0.013 C 
ATOM     29  C   UNL     1       9.659   0.190  23.726  0.00  0.00    -0.011 C 
ATOM     30  C   UNL     1      10.679  -0.592  22.859  0.00  0.00    +0.013 C 
ATOM     31  C   UNL     1      10.155   1.660  23.687  0.00  0.00    +0.013 C 
ENDBRANCH  27  29
BRANCH  27  32
ATOM     32  N   UNL     1       8.044  -1.315  22.448  0.00  0.00    -0.269 N 
ATOM     33  H   UNL     1       8.840  -1.654  21.934  0.00  0.00    +0.153 HD
ATOM     34  C   UNL     1       6.989  -2.176  22.615  0.00  0.00    +0.401 C 
ATOM     35  O   UNL     1       6.041  -1.916  23.332  0.00  0.00    -0.226 OA
BRANCH  34  36
ATOM     36  O   UNL     1       7.195  -3.346  21.954  0.00  0.00    -0.445 OA
BRANCH  36  37
ATOM     37  C   UNL     1       6.793  -4.620  22.554  0.00  0.00    +0.107 C 
ATOM     38  C   UNL     1       7.513  -4.915  23.876  0.00  0.00    +0.055 C 
ATOM     39  C   UNL     1       7.199  -5.717  21.551  0.00  0.00    +0.055 C 
ATOM     40  C   UNL     1       5.271  -4.684  22.719  0.00  0.00    +0.055 C 
ENDBRANCH  36  37
ENDBRANCH  34  36
ENDBRANCH  27  32
ENDBRANCH   1  27
BRANCH   5  41
ATOM     41  O   UNL     1       7.867   4.561  23.289  0.00  0.00    -0.471 OA
BRANCH  41  42
ATOM     42  C   UNL     1       8.287   5.295  24.374  0.00  0.00    +0.223 A 
ATOM     43  C   UNL     1       9.640   5.658  24.423  0.00  0.00    +0.049 A 
ATOM     44  C   UNL     1      10.531   5.454  23.344  0.00  0.00    +0.034 A 
ATOM     45  C   UNL     1      11.872   5.810  23.459  0.00  0.00    +0.042 A 
ATOM     46 CL   UNL     1      12.913   5.668  22.092  0.00  0.00    -0.084 Cl
ATOM     47  C   UNL     1      12.363   6.288  24.666  0.00  0.00    +0.021 A 
ATOM     48  C   UNL     1      11.488   6.509  25.735  0.00  0.00    +0.014 A 
ATOM     49  C   UNL     1      10.105   6.239  25.624  0.00  0.00    +0.030 A 
ATOM     50  C   UNL     1       9.173   6.514  26.653  0.00  0.00    +0.146 A 
ATOM     51  C   UNL     1       7.840   6.174  26.438  0.00  0.00    +0.160 A 
ATOM     52  N   UNL     1       7.382   5.545  25.340  0.00  0.00    -0.217 NA
BRANCH  50  53
ATOM     53  O   UNL     1       9.645   7.108  27.796  0.00  0.00    -0.493 OA
ATOM     54  C   UNL     1       8.774   7.100  28.923  0.00  0.00    +0.277 C 
ENDBRANCH  50  53
ENDBRANCH  41  42
ENDBRANCH   5  41
TORSDOF 14
ENDMDL
MODEL 8
REMARK VINA RESULT:      -5.6      2.097      2.937
REMARK  Name = 
REMARK  21 active torsions:
REMARK  status: ('A' for Active; 'I' for Inactive)
REMARK    1  A    between atoms: C_1  and  C_2
REMARK    2  A    between atoms: C_2  and  C_3
REMARK    3  A    between atoms: C_2  and  C_4
REMARK    4  A    between atoms: C_2  and  C_5
REMARK    5  A    between atoms: C_5  and  C_6
REMARK    6  A    between atoms: C_5  and  N_44
REMARK    7  A    between atoms: C_10  and  O_30
REMARK    8  A    between atoms: C_12  and  C_13
REMARK    9  A    between atoms: N_15  and  C_16
REMARK   10  A    between atoms: C_16  and  C_21
REMARK   11  A    between atoms: C_18  and  C_19
REMARK   12  A    between atoms: N_23  and  S_24
REMARK   13  A    between atoms: S_24  and  C_27
REMARK   14  A    between atoms: O_30  and  C_31
REMARK   15  A    between atoms: C_34  and  O_42
REMARK   16  A    between atoms: O_42  and  C_43
REMARK   17  A    between atoms: C_45  and  O_47
REMARK   18  A    between atoms: O_47  and  C_48
REMARK   19  A    between atoms: C_48  and  C_49
REMARK   20  A    between atoms: C_48  and  C_50
REMARK   21  A    between atoms: C_48  and  C_51
REMARK                            x       y       z     vdW  Elec       q    Type
REMARK                         _______ _______ _______ _____ _____    ______ ____
ROOT
ATOM      1  C   UNL     1       6.752  -0.754  23.642  0.00  0.00    +0.237 C 
ATOM      2  N   UNL     1       6.254   0.426  24.161  0.00  0.00    -0.285 N 
ATOM      3  C   UNL     1       5.500   0.848  25.360  0.00  0.00    +0.166 C 
ATOM      4  C   UNL     1       6.123   2.228  25.719  0.00  0.00    +0.078 C 
ATOM      5  C   UNL     1       7.068   2.571  24.547  0.00  0.00    +0.195 C 
ATOM      6  C   UNL     1       6.576   1.657  23.436  0.00  0.00    +0.153 C 
ATOM      7  O   UNL     1       7.270  -0.707  22.518  0.00  0.00    -0.274 OA
ENDROOT
BRANCH   3   8
ATOM      8  C   UNL     1       5.024   0.011  26.571  0.00  0.00    +0.234 C 
ATOM      9  N   UNL     1       3.722   0.196  26.979  0.00  0.00    -0.299 N 
ATOM     10  H   UNL     1       3.177   0.910  26.509  0.00  0.00    +0.150 HD
ATOM     11  O   UNL     1       5.804  -0.774  27.102  0.00  0.00    -0.274 OA
BRANCH   9  12
ATOM     12  C   UNL     1       3.080  -0.332  28.183  0.00  0.00    +0.119 C 
ATOM     13  C   UNL     1       3.441   0.134  29.596  0.00  0.00    +0.046 C 
ATOM     14  C   UNL     1       2.084   0.434  29.031  0.00  0.00    +0.046 C 
BRANCH  12  15
ATOM     15  C   UNL     1       2.744  -1.799  28.041  0.00  0.00    +0.256 C 
ATOM     16  N   UNL     1       3.691  -2.637  28.620  0.00  0.00    -0.188 N 
ATOM     17  H   UNL     1       4.524  -2.258  29.065  0.00  0.00    +0.176 HD
ATOM     18  O   UNL     1       1.720  -2.175  27.493  0.00  0.00    -0.272 OA
BRANCH  16  19
ATOM     19  S   UNL     1       3.496  -4.270  28.725  0.00  0.00    +0.048 S 
ATOM     20  O   UNL     1       3.378  -4.757  27.373  0.00  0.00    -0.155 OA
ATOM     21  O   UNL     1       2.449  -4.487  29.701  0.00  0.00    -0.155 OA
BRANCH  19  22
ATOM     22  C   UNL     1       5.038  -4.967  29.351  0.00  0.00    +0.151 C 
ATOM     23  C   UNL     1       6.047  -5.415  28.338  0.00  0.00    +0.030 C 
ATOM     24  C   UNL     1       5.197  -6.433  29.049  0.00  0.00    +0.030 C 
ENDBRANCH  19  22
ENDBRANCH  16  19
ENDBRANCH  12  15
BRANCH  13  25
ATOM     25  C   UNL     1       4.270   1.300  29.922  0.00  0.00    -0.028 C 
ATOM     26  C   UNL     1       5.603   1.302  30.054  0.00  0.00    +0.004 C 
ENDBRANCH  13  25
ENDBRANCH   9  12
ENDBRANCH   3   8
BRANCH   1  27
ATOM     27  C   UNL     1       6.667  -2.128  24.370  0.00  0.00    +0.168 C 
BRANCH  27  29
ATOM     28  C   UNL     1       8.413  -3.930  23.843  0.00  0.00    +0.013 C 
ATOM     29  C   UNL     1       8.096  -2.740  24.779  0.00  0.00    -0.011 C 
ATOM     30  C   UNL     1       9.225  -1.691  24.614  0.00  0.00    +0.013 C 
ATOM     31  C   UNL     1       8.244  -3.251  26.236  0.00  0.00    +0.013 C 
ENDBRANCH  27  29
BRANCH  27  32
ATOM     32  N   UNL     1       5.862  -3.084  23.596  0.00  0.00    -0.269 N 
ATOM     33  H   UNL     1       6.309  -3.687  22.925  0.00  0.00    +0.153 HD
ATOM     34  C   UNL     1       4.573  -3.386  23.955  0.00  0.00    +0.401 C 
ATOM     35  O   UNL     1       3.993  -2.807  24.854  0.00  0.00    -0.226 OA
BRANCH  34  36
ATOM     36  O   UNL     1       4.094  -4.439  23.241  0.00  0.00    -0.445 OA
BRANCH  36  37
ATOM     37  C   UNL     1       4.668  -5.776  23.412  0.00  0.00    +0.107 C 
ATOM     38  C   UNL     1       5.660  -6.149  22.303  0.00  0.00    +0.055 C 
ATOM     39  C   UNL     1       3.490  -6.766  23.330  0.00  0.00    +0.055 C 
ATOM     40  C   UNL     1       5.299  -5.921  24.800  0.00  0.00    +0.055 C 
ENDBRANCH  36  37
ENDBRANCH  34  36
ENDBRANCH  27  32
ENDBRANCH   1  27
BRANCH   5  41
ATOM     41  O   UNL     1       8.418   2.154  24.817  0.00  0.00    -0.471 OA
BRANCH  41  42
ATOM     42  C   UNL     1       9.377   3.070  24.453  0.00  0.00    +0.223 A 
ATOM     43  C   UNL     1       9.187   4.399  24.857  0.00  0.00    +0.049 A 
ATOM     44  C   UNL     1       8.164   4.793  25.750  0.00  0.00    +0.034 A 
ATOM     45  C   UNL     1       8.006   6.131  26.096  0.00  0.00    +0.042 A 
ATOM     46 CL   UNL     1       6.833   6.574  27.280  0.00  0.00    -0.084 Cl
ATOM     47  C   UNL     1       8.797   7.102  25.499  0.00  0.00    +0.021 A 
ATOM     48  C   UNL     1       9.824   6.724  24.626  0.00  0.00    +0.014 A 
ATOM     49  C   UNL     1      10.067   5.365  24.320  0.00  0.00    +0.030 A 
ATOM     50  C   UNL     1      11.136   4.932  23.500  0.00  0.00    +0.146 A 
ATOM     51  C   UNL     1      11.255   3.569  23.245  0.00  0.00    +0.160 A 
ATOM     52  N   UNL     1      10.386   2.635  23.673  0.00  0.00    -0.217 NA
BRANCH  50  53
ATOM     53  O   UNL     1      11.995   5.887  23.017  0.00  0.00    -0.493 OA
ATOM     54  C   UNL     1      13.187   5.415  22.397  0.00  0.00    +0.277 C 
ENDBRANCH  50  53
ENDBRANCH  41  42
ENDBRANCH   5  41
TORSDOF 14
ENDMDL
MODEL 9
REMARK VINA RESULT:      -5.6      2.813      6.400
REMARK  Name = 
REMARK  21 active torsions:
REMARK  status: ('A' for Active; 'I' for Inactive)
REMARK    1  A    between atoms: C_1  and  C_2
REMARK    2  A    between atoms: C_2  and  C_3
REMARK    3  A    between atoms: C_2  and  C_4
REMARK    4  A    between atoms: C_2  and  C_5
REMARK    5  A    between atoms: C_5  and  C_6
REMARK    6  A    between atoms: C_5  and  N_44
REMARK    7  A    between atoms: C_10  and  O_30
REMARK    8  A    between atoms: C_12  and  C_13
REMARK    9  A    between atoms: N_15  and  C_16
REMARK   10  A    between atoms: C_16  and  C_21
REMARK   11  A    between atoms: C_18  and  C_19
REMARK   12  A    between atoms: N_23  and  S_24
REMARK   13  A    between atoms: S_24  and  C_27
REMARK   14  A    between atoms: O_30  and  C_31
REMARK   15  A    between atoms: C_34  and  O_42
REMARK   16  A    between atoms: O_42  and  C_43
REMARK   17  A    between atoms: C_45  and  O_47
REMARK   18  A    between atoms: O_47  and  C_48
REMARK   19  A    between atoms: C_48  and  C_49
REMARK   20  A    between atoms: C_48  and  C_50
REMARK   21  A    between atoms: C_48  and  C_51
REMARK                            x       y       z     vdW  Elec       q    Type
REMARK                         _______ _______ _______ _____ _____    ______ ____
ROOT
ATOM      1  C   UNL     1       4.670  -0.178  28.924  0.00  0.00    +0.237 C 
ATOM      2  N   UNL     1       5.852   0.191  28.311  0.00  0.00    -0.285 N 
ATOM      3  C   UNL     1       6.586  -0.158  27.077  0.00  0.00    +0.166 C 
ATOM      4  C   UNL     1       7.198   1.198  26.618  0.00  0.00    +0.078 C 
ATOM      5  C   UNL     1       6.914   2.188  27.768  0.00  0.00    +0.195 C 
ATOM      6  C   UNL     1       6.617   1.268  28.942  0.00  0.00    +0.153 C 
ATOM      7  O   UNL     1       4.439   0.294  30.045  0.00  0.00    -0.274 OA
ENDROOT
BRANCH   3   8
ATOM      8  C   UNL     1       6.188  -1.116  25.930  0.00  0.00    +0.234 C 
ATOM      9  N   UNL     1       7.052  -2.153  25.660  0.00  0.00    -0.299 N 
ATOM     10  H   UNL     1       7.922  -2.190  26.180  0.00  0.00    +0.150 HD
ATOM     11  O   UNL     1       5.137  -0.925  25.325  0.00  0.00    -0.274 OA
BRANCH   9  12
ATOM     12  C   UNL     1       7.003  -3.088  24.535  0.00  0.00    +0.119 C 
ATOM     13  C   UNL     1       7.067  -4.608  24.707  0.00  0.00    +0.046 C 
ATOM     14  C   UNL     1       5.812  -3.962  24.196  0.00  0.00    +0.046 C 
BRANCH  12  15
ATOM     15  C   UNL     1       7.707  -2.535  23.317  0.00  0.00    +0.256 C 
ATOM     16  N   UNL     1       8.613  -1.523  23.619  0.00  0.00    -0.188 N 
ATOM     17  H   UNL     1       8.741  -1.203  24.577  0.00  0.00    +0.176 HD
ATOM     18  O   UNL     1       7.499  -2.975  22.197  0.00  0.00    -0.272 OA
BRANCH  16  19
ATOM     19  S   UNL     1       9.608  -0.847  22.492  0.00  0.00    +0.048 S 
ATOM     20  O   UNL     1       8.763  -0.408  21.410  0.00  0.00    -0.155 OA
ATOM     21  O   UNL     1      10.676  -1.800  22.279  0.00  0.00    -0.155 OA
BRANCH  19  22
ATOM     22  C   UNL     1      10.296   0.662  23.204  0.00  0.00    +0.151 C 
ATOM     23  C   UNL     1       9.337   1.766  23.524  0.00  0.00    +0.030 C 
ATOM     24  C   UNL     1      10.194   1.853  22.291  0.00  0.00    +0.030 C 
ENDBRANCH  19  22
ENDBRANCH  16  19
ENDBRANCH  12  15
BRANCH  13  25
ATOM     25  C   UNL     1       6.944  -5.326  25.980  0.00  0.00    -0.028 C 
ATOM     26  C   UNL     1       7.895  -5.430  26.918  0.00  0.00    +0.004 C 
ENDBRANCH  13  25
ENDBRANCH   9  12
ENDBRANCH   3   8
BRANCH   1  27
ATOM     27  C   UNL     1       3.642  -1.170  28.302  0.00  0.00    +0.168 C 
BRANCH  27  29
ATOM     28  C   UNL     1       1.459  -1.377  26.973  0.00  0.00    +0.013 C 
ATOM     29  C   UNL     1       2.193  -0.527  28.037  0.00  0.00    -0.011 C 
ATOM     30  C   UNL     1       1.332  -0.531  29.325  0.00  0.00    +0.013 C 
ATOM     31  C   UNL     1       2.162   0.945  27.548  0.00  0.00    +0.013 C 
ENDBRANCH  27  29
BRANCH  27  32
ATOM     32  N   UNL     1       3.557  -2.404  29.096  0.00  0.00    -0.269 N 
ATOM     33  H   UNL     1       2.803  -2.527  29.752  0.00  0.00    +0.153 HD
ATOM     34  C   UNL     1       4.299  -3.512  28.774  0.00  0.00    +0.401 C 
ATOM     35  O   UNL     1       5.139  -3.502  27.894  0.00  0.00    -0.226 OA
BRANCH  34  36
ATOM     36  O   UNL     1       3.911  -4.595  29.497  0.00  0.00    -0.445 OA
BRANCH  36  37
ATOM     37  C   UNL     1       3.379  -5.785  28.828  0.00  0.00    +0.107 C 
ATOM     38  C   UNL     1       2.486  -5.450  27.627  0.00  0.00    +0.055 C 
ATOM     39  C   UNL     1       2.503  -6.510  29.867  0.00  0.00    +0.055 C 
ATOM     40  C   UNL     1       4.513  -6.737  28.434  0.00  0.00    +0.055 C 
ENDBRANCH  36  37
ENDBRANCH  34  36
ENDBRANCH  27  32
ENDBRANCH   1  27
BRANCH   5  41
ATOM     41  O   UNL     1       5.701   2.928  27.543  0.00  0.00    -0.471 OA
BRANCH  41  42
ATOM     42  C   UNL     1       5.446   3.210  26.221  0.00  0.00    +0.223 A 
ATOM     43  C   UNL     1       6.114   4.305  25.655  0.00  0.00    +0.049 A 
ATOM     44  C   UNL     1       7.144   5.007  26.323  0.00  0.00    +0.034 A 
ATOM     45  C   UNL     1       7.754   6.105  25.722  0.00  0.00    +0.042 A 
ATOM     46 CL   UNL     1       9.090   6.870  26.500  0.00  0.00    -0.084 Cl
ATOM     47  C   UNL     1       7.295   6.572  24.498  0.00  0.00    +0.021 A 
ATOM     48  C   UNL     1       6.288   5.876  23.821  0.00  0.00    +0.014 A 
ATOM     49  C   UNL     1       5.706   4.707  24.364  0.00  0.00    +0.030 A 
ATOM     50  C   UNL     1       4.737   3.932  23.683  0.00  0.00    +0.146 A 
ATOM     51  C   UNL     1       4.214   2.819  24.334  0.00  0.00    +0.160 A 
ATOM     52  N   UNL     1       4.521   2.458  25.594  0.00  0.00    -0.217 NA
BRANCH  50  53
ATOM     53  O   UNL     1       4.382   4.326  22.418  0.00  0.00    -0.493 OA
ATOM     54  C   UNL     1       3.144   3.827  21.921  0.00  0.00    +0.277 C 
ENDBRANCH  50  53
ENDBRANCH  41  42
ENDBRANCH   5  41
TORSDOF 14
ENDMDL
