MODEL 1
REMARK VINA RESULT:      -6.6      0.000      0.000
REMARK  Name = 
REMARK  19 active torsions:
REMARK  status: ('A' for Active; 'I' for Inactive)
REMARK    1  A    between atoms: C_1  and  C_2
REMARK    2  A    between atoms: C_2  and  C_3
REMARK    3  A    between atoms: C_2  and  C_4
REMARK    4  A    between atoms: C_4  and  N_5
REMARK    5  A    between atoms: N_5  and  C_6
REMARK    6  A    between atoms: N_5  and  S_30
REMARK    7  A    between atoms: C_6  and  C_7
REMARK    8  A    between atoms: C_7  and  C_8
REMARK    9  A    between atoms: C_7  and  O_25
REMARK   10  A    between atoms: C_8  and  C_9
REMARK   11  A    between atoms: C_8  and  N_16
REMARK   12  A    between atoms: C_9  and  C_10
REMARK   13  A    between atoms: C_17  and  O_19
REMARK   14  A    between atoms: O_19  and  C_20
REMARK   15  A    between atoms: O_25  and  P_26
REMARK   16  A    between atoms: P_26  and  O_28
REMARK   17  A    between atoms: P_26  and  O_29
REMARK   18  A    between atoms: S_30  and  C_33
REMARK   19  A    between atoms: C_36  and  N_39
REMARK                            x       y       z     vdW  Elec       q    Type
REMARK                         _______ _______ _______ _____ _____    ______ ____
ROOT
ATOM      1  C   UNL     1       6.537  -5.135  26.587  0.00  0.00    +0.166 C 
ENDROOT
BRANCH   1   2
ATOM      2  O   UNL     1       6.148  -6.403  27.149  0.00  0.00    -0.280 OA
BRANCH   2   3
ATOM      3  P   UNL     1       5.926  -6.488  28.748  0.00  0.00    +0.473 P 
ATOM      4  O   UNL     1       5.804  -5.237  29.541  0.00  0.00    -0.228 OA
BRANCH   3   5
ATOM      5  O   UNL     1       4.585  -7.360  28.777  0.00  0.00    -0.303 OA
ATOM      6  H   UNL     1       4.716  -8.076  29.430  0.00  0.00    +0.222 HD
ENDBRANCH   3   5
BRANCH   3   7
ATOM      7  O   UNL     1       6.896  -7.589  29.353  0.00  0.00    -0.303 OA
ATOM      8  H   UNL     1       6.391  -8.245  29.875  0.00  0.00    +0.222 HD
ENDBRANCH   3   7
ENDBRANCH   2   3
ENDBRANCH   1   2
BRANCH   1   9
ATOM      9  C   UNL     1       5.326  -4.103  26.354  0.00  0.00    +0.111 C 
BRANCH   9  10
ATOM     10  N   UNL     1       5.438  -2.817  27.187  0.00  0.00    -0.275 N 
ATOM     11  H   UNL     1       5.910  -2.872  28.080  0.00  0.00    +0.152 HD
ATOM     12  C   UNL     1       4.936  -1.539  26.894  0.00  0.00    +0.401 C 
ATOM     13  O   UNL     1       4.225  -1.267  25.944  0.00  0.00    -0.226 OA
BRANCH  12  14
ATOM     14  O   UNL     1       5.378  -0.610  27.801  0.00  0.00    -0.445 OA
BRANCH  14  15
ATOM     15  C   UNL     1       6.278   0.536  27.575  0.00  0.00    +0.206 C 
ATOM     16  C   UNL     1       6.425   1.585  28.671  0.00  0.00    +0.204 C 
ATOM     17  O   UNL     1       7.139   2.705  28.093  0.00  0.00    -0.376 OA
ATOM     18  C   UNL     1       7.155   2.547  26.667  0.00  0.00    +0.163 C 
ATOM     19  C   UNL     1       6.160   1.429  26.342  0.00  0.00    +0.075 C 
ENDBRANCH  14  15
ENDBRANCH  12  14
ENDBRANCH   9  10
BRANCH   9  20
ATOM     20  C   UNL     1       3.861  -4.654  26.189  0.00  0.00    +0.060 C 
BRANCH  20  21
ATOM     21  C   UNL     1       3.199  -5.542  25.143  0.00  0.00    -0.046 A 
ATOM     22  C   UNL     1       2.409  -4.861  24.169  0.00  0.00    +0.004 A 
ATOM     23  C   UNL     1       1.728  -5.538  23.150  0.00  0.00    +0.000 A 
ATOM     24  C   UNL     1       1.820  -6.920  23.053  0.00  0.00    +0.000 A 
ATOM     25  C   UNL     1       2.611  -7.598  23.991  0.00  0.00    +0.000 A 
ATOM     26  C   UNL     1       3.307  -6.919  25.022  0.00  0.00    +0.004 A 
ENDBRANCH  20  21
ENDBRANCH   9  20
ENDBRANCH   1   9
BRANCH   1  27
ATOM     27  C   UNL     1       7.479  -5.385  25.337  0.00  0.00    +0.143 C 
BRANCH  27  28
ATOM     28  N   UNL     1       7.679  -4.256  24.309  0.00  0.00    -0.174 NA
BRANCH  28  29
ATOM     29  S   UNL     1       8.938  -3.187  24.755  0.00  0.00    +0.061 S 
ATOM     30  O   UNL     1      10.167  -3.903  24.517  0.00  0.00    -0.153 OA
ATOM     31  O   UNL     1       8.626  -2.657  26.071  0.00  0.00    -0.153 OA
BRANCH  29  32
ATOM     32  C   UNL     1       8.911  -1.799  23.643  0.00  0.00    +0.106 A 
ATOM     33  C   UNL     1       7.887  -0.859  23.793  0.00  0.00    +0.030 A 
ATOM     34  C   UNL     1       7.815   0.239  22.940  0.00  0.00    +0.024 A 
ATOM     35  C   UNL     1       8.788   0.432  21.955  0.00  0.00    +0.025 A 
ATOM     36  C   UNL     1       9.742  -0.569  21.742  0.00  0.00    +0.024 A 
ATOM     37  C   UNL     1       9.812  -1.690  22.582  0.00  0.00    +0.030 A 
BRANCH  35  38
ATOM     38  N   UNL     1       8.662   1.510  21.071  0.00  0.00    -0.358 N 
ATOM     39  H   UNL     1       9.447   1.609  20.432  0.00  0.00    +0.142 HD
ATOM     40  H   UNL     1       7.773   1.530  20.580  0.00  0.00    +0.142 HD
ENDBRANCH  35  38
ENDBRANCH  29  32
ENDBRANCH  28  29
BRANCH  28  41
ATOM     41  C   UNL     1       7.495  -4.803  22.928  0.00  0.00    +0.112 C 
BRANCH  41  43
ATOM     42  C   UNL     1       5.393  -5.816  22.084  0.00  0.00    +0.008 C 
ATOM     43  C   UNL     1       6.255  -4.532  22.084  0.00  0.00    -0.001 C 
ATOM     44  C   UNL     1       5.390  -3.411  22.635  0.00  0.00    +0.008 C 
ENDBRANCH  41  43
ENDBRANCH  28  41
ENDBRANCH  27  28
ENDBRANCH   1  27
TORSDOF 17
ENDMDL
MODEL 2
REMARK VINA RESULT:      -6.5      3.052      6.630
REMARK  Name = 
REMARK  19 active torsions:
REMARK  status: ('A' for Active; 'I' for Inactive)
REMARK    1  A    between atoms: C_1  and  C_2
REMARK    2  A    between atoms: C_2  and  C_3
REMARK    3  A    between atoms: C_2  and  C_4
REMARK    4  A    between atoms: C_4  and  N_5
REMARK    5  A    between atoms: N_5  and  C_6
REMARK    6  A    between atoms: N_5  and  S_30
REMARK    7  A    between atoms: C_6  and  C_7
REMARK    8  A    between atoms: C_7  and  C_8
REMARK    9  A    between atoms: C_7  and  O_25
REMARK   10  A    between atoms: C_8  and  C_9
REMARK   11  A    between atoms: C_8  and  N_16
REMARK   12  A    between atoms: C_9  and  C_10
REMARK   13  A    between atoms: C_17  and  O_19
REMARK   14  A    between atoms: O_19  and  C_20
REMARK   15  A    between atoms: O_25  and  P_26
REMARK   16  A    between atoms: P_26  and  O_28
REMARK   17  A    between atoms: P_26  and  O_29
REMARK   18  A    between atoms: S_30  and  C_33
REMARK   19  A    between atoms: C_36  and  N_39
REMARK                            x       y       z     vdW  Elec       q    Type
REMARK                         _______ _______ _______ _____ _____    ______ ____
ROOT
ATOM      1  C   UNL     1       7.227   0.050  26.185  0.00  0.00    +0.166 C 
ENDROOT
BRANCH   1   2
ATOM      2  O   UNL     1       6.681  -0.265  27.481  0.00  0.00    -0.280 OA
BRANCH   2   3
ATOM      3  P   UNL     1       5.708   0.821  28.177  0.00  0.00    +0.473 P 
ATOM      4  O   UNL     1       5.647   2.205  27.641  0.00  0.00    -0.228 OA
BRANCH   3   5
ATOM      5  O   UNL     1       4.313   0.050  28.029  0.00  0.00    -0.303 OA
ATOM      6  H   UNL     1       4.425  -0.625  27.332  0.00  0.00    +0.222 HD
ENDBRANCH   3   5
BRANCH   3   7
ATOM      7  O   UNL     1       5.836   0.703  29.755  0.00  0.00    -0.303 OA
ATOM      8  H   UNL     1       5.463   1.495  30.193  0.00  0.00    +0.222 HD
ENDBRANCH   3   7
ENDBRANCH   2   3
ENDBRANCH   1   2
BRANCH   1   9
ATOM      9  C   UNL     1       6.166  -0.007  24.977  0.00  0.00    +0.111 C 
BRANCH   9  10
ATOM     10  N   UNL     1       5.752  -1.433  24.584  0.00  0.00    -0.275 N 
ATOM     11  H   UNL     1       6.219  -1.860  23.795  0.00  0.00    +0.152 HD
ATOM     12  C   UNL     1       4.762  -2.246  25.159  0.00  0.00    +0.401 C 
ATOM     13  O   UNL     1       3.987  -1.894  26.030  0.00  0.00    -0.226 OA
BRANCH  12  14
ATOM     14  O   UNL     1       4.797  -3.515  24.640  0.00  0.00    -0.445 OA
BRANCH  14  15
ATOM     15  C   UNL     1       5.599  -4.022  23.511  0.00  0.00    +0.206 C 
ATOM     16  C   UNL     1       5.182  -3.660  22.090  0.00  0.00    +0.204 C 
ATOM     17  O   UNL     1       5.963  -4.488  21.196  0.00  0.00    -0.376 OA
ATOM     18  C   UNL     1       6.582  -5.531  21.965  0.00  0.00    +0.163 C 
ATOM     19  C   UNL     1       5.919  -5.505  23.344  0.00  0.00    +0.075 C 
ENDBRANCH  14  15
ENDBRANCH  12  14
ENDBRANCH   9  10
BRANCH   9  20
ATOM     20  C   UNL     1       6.314   0.992  23.770  0.00  0.00    +0.060 C 
BRANCH  20  21
ATOM     21  C   UNL     1       6.842   2.417  23.663  0.00  0.00    -0.046 A 
ATOM     22  C   UNL     1       6.681   3.039  22.389  0.00  0.00    +0.004 A 
ATOM     23  C   UNL     1       7.125   4.340  22.128  0.00  0.00    +0.000 A 
ATOM     24  C   UNL     1       7.735   5.080  23.134  0.00  0.00    +0.000 A 
ATOM     25  C   UNL     1       7.879   4.487  24.396  0.00  0.00    +0.000 A 
ATOM     26  C   UNL     1       7.428   3.172  24.668  0.00  0.00    +0.004 A 
ENDBRANCH  20  21
ENDBRANCH   9  20
ENDBRANCH   1   9
BRANCH   1  27
ATOM     27  C   UNL     1       8.563  -0.774  25.967  0.00  0.00    +0.143 C 
BRANCH  27  28
ATOM     28  N   UNL     1       8.511  -2.093  25.174  0.00  0.00    -0.174 NA
BRANCH  28  29
ATOM     29  S   UNL     1       9.263  -1.961  23.643  0.00  0.00    +0.061 S 
ATOM     30  O   UNL     1       8.225  -2.199  22.671  0.00  0.00    -0.153 OA
ATOM     31  O   UNL     1      10.465  -2.776  23.667  0.00  0.00    -0.153 OA
BRANCH  29  32
ATOM     32  C   UNL     1       9.808  -0.282  23.434  0.00  0.00    +0.106 A 
ATOM     33  C   UNL     1       9.550   0.344  22.210  0.00  0.00    +0.030 A 
ATOM     34  C   UNL     1       9.966   1.655  21.993  0.00  0.00    +0.024 A 
ATOM     35  C   UNL     1      10.608   2.369  23.009  0.00  0.00    +0.025 A 
ATOM     36  C   UNL     1      10.960   1.701  24.187  0.00  0.00    +0.024 A 
ATOM     37  C   UNL     1      10.563   0.373  24.409  0.00  0.00    +0.030 A 
BRANCH  35  38
ATOM     38  N   UNL     1      11.072   3.664  22.748  0.00  0.00    -0.358 N 
ATOM     39  H   UNL     1      11.903   3.692  22.163  0.00  0.00    +0.142 HD
ATOM     40  H   UNL     1      10.350   4.292  22.408  0.00  0.00    +0.142 HD
ENDBRANCH  35  38
ENDBRANCH  29  32
ENDBRANCH  28  29
BRANCH  28  41
ATOM     41  C   UNL     1       8.713  -3.245  26.109  0.00  0.00    +0.112 C 
BRANCH  41  43
ATOM     42  C   UNL     1       9.422  -5.527  25.442  0.00  0.00    +0.008 C 
ATOM     43  C   UNL     1       8.204  -4.652  25.820  0.00  0.00    -0.001 C 
ATOM     44  C   UNL     1       7.537  -5.304  27.018  0.00  0.00    +0.008 C 
ENDBRANCH  41  43
ENDBRANCH  28  41
ENDBRANCH  27  28
ENDBRANCH   1  27
TORSDOF 17
ENDMDL
MODEL 3
REMARK VINA RESULT:      -6.5      2.843      6.417
REMARK  Name = 
REMARK  19 active torsions:
REMARK  status: ('A' for Active; 'I' for Inactive)
REMARK    1  A    between atoms: C_1  and  C_2
REMARK    2  A    between atoms: C_2  and  C_3
REMARK    3  A    between atoms: C_2  and  C_4
REMARK    4  A    between atoms: C_4  and  N_5
REMARK    5  A    between atoms: N_5  and  C_6
REMARK    6  A    between atoms: N_5  and  S_30
REMARK    7  A    between atoms: C_6  and  C_7
REMARK    8  A    between atoms: C_7  and  C_8
REMARK    9  A    between atoms: C_7  and  O_25
REMARK   10  A    between atoms: C_8  and  C_9
REMARK   11  A    between atoms: C_8  and  N_16
REMARK   12  A    between atoms: C_9  and  C_10
REMARK   13  A    between atoms: C_17  and  O_19
REMARK   14  A    between atoms: O_19  and  C_20
REMARK   15  A    between atoms: O_25  and  P_26
REMARK   16  A    between atoms: P_26  and  O_28
REMARK   17  A    between atoms: P_26  and  O_29
REMARK   18  A    between atoms: S_30  and  C_33
REMARK   19  A    between atoms: C_36  and  N_39
REMARK                            x       y       z     vdW  Elec       q    Type
REMARK                         _______ _______ _______ _____ _____    ______ ____
ROOT
ATOM      1  C   UNL     1       8.321  -1.442  25.687  0.00  0.00    +0.166 C 
ENDROOT
BRANCH   1   2
ATOM      2  O   UNL     1       7.265  -0.506  25.393  0.00  0.00    -0.280 OA
BRANCH   2   3
ATOM      3  P   UNL     1       7.486   1.040  25.809  0.00  0.00    +0.473 P 
ATOM      4  O   UNL     1       6.507   2.067  25.369  0.00  0.00    -0.228 OA
BRANCH   3   5
ATOM      5  O   UNL     1       7.521   0.877  27.401  0.00  0.00    -0.303 OA
ATOM      6  H   UNL     1       8.389   0.494  27.637  0.00  0.00    +0.222 HD
ENDBRANCH   3   5
BRANCH   3   7
ATOM      7  O   UNL     1       9.014   1.422  25.612  0.00  0.00    -0.303 OA
ATOM      8  H   UNL     1       9.589   0.652  25.796  0.00  0.00    +0.222 HD
ENDBRANCH   3   7
ENDBRANCH   2   3
ENDBRANCH   1   2
BRANCH   1   9
ATOM      9  C   UNL     1       9.053  -2.057  24.393  0.00  0.00    +0.111 C 
BRANCH   9  10
ATOM     10  N   UNL     1       9.194  -1.062  23.230  0.00  0.00    -0.275 N 
ATOM     11  H   UNL     1       8.580  -1.175  22.435  0.00  0.00    +0.152 HD
ATOM     12  C   UNL     1      10.105  -0.003  23.092  0.00  0.00    +0.401 C 
ATOM     13  O   UNL     1      11.020   0.239  23.859  0.00  0.00    -0.226 OA
BRANCH  12  14
ATOM     14  O   UNL     1       9.816   0.762  21.991  0.00  0.00    -0.445 OA
BRANCH  14  15
ATOM     15  C   UNL     1       8.883   1.899  21.884  0.00  0.00    +0.206 C 
ATOM     16  C   UNL     1       9.064   3.090  22.819  0.00  0.00    +0.204 C 
ATOM     17  O   UNL     1       7.883   3.918  22.684  0.00  0.00    -0.376 OA
ATOM     18  C   UNL     1       6.878   3.166  21.988  0.00  0.00    +0.163 C 
ATOM     19  C   UNL     1       7.368   1.716  21.948  0.00  0.00    +0.075 C 
ENDBRANCH  14  15
ENDBRANCH  12  14
ENDBRANCH   9  10
BRANCH   9  20
ATOM     20  C   UNL     1       8.742  -3.537  23.959  0.00  0.00    +0.060 C 
BRANCH  20  21
ATOM     21  C   UNL     1       7.749  -4.141  22.974  0.00  0.00    -0.046 A 
ATOM     22  C   UNL     1       7.702  -5.567  22.944  0.00  0.00    +0.004 A 
ATOM     23  C   UNL     1       6.851  -6.270  22.084  0.00  0.00    +0.000 A 
ATOM     24  C   UNL     1       6.001  -5.579  21.229  0.00  0.00    +0.000 A 
ATOM     25  C   UNL     1       6.023  -4.178  21.265  0.00  0.00    +0.000 A 
ATOM     26  C   UNL     1       6.879  -3.459  22.136  0.00  0.00    +0.004 A 
ENDBRANCH  20  21
ENDBRANCH   9  20
ENDBRANCH   1   9
BRANCH   1  27
ATOM     27  C   UNL     1       7.802  -2.496  26.750  0.00  0.00    +0.143 C 
BRANCH  27  28
ATOM     28  N   UNL     1       6.335  -2.960  26.694  0.00  0.00    -0.174 NA
BRANCH  28  29
ATOM     29  S   UNL     1       6.182  -4.655  26.874  0.00  0.00    +0.061 S 
ATOM     30  O   UNL     1       5.547  -4.860  28.152  0.00  0.00    -0.153 OA
ATOM     31  O   UNL     1       7.473  -5.251  26.578  0.00  0.00    -0.153 OA
BRANCH  29  32
ATOM     32  C   UNL     1       5.064  -5.249  25.626  0.00  0.00    +0.106 A 
ATOM     33  C   UNL     1       4.932  -6.633  25.468  0.00  0.00    +0.030 A 
ATOM     34  C   UNL     1       4.078  -7.148  24.497  0.00  0.00    +0.024 A 
ATOM     35  C   UNL     1       3.314  -6.289  23.701  0.00  0.00    +0.025 A 
ATOM     36  C   UNL     1       3.534  -4.909  23.791  0.00  0.00    +0.024 A 
ATOM     37  C   UNL     1       4.408  -4.379  24.752  0.00  0.00    +0.030 A 
BRANCH  35  38
ATOM     38  N   UNL     1       2.507  -6.826  22.691  0.00  0.00    -0.358 N 
ATOM     39  H   UNL     1       2.769  -7.769  22.416  0.00  0.00    +0.142 HD
ATOM     40  H   UNL     1       1.513  -6.753  22.885  0.00  0.00    +0.142 HD
ENDBRANCH  35  38
ENDBRANCH  29  32
ENDBRANCH  28  29
BRANCH  28  41
ATOM     41  C   UNL     1       5.470  -1.962  27.398  0.00  0.00    +0.112 C 
BRANCH  41  43
ATOM     42  C   UNL     1       3.006  -2.257  27.421  0.00  0.00    +0.008 C 
ATOM     43  C   UNL     1       4.165  -1.433  26.815  0.00  0.00    -0.001 C 
ATOM     44  C   UNL     1       3.906   0.025  27.156  0.00  0.00    +0.008 C 
ENDBRANCH  41  43
ENDBRANCH  28  41
ENDBRANCH  27  28
ENDBRANCH   1  27
TORSDOF 17
ENDMDL
MODEL 4
REMARK VINA RESULT:      -6.5      2.438      6.727
REMARK  Name = 
REMARK  19 active torsions:
REMARK  status: ('A' for Active; 'I' for Inactive)
REMARK    1  A    between atoms: C_1  and  C_2
REMARK    2  A    between atoms: C_2  and  C_3
REMARK    3  A    between atoms: C_2  and  C_4
REMARK    4  A    between atoms: C_4  and  N_5
REMARK    5  A    between atoms: N_5  and  C_6
REMARK    6  A    between atoms: N_5  and  S_30
REMARK    7  A    between atoms: C_6  and  C_7
REMARK    8  A    between atoms: C_7  and  C_8
REMARK    9  A    between atoms: C_7  and  O_25
REMARK   10  A    between atoms: C_8  and  C_9
REMARK   11  A    between atoms: C_8  and  N_16
REMARK   12  A    between atoms: C_9  and  C_10
REMARK   13  A    between atoms: C_17  and  O_19
REMARK   14  A    between atoms: O_19  and  C_20
REMARK   15  A    between atoms: O_25  and  P_26
REMARK   16  A    between atoms: P_26  and  O_28
REMARK   17  A    between atoms: P_26  and  O_29
REMARK   18  A    between atoms: S_30  and  C_33
REMARK   19  A    between atoms: C_36  and  N_39
REMARK                            x       y       z     vdW  Elec       q    Type
REMARK                         _______ _______ _______ _____ _____    ______ ____
ROOT
ATOM      1  C   UNL     1       7.726  -2.882  25.452  0.00  0.00    +0.166 C 
ENDROOT
BRANCH   1   2
ATOM      2  O   UNL     1       8.988  -3.541  25.677  0.00  0.00    -0.280 OA
BRANCH   2   3
ATOM      3  P   UNL     1       9.067  -5.134  25.414  0.00  0.00    +0.473 P 
ATOM      4  O   UNL     1       8.850  -5.665  24.044  0.00  0.00    -0.228 OA
BRANCH   3   5
ATOM      5  O   UNL     1      10.552  -5.409  25.943  0.00  0.00    -0.303 OA
ATOM      6  H   UNL     1      10.825  -6.285  25.607  0.00  0.00    +0.222 HD
ENDBRANCH   3   5
BRANCH   3   7
ATOM      7  O   UNL     1       8.296  -5.895  26.573  0.00  0.00    -0.303 OA
ATOM      8  H   UNL     1       8.824  -5.897  27.398  0.00  0.00    +0.222 HD
ENDBRANCH   3   7
ENDBRANCH   2   3
ENDBRANCH   1   2
BRANCH   1   9
ATOM      9  C   UNL     1       7.349  -2.666  23.903  0.00  0.00    +0.111 C 
BRANCH   9  10
ATOM     10  N   UNL     1       6.610  -3.857  23.274  0.00  0.00    -0.275 N 
ATOM     11  H   UNL     1       6.831  -4.783  23.614  0.00  0.00    +0.152 HD
ATOM     12  C   UNL     1       5.664  -3.850  22.237  0.00  0.00    +0.401 C 
ATOM     13  O   UNL     1       5.344  -2.870  21.588  0.00  0.00    -0.226 OA
BRANCH  12  14
ATOM     14  O   UNL     1       5.108  -5.091  22.061  0.00  0.00    -0.445 OA
BRANCH  14  15
ATOM     15  C   UNL     1       4.170  -5.809  22.945  0.00  0.00    +0.206 C 
ATOM     16  C   UNL     1       3.095  -5.014  23.679  0.00  0.00    +0.204 C 
ATOM     17  O   UNL     1       2.504  -5.904  24.656  0.00  0.00    -0.376 OA
ATOM     18  C   UNL     1       3.343  -7.062  24.784  0.00  0.00    +0.163 C 
ATOM     19  C   UNL     1       4.652  -6.732  24.062  0.00  0.00    +0.075 C 
ENDBRANCH  14  15
ENDBRANCH  12  14
ENDBRANCH   9  10
BRANCH   9  20
ATOM     20  C   UNL     1       8.375  -1.949  22.949  0.00  0.00    +0.060 C 
BRANCH  20  21
ATOM     21  C   UNL     1       9.153  -0.644  23.057  0.00  0.00    -0.046 A 
ATOM     22  C   UNL     1       9.194   0.148  21.871  0.00  0.00    +0.004 A 
ATOM     23  C   UNL     1       9.878   1.367  21.807  0.00  0.00    +0.000 A 
ATOM     24  C   UNL     1      10.538   1.853  22.929  0.00  0.00    +0.000 A 
ATOM     25  C   UNL     1      10.486   1.094  24.106  0.00  0.00    +0.000 A 
ATOM     26  C   UNL     1       9.792  -0.139  24.180  0.00  0.00    +0.004 A 
ENDBRANCH  20  21
ENDBRANCH   9  20
ENDBRANCH   1   9
BRANCH   1  27
ATOM     27  C   UNL     1       7.642  -1.591  26.368  0.00  0.00    +0.143 C 
BRANCH  27  28
ATOM     28  N   UNL     1       6.319  -1.267  27.087  0.00  0.00    -0.174 NA
BRANCH  28  29
ATOM     29  S   UNL     1       6.160   0.401  27.435  0.00  0.00    +0.061 S 
ATOM     30  O   UNL     1       7.220   0.714  28.361  0.00  0.00    -0.153 OA
ATOM     31  O   UNL     1       4.771   0.653  27.776  0.00  0.00    -0.153 OA
BRANCH  29  32
ATOM     32  C   UNL     1       6.477   1.313  25.942  0.00  0.00    +0.106 A 
ATOM     33  C   UNL     1       7.335   2.415  26.015  0.00  0.00    +0.030 A 
ATOM     34  C   UNL     1       7.606   3.168  24.876  0.00  0.00    +0.024 A 
ATOM     35  C   UNL     1       7.057   2.806  23.643  0.00  0.00    +0.025 A 
ATOM     36  C   UNL     1       6.114   1.772  23.600  0.00  0.00    +0.024 A 
ATOM     37  C   UNL     1       5.818   1.018  24.746  0.00  0.00    +0.030 A 
BRANCH  35  38
ATOM     38  N   UNL     1       7.294   3.612  22.524  0.00  0.00    -0.358 N 
ATOM     39  H   UNL     1       6.894   4.544  22.598  0.00  0.00    +0.142 HD
ATOM     40  H   UNL     1       8.270   3.643  22.246  0.00  0.00    +0.142 HD
ENDBRANCH  35  38
ENDBRANCH  29  32
ENDBRANCH  28  29
BRANCH  28  41
ATOM     41  C   UNL     1       5.222  -2.111  26.517  0.00  0.00    +0.112 C 
BRANCH  41  43
ATOM     42  C   UNL     1       2.945  -3.016  26.908  0.00  0.00    +0.008 C 
ATOM     43  C   UNL     1       4.425  -3.112  27.345  0.00  0.00    -0.001 C 
ATOM     44  C   UNL     1       4.865  -4.550  27.130  0.00  0.00    +0.008 C 
ENDBRANCH  41  43
ENDBRANCH  28  41
ENDBRANCH  27  28
ENDBRANCH   1  27
TORSDOF 17
ENDMDL
MODEL 5
REMARK VINA RESULT:      -6.3      2.259      5.728
REMARK  Name = 
REMARK  19 active torsions:
REMARK  status: ('A' for Active; 'I' for Inactive)
REMARK    1  A    between atoms: C_1  and  C_2
REMARK    2  A    between atoms: C_2  and  C_3
REMARK    3  A    between atoms: C_2  and  C_4
REMARK    4  A    between atoms: C_4  and  N_5
REMARK    5  A    between atoms: N_5  and  C_6
REMARK    6  A    between atoms: N_5  and  S_30
REMARK    7  A    between atoms: C_6  and  C_7
REMARK    8  A    between atoms: C_7  and  C_8
REMARK    9  A    between atoms: C_7  and  O_25
REMARK   10  A    between atoms: C_8  and  C_9
REMARK   11  A    between atoms: C_8  and  N_16
REMARK   12  A    between atoms: C_9  and  C_10
REMARK   13  A    between atoms: C_17  and  O_19
REMARK   14  A    between atoms: O_19  and  C_20
REMARK   15  A    between atoms: O_25  and  P_26
REMARK   16  A    between atoms: P_26  and  O_28
REMARK   17  A    between atoms: P_26  and  O_29
REMARK   18  A    between atoms: S_30  and  C_33
REMARK   19  A    between atoms: C_36  and  N_39
REMARK                            x       y       z     vdW  Elec       q    Type
REMARK                         _______ _______ _______ _____ _____    ______ ____
ROOT
ATOM      1  C   UNL     1       6.875  -3.843  26.621  0.00  0.00    +0.166 C 
ENDROOT
BRANCH   1   2
ATOM      2  O   UNL     1       6.963  -4.721  27.760  0.00  0.00    -0.280 OA
BRANCH   2   3
ATOM      3  P   UNL     1       5.920  -5.953  27.849  0.00  0.00    +0.473 P 
ATOM      4  O   UNL     1       5.557  -6.700  26.617  0.00  0.00    -0.228 OA
BRANCH   3   5
ATOM      5  O   UNL     1       6.694  -6.870  28.909  0.00  0.00    -0.303 OA
ATOM      6  H   UNL     1       6.043  -7.154  29.580  0.00  0.00    +0.222 HD
ENDBRANCH   3   5
BRANCH   3   7
ATOM      7  O   UNL     1       4.705  -5.544  28.785  0.00  0.00    -0.303 OA
ATOM      8  H   UNL     1       5.021  -5.033  29.558  0.00  0.00    +0.222 HD
ENDBRANCH   3   7
ENDBRANCH   2   3
ENDBRANCH   1   2
BRANCH   1   9
ATOM      9  C   UNL     1       8.183  -3.825  25.685  0.00  0.00    +0.111 C 
BRANCH   9  10
ATOM     10  N   UNL     1       8.756  -2.419  25.448  0.00  0.00    -0.275 N 
ATOM     11  H   UNL     1       8.377  -1.657  25.995  0.00  0.00    +0.152 HD
ATOM     12  C   UNL     1       9.739  -2.018  24.530  0.00  0.00    +0.401 C 
ATOM     13  O   UNL     1      10.238  -2.736  23.682  0.00  0.00    -0.226 OA
BRANCH  12  14
ATOM     14  O   UNL     1      10.103  -0.711  24.728  0.00  0.00    -0.445 OA
BRANCH  14  15
ATOM     15  C   UNL     1      10.355   0.333  23.717  0.00  0.00    +0.206 C 
ATOM     16  C   UNL     1      10.390   1.792  24.158  0.00  0.00    +0.204 C 
ATOM     17  O   UNL     1      10.387   2.598  22.955  0.00  0.00    -0.376 OA
ATOM     18  C   UNL     1      10.039   1.757  21.845  0.00  0.00    +0.163 C 
ATOM     19  C   UNL     1       9.527   0.442  22.439  0.00  0.00    +0.075 C 
ENDBRANCH  14  15
ENDBRANCH  12  14
ENDBRANCH   9  10
BRANCH   9  20
ATOM     20  C   UNL     1       8.255  -4.783  24.438  0.00  0.00    +0.060 C 
BRANCH  20  21
ATOM     21  C   UNL     1       7.484  -4.836  23.126  0.00  0.00    -0.046 A 
ATOM     22  C   UNL     1       7.151  -6.143  22.659  0.00  0.00    +0.004 A 
ATOM     23  C   UNL     1       6.456  -6.358  21.464  0.00  0.00    +0.000 A 
ATOM     24  C   UNL     1       6.050  -5.276  20.692  0.00  0.00    +0.000 A 
ATOM     25  C   UNL     1       6.352  -3.986  21.152  0.00  0.00    +0.000 A 
ATOM     26  C   UNL     1       7.052  -3.761  22.363  0.00  0.00    +0.004 A 
ENDBRANCH  20  21
ENDBRANCH   9  20
ENDBRANCH   1   9
BRANCH   1  27
ATOM     27  C   UNL     1       6.347  -2.426  27.094  0.00  0.00    +0.143 C 
BRANCH  27  28
ATOM     28  N   UNL     1       5.200  -1.754  26.315  0.00  0.00    -0.174 NA
BRANCH  28  29
ATOM     29  S   UNL     1       3.670  -2.401  26.724  0.00  0.00    +0.061 S 
ATOM     30  O   UNL     1       2.706  -1.387  26.373  0.00  0.00    -0.153 OA
ATOM     31  O   UNL     1       3.753  -2.915  28.080  0.00  0.00    -0.153 OA
BRANCH  29  32
ATOM     32  C   UNL     1       3.363  -3.807  25.679  0.00  0.00    +0.106 A 
ATOM     33  C   UNL     1       3.919  -3.804  24.396  0.00  0.00    +0.030 A 
ATOM     34  C   UNL     1       3.699  -4.877  23.536  0.00  0.00    +0.024 A 
ATOM     35  C   UNL     1       2.956  -5.981  23.961  0.00  0.00    +0.025 A 
ATOM     36  C   UNL     1       2.313  -5.927  25.204  0.00  0.00    +0.024 A 
ATOM     37  C   UNL     1       2.511  -4.842  26.071  0.00  0.00    +0.030 A 
BRANCH  35  38
ATOM     38  N   UNL     1       2.696  -7.021  23.060  0.00  0.00    -0.358 N 
ATOM     39  H   UNL     1       1.996  -6.790  22.360  0.00  0.00    +0.142 HD
ATOM     40  H   UNL     1       3.534  -7.412  22.641  0.00  0.00    +0.142 HD
ENDBRANCH  35  38
ENDBRANCH  29  32
ENDBRANCH  28  29
BRANCH  28  41
ATOM     41  C   UNL     1       5.481  -0.289  26.183  0.00  0.00    +0.112 C 
BRANCH  41  43
ATOM     42  C   UNL     1       6.833   1.477  25.082  0.00  0.00    +0.008 C 
ATOM     43  C   UNL     1       5.762   0.387  24.846  0.00  0.00    -0.001 C 
ATOM     44  C   UNL     1       6.314  -0.566  23.799  0.00  0.00    +0.008 C 
ENDBRANCH  41  43
ENDBRANCH  28  41
ENDBRANCH  27  28
ENDBRANCH   1  27
TORSDOF 17
ENDMDL
MODEL 6
REMARK VINA RESULT:      -6.3      2.786      4.833
REMARK  Name = 
REMARK  19 active torsions:
REMARK  status: ('A' for Active; 'I' for Inactive)
REMARK    1  A    between atoms: C_1  and  C_2
REMARK    2  A    between atoms: C_2  and  C_3
REMARK    3  A    between atoms: C_2  and  C_4
REMARK    4  A    between atoms: C_4  and  N_5
REMARK    5  A    between atoms: N_5  and  C_6
REMARK    6  A    between atoms: N_5  and  S_30
REMARK    7  A    between atoms: C_6  and  C_7
REMARK    8  A    between atoms: C_7  and  C_8
REMARK    9  A    between atoms: C_7  and  O_25
REMARK   10  A    between atoms: C_8  and  C_9
REMARK   11  A    between atoms: C_8  and  N_16
REMARK   12  A    between atoms: C_9  and  C_10
REMARK   13  A    between atoms: C_17  and  O_19
REMARK   14  A    between atoms: O_19  and  C_20
REMARK   15  A    between atoms: O_25  and  P_26
REMARK   16  A    between atoms: P_26  and  O_28
REMARK   17  A    between atoms: P_26  and  O_29
REMARK   18  A    between atoms: S_30  and  C_33
REMARK   19  A    between atoms: C_36  and  N_39
REMARK                            x       y       z     vdW  Elec       q    Type
REMARK                         _______ _______ _______ _____ _____    ______ ____
ROOT
ATOM      1  C   UNL     1       5.611  -2.533  25.677  0.00  0.00    +0.166 C 
ENDROOT
BRANCH   1   2
ATOM      2  O   UNL     1       4.419  -2.801  24.913  0.00  0.00    -0.280 OA
BRANCH   2   3
ATOM      3  P   UNL     1       3.136  -3.397  25.696  0.00  0.00    +0.473 P 
ATOM      4  O   UNL     1       2.770  -4.826  25.527  0.00  0.00    -0.228 OA
BRANCH   3   5
ATOM      5  O   UNL     1       3.568  -3.054  27.198  0.00  0.00    -0.303 OA
ATOM      6  H   UNL     1       4.500  -3.328  27.304  0.00  0.00    +0.222 HD
ENDBRANCH   3   5
BRANCH   3   7
ATOM      7  O   UNL     1       1.935  -2.365  25.592  0.00  0.00    -0.303 OA
ATOM      8  H   UNL     1       2.027  -1.657  26.261  0.00  0.00    +0.222 HD
ENDBRANCH   3   7
ENDBRANCH   2   3
ENDBRANCH   1   2
BRANCH   1   9
ATOM      9  C   UNL     1       6.125  -1.011  25.610  0.00  0.00    +0.111 C 
BRANCH   9  10
ATOM     10  N   UNL     1       5.782  -0.186  26.861  0.00  0.00    -0.275 N 
ATOM     11  H   UNL     1       6.530   0.024  27.507  0.00  0.00    +0.152 HD
ATOM     12  C   UNL     1       4.532   0.308  27.267  0.00  0.00    +0.401 C 
ATOM     13  O   UNL     1       3.472   0.066  26.718  0.00  0.00    -0.226 OA
BRANCH  12  14
ATOM     14  O   UNL     1       4.653   1.136  28.353  0.00  0.00    -0.445 OA
BRANCH  14  15
ATOM     15  C   UNL     1       5.530   2.311  28.516  0.00  0.00    +0.206 C 
ATOM     16  C   UNL     1       6.907   2.122  29.143  0.00  0.00    +0.204 C 
ATOM     17  O   UNL     1       7.431   3.443  29.421  0.00  0.00    -0.376 OA
ATOM     18  C   UNL     1       6.360   4.392  29.302  0.00  0.00    +0.163 C 
ATOM     19  C   UNL     1       5.065   3.579  29.229  0.00  0.00    +0.075 C 
ENDBRANCH  14  15
ENDBRANCH  12  14
ENDBRANCH   9  10
BRANCH   9  20
ATOM     20  C   UNL     1       6.026  -0.220  24.253  0.00  0.00    +0.060 C 
BRANCH  20  21
ATOM     21  C   UNL     1       6.498   1.163  23.823  0.00  0.00    -0.046 A 
ATOM     22  C   UNL     1       7.149   1.933  24.833  0.00  0.00    +0.004 A 
ATOM     23  C   UNL     1       7.628   3.226  24.597  0.00  0.00    +0.000 A 
ATOM     24  C   UNL     1       7.492   3.799  23.338  0.00  0.00    +0.000 A 
ATOM     25  C   UNL     1       6.873   3.043  22.332  0.00  0.00    +0.000 A 
ATOM     26  C   UNL     1       6.389   1.732  22.563  0.00  0.00    +0.004 A 
ENDBRANCH  20  21
ENDBRANCH   9  20
ENDBRANCH   1   9
BRANCH   1  27
ATOM     27  C   UNL     1       6.697  -3.641  25.353  0.00  0.00    +0.143 C 
BRANCH  27  28
ATOM     28  N   UNL     1       7.637  -3.441  24.149  0.00  0.00    -0.174 NA
BRANCH  28  29
ATOM     29  S   UNL     1       9.170  -2.840  24.614  0.00  0.00    +0.061 S 
ATOM     30  O   UNL     1      10.128  -3.835  24.198  0.00  0.00    -0.153 OA
ATOM     31  O   UNL     1       9.082  -2.425  26.003  0.00  0.00    -0.153 OA
BRANCH  29  32
ATOM     32  C   UNL     1       9.498  -1.366  23.676  0.00  0.00    +0.106 A 
ATOM     33  C   UNL     1      10.090  -0.285  24.338  0.00  0.00    +0.030 A 
ATOM     34  C   UNL     1      10.357   0.895  23.650  0.00  0.00    +0.024 A 
ATOM     35  C   UNL     1      10.074   0.996  22.285  0.00  0.00    +0.025 A 
ATOM     36  C   UNL     1       9.382  -0.047  21.659  0.00  0.00    +0.024 A 
ATOM     37  C   UNL     1       9.090  -1.234  22.347  0.00  0.00    +0.030 A 
BRANCH  35  38
ATOM     38  N   UNL     1      10.294   2.212  21.628  0.00  0.00    -0.358 N 
ATOM     39  H   UNL     1      11.180   2.651  21.863  0.00  0.00    +0.142 HD
ATOM     40  H   UNL     1      10.155   2.161  20.623  0.00  0.00    +0.142 HD
ENDBRANCH  35  38
ENDBRANCH  29  32
ENDBRANCH  28  29
BRANCH  28  41
ATOM     41  C   UNL     1       7.437  -4.558  23.172  0.00  0.00    +0.112 C 
BRANCH  41  43
ATOM     42  C   UNL     1       5.839  -3.324  21.728  0.00  0.00    +0.008 C 
ATOM     43  C   UNL     1       6.177  -4.709  22.328  0.00  0.00    -0.001 C 
ATOM     44  C   UNL     1       6.348  -5.673  21.166  0.00  0.00    +0.008 C 
ENDBRANCH  41  43
ENDBRANCH  28  41
ENDBRANCH  27  28
ENDBRANCH   1  27
TORSDOF 17
ENDMDL
MODEL 7
REMARK VINA RESULT:      -6.2      3.060      6.149
REMARK  Name = 
REMARK  19 active torsions:
REMARK  status: ('A' for Active; 'I' for Inactive)
REMARK    1  A    between atoms: C_1  and  C_2
REMARK    2  A    between atoms: C_2  and  C_3
REMARK    3  A    between atoms: C_2  and  C_4
REMARK    4  A    between atoms: C_4  and  N_5
REMARK    5  A    between atoms: N_5  and  C_6
REMARK    6  A    between atoms: N_5  and  S_30
REMARK    7  A    between atoms: C_6  and  C_7
REMARK    8  A    between atoms: C_7  and  C_8
REMARK    9  A    between atoms: C_7  and  O_25
REMARK   10  A    between atoms: C_8  and  C_9
REMARK   11  A    between atoms: C_8  and  N_16
REMARK   12  A    between atoms: C_9  and  C_10
REMARK   13  A    between atoms: C_17  and  O_19
REMARK   14  A    between atoms: O_19  and  C_20
REMARK   15  A    between atoms: O_25  and  P_26
REMARK   16  A    between atoms: P_26  and  O_28
REMARK   17  A    between atoms: P_26  and  O_29
REMARK   18  A    between atoms: S_30  and  C_33
REMARK   19  A    between atoms: C_36  and  N_39
REMARK                            x       y       z     vdW  Elec       q    Type
REMARK                         _______ _______ _______ _____ _____    ______ ____
ROOT
ATOM      1  C   UNL     1       6.812  -4.950  24.422  0.00  0.00    +0.166 C 
ENDROOT
BRANCH   1   2
ATOM      2  O   UNL     1       6.129  -4.371  23.293  0.00  0.00    -0.280 OA
BRANCH   2   3
ATOM      3  P   UNL     1       6.264  -5.113  21.863  0.00  0.00    +0.473 P 
ATOM      4  O   UNL     1       7.472  -5.925  21.567  0.00  0.00    -0.228 OA
BRANCH   3   5
ATOM      5  O   UNL     1       4.932  -5.999  21.906  0.00  0.00    -0.303 OA
ATOM      6  H   UNL     1       4.429  -5.734  22.700  0.00  0.00    +0.222 HD
ENDBRANCH   3   5
BRANCH   3   7
ATOM      7  O   UNL     1       5.808  -4.119  20.713  0.00  0.00    -0.303 OA
ATOM      8  H   UNL     1       6.561  -3.572  20.410  0.00  0.00    +0.222 HD
ENDBRANCH   3   7
ENDBRANCH   2   3
ENDBRANCH   1   2
BRANCH   1   9
ATOM      9  C   UNL     1       5.862  -5.746  25.446  0.00  0.00    +0.111 C 
BRANCH   9  10
ATOM     10  N   UNL     1       4.735  -6.535  24.760  0.00  0.00    -0.275 N 
ATOM     11  H   UNL     1       4.704  -6.532  23.750  0.00  0.00    +0.152 HD
ATOM     12  C   UNL     1       3.688  -7.258  25.353  0.00  0.00    +0.401 C 
ATOM     13  O   UNL     1       3.448  -7.291  26.547  0.00  0.00    -0.226 OA
BRANCH  12  14
ATOM     14  O   UNL     1       2.976  -7.962  24.416  0.00  0.00    -0.445 OA
BRANCH  14  15
ATOM     15  C   UNL     1       1.813  -7.517  23.624  0.00  0.00    +0.206 C 
ATOM     16  C   UNL     1       1.426  -8.306  22.378  0.00  0.00    +0.204 C 
ATOM     17  O   UNL     1       0.444  -7.515  21.665  0.00  0.00    -0.376 OA
ATOM     18  C   UNL     1       0.445  -6.188  22.212  0.00  0.00    +0.163 C 
ATOM     19  C   UNL     1       1.682  -6.086  23.108  0.00  0.00    +0.075 C 
ENDBRANCH  14  15
ENDBRANCH  12  14
ENDBRANCH   9  10
BRANCH   9  20
ATOM     20  C   UNL     1       5.457  -5.072  26.810  0.00  0.00    +0.060 C 
BRANCH  20  21
ATOM     21  C   UNL     1       4.532  -3.914  27.158  0.00  0.00    -0.046 A 
ATOM     22  C   UNL     1       3.593  -3.550  26.147  0.00  0.00    +0.004 A 
ATOM     23  C   UNL     1       2.684  -2.499  26.311  0.00  0.00    +0.000 A 
ATOM     24  C   UNL     1       2.664  -1.777  27.498  0.00  0.00    +0.000 A 
ATOM     25  C   UNL     1       3.566  -2.140  28.507  0.00  0.00    +0.000 A 
ATOM     26  C   UNL     1       4.487  -3.205  28.350  0.00  0.00    +0.004 A 
ENDBRANCH  20  21
ENDBRANCH   9  20
ENDBRANCH   1   9
BRANCH   1  27
ATOM     27  C   UNL     1       7.763  -3.861  25.070  0.00  0.00    +0.143 C 
BRANCH  27  28
ATOM     28  N   UNL     1       7.778  -2.434  24.488  0.00  0.00    -0.174 NA
BRANCH  28  29
ATOM     29  S   UNL     1       8.983  -2.233  23.290  0.00  0.00    +0.061 S 
ATOM     30  O   UNL     1       8.331  -2.486  22.029  0.00  0.00    -0.153 OA
ATOM     31  O   UNL     1      10.145  -3.003  23.697  0.00  0.00    -0.153 OA
BRANCH  29  32
ATOM     32  C   UNL     1       9.490  -0.529  23.291  0.00  0.00    +0.106 A 
ATOM     33  C   UNL     1       9.550   0.138  22.064  0.00  0.00    +0.030 A 
ATOM     34  C   UNL     1       9.953   1.470  22.010  0.00  0.00    +0.024 A 
ATOM     35  C   UNL     1      10.260   2.162  23.185  0.00  0.00    +0.025 A 
ATOM     36  C   UNL     1      10.303   1.457  24.394  0.00  0.00    +0.024 A 
ATOM     37  C   UNL     1       9.920   0.109  24.457  0.00  0.00    +0.030 A 
BRANCH  35  38
ATOM     38  N   UNL     1      10.720   3.481  23.103  0.00  0.00    -0.358 N 
ATOM     39  H   UNL     1      11.371   3.641  22.339  0.00  0.00    +0.142 HD
ATOM     40  H   UNL     1       9.975   4.172  23.113  0.00  0.00    +0.142 HD
ENDBRANCH  35  38
ENDBRANCH  29  32
ENDBRANCH  28  29
BRANCH  28  41
ATOM     41  C   UNL     1       6.372  -1.938  24.353  0.00  0.00    +0.112 C 
BRANCH  41  43
ATOM     42  C   UNL     1       6.530  -0.670  26.480  0.00  0.00    +0.008 C 
ATOM     43  C   UNL     1       5.846  -0.715  25.094  0.00  0.00    -0.001 C 
ATOM     44  C   UNL     1       6.167   0.593  24.392  0.00  0.00    +0.008 C 
ENDBRANCH  41  43
ENDBRANCH  28  41
ENDBRANCH  27  28
ENDBRANCH   1  27
TORSDOF 17
ENDMDL
MODEL 8
REMARK VINA RESULT:      -6.2      3.375      7.643
REMARK  Name = 
REMARK  19 active torsions:
REMARK  status: ('A' for Active; 'I' for Inactive)
REMARK    1  A    between atoms: C_1  and  C_2
REMARK    2  A    between atoms: C_2  and  C_3
REMARK    3  A    between atoms: C_2  and  C_4
REMARK    4  A    between atoms: C_4  and  N_5
REMARK    5  A    between atoms: N_5  and  C_6
REMARK    6  A    between atoms: N_5  and  S_30
REMARK    7  A    between atoms: C_6  and  C_7
REMARK    8  A    between atoms: C_7  and  C_8
REMARK    9  A    between atoms: C_7  and  O_25
REMARK   10  A    between atoms: C_8  and  C_9
REMARK   11  A    between atoms: C_8  and  N_16
REMARK   12  A    between atoms: C_9  and  C_10
REMARK   13  A    between atoms: C_17  and  O_19
REMARK   14  A    between atoms: O_19  and  C_20
REMARK   15  A    between atoms: O_25  and  P_26
REMARK   16  A    between atoms: P_26  and  O_28
REMARK   17  A    between atoms: P_26  and  O_29
REMARK   18  A    between atoms: S_30  and  C_33
REMARK   19  A    between atoms: C_36  and  N_39
REMARK                            x       y       z     vdW  Elec       q    Type
REMARK                         _______ _______ _______ _____ _____    ______ ____
ROOT
ATOM      1  C   UNL     1       9.063   0.100  24.471  0.00  0.00    +0.166 C 
ENDROOT
BRANCH   1   2
ATOM      2  O   UNL     1       9.977  -0.278  23.423  0.00  0.00    -0.280 OA
BRANCH   2   3
ATOM      3  P   UNL     1       9.353  -0.759  22.011  0.00  0.00    +0.473 P 
ATOM      4  O   UNL     1       9.163   0.228  20.917  0.00  0.00    -0.228 OA
BRANCH   3   5
ATOM      5  O   UNL     1      10.417  -1.892  21.630  0.00  0.00    -0.303 OA
ATOM      6  H   UNL     1      10.430  -2.539  22.362  0.00  0.00    +0.222 HD
ENDBRANCH   3   5
BRANCH   3   7
ATOM      7  O   UNL     1       8.122  -1.723  22.284  0.00  0.00    -0.303 OA
ATOM      8  H   UNL     1       8.200  -2.144  23.165  0.00  0.00    +0.222 HD
ENDBRANCH   3   7
ENDBRANCH   2   3
ENDBRANCH   1   2
BRANCH   1   9
ATOM      9  C   UNL     1       9.222   1.614  24.987  0.00  0.00    +0.111 C 
BRANCH   9  10
ATOM     10  N   UNL     1       8.114   2.059  25.955  0.00  0.00    -0.275 N 
ATOM     11  H   UNL     1       8.387   2.345  26.886  0.00  0.00    +0.152 HD
ATOM     12  C   UNL     1       6.727   2.096  25.739  0.00  0.00    +0.401 C 
ATOM     13  O   UNL     1       6.163   1.675  24.745  0.00  0.00    -0.226 OA
BRANCH  12  14
ATOM     14  O   UNL     1       6.077   2.705  26.781  0.00  0.00    -0.445 OA
BRANCH  14  15
ATOM     15  C   UNL     1       5.149   2.105  27.758  0.00  0.00    +0.206 C 
ATOM     16  C   UNL     1       5.690   1.091  28.761  0.00  0.00    +0.204 C 
ATOM     17  O   UNL     1       4.545   0.480  29.404  0.00  0.00    -0.376 OA
ATOM     18  C   UNL     1       3.368   0.816  28.652  0.00  0.00    +0.163 C 
ATOM     19  C   UNL     1       3.853   1.421  27.332  0.00  0.00    +0.075 C 
ENDBRANCH  14  15
ENDBRANCH  12  14
ENDBRANCH   9  10
BRANCH   9  20
ATOM     20  C   UNL     1       9.705   2.727  23.984  0.00  0.00    +0.060 C 
BRANCH  20  21
ATOM     21  C   UNL     1       9.119   4.070  23.566  0.00  0.00    -0.046 A 
ATOM     22  C   UNL     1       7.930   4.005  22.780  0.00  0.00    +0.004 A 
ATOM     23  C   UNL     1       7.279   5.151  22.309  0.00  0.00    +0.000 A 
ATOM     24  C   UNL     1       7.781   6.410  22.616  0.00  0.00    +0.000 A 
ATOM     25  C   UNL     1       8.936   6.486  23.405  0.00  0.00    +0.000 A 
ATOM     26  C   UNL     1       9.598   5.331  23.889  0.00  0.00    +0.004 A 
ENDBRANCH  20  21
ENDBRANCH   9  20
ENDBRANCH   1   9
BRANCH   1  27
ATOM     27  C   UNL     1       9.071  -1.016  25.597  0.00  0.00    +0.143 C 
BRANCH  27  28
ATOM     28  N   UNL     1       7.961  -2.084  25.603  0.00  0.00    -0.174 NA
BRANCH  28  29
ATOM     29  S   UNL     1       8.577  -3.662  25.356  0.00  0.00    +0.061 S 
ATOM     30  O   UNL     1       9.065  -4.101  26.640  0.00  0.00    -0.153 OA
ATOM     31  O   UNL     1       9.453  -3.620  24.199  0.00  0.00    -0.153 OA
BRANCH  29  32
ATOM     32  C   UNL     1       7.222  -4.725  24.913  0.00  0.00    +0.106 A 
ATOM     33  C   UNL     1       6.897  -4.844  23.558  0.00  0.00    +0.030 A 
ATOM     34  C   UNL     1       5.838  -5.655  23.161  0.00  0.00    +0.024 A 
ATOM     35  C   UNL     1       5.117  -6.388  24.108  0.00  0.00    +0.025 A 
ATOM     36  C   UNL     1       5.377  -6.178  25.467  0.00  0.00    +0.024 A 
ATOM     37  C   UNL     1       6.429  -5.346  25.880  0.00  0.00    +0.030 A 
BRANCH  35  38
ATOM     38  N   UNL     1       4.018  -7.150  23.693  0.00  0.00    -0.358 N 
ATOM     39  H   UNL     1       4.271  -7.979  23.162  0.00  0.00    +0.142 HD
ATOM     40  H   UNL     1       3.369  -7.367  24.444  0.00  0.00    +0.142 HD
ENDBRANCH  35  38
ENDBRANCH  29  32
ENDBRANCH  28  29
BRANCH  28  41
ATOM     41  C   UNL     1       6.943  -1.737  26.644  0.00  0.00    +0.112 C 
BRANCH  41  43
ATOM     42  C   UNL     1       5.267  -1.780  24.814  0.00  0.00    +0.008 C 
ATOM     43  C   UNL     1       5.467  -1.526  26.326  0.00  0.00    -0.001 C 
ATOM     44  C   UNL     1       4.553  -2.486  27.068  0.00  0.00    +0.008 C 
ENDBRANCH  41  43
ENDBRANCH  28  41
ENDBRANCH  27  28
ENDBRANCH   1  27
TORSDOF 17
ENDMDL
MODEL 9
REMARK VINA RESULT:      -6.2      2.567      6.797
REMARK  Name = 
REMARK  19 active torsions:
REMARK  status: ('A' for Active; 'I' for Inactive)
REMARK    1  A    between atoms: C_1  and  C_2
REMARK    2  A    between atoms: C_2  and  C_3
REMARK    3  A    between atoms: C_2  and  C_4
REMARK    4  A    between atoms: C_4  and  N_5
REMARK    5  A    between atoms: N_5  and  C_6
REMARK    6  A    between atoms: N_5  and  S_30
REMARK    7  A    between atoms: C_6  and  C_7
REMARK    8  A    between atoms: C_7  and  C_8
REMARK    9  A    between atoms: C_7  and  O_25
REMARK   10  A    between atoms: C_8  and  C_9
REMARK   11  A    between atoms: C_8  and  N_16
REMARK   12  A    between atoms: C_9  and  C_10
REMARK   13  A    between atoms: C_17  and  O_19
REMARK   14  A    between atoms: O_19  and  C_20
REMARK   15  A    between atoms: O_25  and  P_26
REMARK   16  A    between atoms: P_26  and  O_28
REMARK   17  A    between atoms: P_26  and  O_29
REMARK   18  A    between atoms: S_30  and  C_33
REMARK   19  A    between atoms: C_36  and  N_39
REMARK                            x       y       z     vdW  Elec       q    Type
REMARK                         _______ _______ _______ _____ _____    ______ ____
ROOT
ATOM      1  C   UNL     1       7.732  -0.194  26.278  0.00  0.00    +0.166 C 
ENDROOT
BRANCH   1   2
ATOM      2  O   UNL     1       7.991  -0.155  27.695  0.00  0.00    -0.280 OA
BRANCH   2   3
ATOM      3  P   UNL     1       7.255   0.989  28.568  0.00  0.00    +0.473 P 
ATOM      4  O   UNL     1       5.862   0.774  29.038  0.00  0.00    -0.228 OA
BRANCH   3   5
ATOM      5  O   UNL     1       8.294   1.098  29.780  0.00  0.00    -0.303 OA
ATOM      6  H   UNL     1       7.776   1.176  30.605  0.00  0.00    +0.222 HD
ENDBRANCH   3   5
BRANCH   3   7
ATOM      7  O   UNL     1       7.548   2.409  27.923  0.00  0.00    -0.303 OA
ATOM      8  H   UNL     1       8.258   2.872  28.413  0.00  0.00    +0.222 HD
ENDBRANCH   3   7
ENDBRANCH   2   3
ENDBRANCH   1   2
BRANCH   1   9
ATOM      9  C   UNL     1       6.173  -0.192  25.879  0.00  0.00    +0.111 C 
BRANCH   9  10
ATOM     10  N   UNL     1       5.503  -1.570  25.995  0.00  0.00    -0.275 N 
ATOM     11  H   UNL     1       6.051  -2.384  25.749  0.00  0.00    +0.152 HD
ATOM     12  C   UNL     1       4.186  -1.873  26.373  0.00  0.00    +0.401 C 
ATOM     13  O   UNL     1       3.312  -1.051  26.583  0.00  0.00    -0.226 OA
BRANCH  12  14
ATOM     14  O   UNL     1       4.007  -3.225  26.515  0.00  0.00    -0.445 OA
BRANCH  14  15
ATOM     15  C   UNL     1       5.026  -4.265  26.744  0.00  0.00    +0.206 C 
ATOM     16  C   UNL     1       4.670  -5.721  26.463  0.00  0.00    +0.204 C 
ATOM     17  O   UNL     1       5.735  -6.532  27.015  0.00  0.00    -0.376 OA
ATOM     18  C   UNL     1       6.538  -5.706  27.873  0.00  0.00    +0.163 C 
ATOM     19  C   UNL     1       5.759  -4.404  28.077  0.00  0.00    +0.075 C 
ENDBRANCH  14  15
ENDBRANCH  12  14
ENDBRANCH   9  10
BRANCH   9  20
ATOM     20  C   UNL     1       5.688   0.676  24.660  0.00  0.00    +0.060 C 
BRANCH  20  21
ATOM     21  C   UNL     1       6.130   2.025  24.107  0.00  0.00    -0.046 A 
ATOM     22  C   UNL     1       6.277   2.090  22.689  0.00  0.00    +0.004 A 
ATOM     23  C   UNL     1       6.689   3.255  22.031  0.00  0.00    +0.000 A 
ATOM     24  C   UNL     1       6.955   4.407  22.760  0.00  0.00    +0.000 A 
ATOM     25  C   UNL     1       6.793   4.360  24.151  0.00  0.00    +0.000 A 
ATOM     26  C   UNL     1       6.373   3.186  24.824  0.00  0.00    +0.004 A 
ENDBRANCH  20  21
ENDBRANCH   9  20
ENDBRANCH   1   9
BRANCH   1  27
ATOM     27  C   UNL     1       8.610  -1.336  25.619  0.00  0.00    +0.143 C 
BRANCH  27  28
ATOM     28  N   UNL     1       9.426  -1.019  24.351  0.00  0.00    -0.174 NA
BRANCH  28  29
ATOM     29  S   UNL     1       9.547  -2.366  23.303  0.00  0.00    +0.061 S 
ATOM     30  O   UNL     1      10.427  -3.301  23.961  0.00  0.00    -0.153 OA
ATOM     31  O   UNL     1       9.848  -1.868  21.973  0.00  0.00    -0.153 OA
BRANCH  29  32
ATOM     32  C   UNL     1       7.947  -3.134  23.194  0.00  0.00    +0.106 A 
ATOM     33  C   UNL     1       6.876  -2.356  22.743  0.00  0.00    +0.030 A 
ATOM     34  C   UNL     1       5.601  -2.908  22.651  0.00  0.00    +0.024 A 
ATOM     35  C   UNL     1       5.389  -4.252  22.969  0.00  0.00    +0.025 A 
ATOM     36  C   UNL     1       6.441  -4.990  23.524  0.00  0.00    +0.024 A 
ATOM     37  C   UNL     1       7.726  -4.438  23.641  0.00  0.00    +0.030 A 
BRANCH  35  38
ATOM     38  N   UNL     1       4.089  -4.769  22.927  0.00  0.00    -0.358 N 
ATOM     39  H   UNL     1       3.895  -5.451  23.656  0.00  0.00    +0.142 HD
ATOM     40  H   UNL     1       3.369  -4.053  22.882  0.00  0.00    +0.142 HD
ENDBRANCH  35  38
ENDBRANCH  29  32
ENDBRANCH  28  29
BRANCH  28  41
ATOM     41  C   UNL     1       9.114   0.372  23.894  0.00  0.00    +0.112 C 
BRANCH  41  43
ATOM     42  C   UNL     1       9.952   1.550  21.877  0.00  0.00    +0.008 C 
ATOM     43  C   UNL     1      10.178   1.341  23.393  0.00  0.00    -0.001 C 
ATOM     44  C   UNL     1      10.099   2.708  24.051  0.00  0.00    +0.008 C 
ENDBRANCH  41  43
ENDBRANCH  28  41
ENDBRANCH  27  28
ENDBRANCH   1  27
TORSDOF 17
ENDMDL
