MODEL 1
REMARK VINA RESULT:      -6.1      0.000      0.000
REMARK  Name = 
REMARK  3 active torsions:
REMARK  status: ('A' for Active; 'I' for Inactive)
REMARK    1  A    between atoms: C_3  and  N_9
REMARK    2  A    between atoms: C_5  and  C_7
REMARK    3  A    between atoms: C_7  and  O_8
REMARK                            x       y       z     vdW  Elec       q    Type
REMARK                         _______ _______ _______ _____ _____    ______ ____
ROOT
ATOM      1  N   UNL     1       9.649  -0.767  24.292  0.00  0.00    -0.288 N 
ATOM      2  C   UNL     1       9.019  -1.800  24.933  0.00  0.00    +0.169 A 
ATOM      3  N   UNL     1       8.258  -1.719  26.054  0.00  0.00    -0.218 NA
ATOM      4  C   UNL     1       7.817  -2.881  26.437  0.00  0.00    +0.201 A 
ATOM      5  N   UNL     1       8.073  -4.085  25.806  0.00  0.00    -0.312 N 
ATOM      6  H   UNL     1       7.703  -4.950  26.167  0.00  0.00    +0.170 HD
ATOM      7  C   UNL     1       8.839  -4.204  24.656  0.00  0.00    +0.279 A 
ATOM      8  O   UNL     1       9.044  -5.290  24.123  0.00  0.00    -0.265 OA
ATOM      9  C   UNL     1       9.338  -2.924  24.200  0.00  0.00    +0.172 A 
ATOM     10  N   UNL     1      10.102  -2.612  23.109  0.00  0.00    -0.229 NA
ATOM     11  C   UNL     1      10.243  -1.305  23.174  0.00  0.00    +0.203 A 
ENDROOT
BRANCH   1  15
ATOM     12  C   UNL     1      10.250   1.953  22.796  0.00  0.00    +0.038 C 
ATOM     13  C   UNL     1       8.759   2.095  23.040  0.00  0.00    +0.146 C 
ATOM     14  O   UNL     1       8.417   1.237  24.152  0.00  0.00    -0.351 OA
ATOM     15  C   UNL     1       9.624   0.636  24.673  0.00  0.00    +0.222 C 
ATOM     16  C   UNL     1      10.771   1.478  24.129  0.00  0.00    +0.057 C 
BRANCH  13  17
ATOM     17  C   UNL     1       7.927   1.699  21.816  0.00  0.00    +0.187 C 
BRANCH  17  18
ATOM     18  O   UNL     1       8.771   1.171  20.797  0.00  0.00    -0.392 OA
ATOM     19  H   UNL     1       9.279   0.448  21.210  0.00  0.00    +0.210 HD
ENDBRANCH  17  18
ENDBRANCH  13  17
ENDBRANCH   1  15
TORSDOF 3
ENDMDL
MODEL 2
REMARK VINA RESULT:      -6.0      1.852      2.933
REMARK  Name = 
REMARK  3 active torsions:
REMARK  status: ('A' for Active; 'I' for Inactive)
REMARK    1  A    between atoms: C_3  and  N_9
REMARK    2  A    between atoms: C_5  and  C_7
REMARK    3  A    between atoms: C_7  and  O_8
REMARK                            x       y       z     vdW  Elec       q    Type
REMARK                         _______ _______ _______ _____ _____    ______ ____
ROOT
ATOM      1  N   UNL     1       9.248  -2.138  24.566  0.00  0.00    -0.288 N 
ATOM      2  C   UNL     1       9.114  -3.412  25.050  0.00  0.00    +0.169 A 
ATOM      3  N   UNL     1       9.759  -4.522  24.610  0.00  0.00    -0.218 NA
ATOM      4  C   UNL     1       9.397  -5.592  25.254  0.00  0.00    +0.201 A 
ATOM      5  N   UNL     1       8.463  -5.639  26.273  0.00  0.00    -0.312 N 
ATOM      6  H   UNL     1       8.226  -6.509  26.722  0.00  0.00    +0.170 HD
ATOM      7  C   UNL     1       7.790  -4.525  26.753  0.00  0.00    +0.279 A 
ATOM      8  O   UNL     1       6.967  -4.604  27.660  0.00  0.00    -0.265 OA
ATOM      9  C   UNL     1       8.179  -3.315  26.060  0.00  0.00    +0.172 A 
ATOM     10  N   UNL     1       7.770  -2.022  26.243  0.00  0.00    -0.229 NA
ATOM     11  C   UNL     1       8.456  -1.335  25.353  0.00  0.00    +0.203 A 
ENDROOT
BRANCH   1  15
ATOM     12  C   UNL     1       8.885  -0.326  22.000  0.00  0.00    +0.038 C 
ATOM     13  C   UNL     1       9.839   0.531  22.811  0.00  0.00    +0.146 C 
ATOM     14  O   UNL     1      10.528  -0.341  23.736  0.00  0.00    -0.351 OA
ATOM     15  C   UNL     1      10.123  -1.707  23.488  0.00  0.00    +0.222 C 
ATOM     16  C   UNL     1       9.492  -1.703  22.101  0.00  0.00    +0.057 C 
BRANCH  13  17
ATOM     17  C   UNL     1       9.115   1.632  23.592  0.00  0.00    +0.187 C 
BRANCH  17  18
ATOM     18  O   UNL     1       9.755   1.848  24.846  0.00  0.00    -0.392 OA
ATOM     19  H   UNL     1       9.157   1.483  25.525  0.00  0.00    +0.210 HD
ENDBRANCH  17  18
ENDBRANCH  13  17
ENDBRANCH   1  15
TORSDOF 3
ENDMDL
MODEL 3
REMARK VINA RESULT:      -6.0      2.323      2.646
REMARK  Name = 
REMARK  3 active torsions:
REMARK  status: ('A' for Active; 'I' for Inactive)
REMARK    1  A    between atoms: C_3  and  N_9
REMARK    2  A    between atoms: C_5  and  C_7
REMARK    3  A    between atoms: C_7  and  O_8
REMARK                            x       y       z     vdW  Elec       q    Type
REMARK                         _______ _______ _______ _____ _____    ______ ____
ROOT
ATOM      1  N   UNL     1       8.291  -2.051  24.319  0.00  0.00    -0.288 N 
ATOM      2  C   UNL     1       7.413  -2.669  23.470  0.00  0.00    +0.169 A 
ATOM      3  N   UNL     1       6.283  -2.137  22.939  0.00  0.00    -0.218 NA
ATOM      4  C   UNL     1       5.643  -2.984  22.188  0.00  0.00    +0.201 A 
ATOM      5  N   UNL     1       6.032  -4.288  21.937  0.00  0.00    -0.312 N 
ATOM      6  H   UNL     1       5.479  -4.892  21.350  0.00  0.00    +0.170 HD
ATOM      7  C   UNL     1       7.183  -4.862  22.457  0.00  0.00    +0.279 A 
ATOM      8  O   UNL     1       7.496  -6.023  22.212  0.00  0.00    -0.265 OA
ATOM      9  C   UNL     1       7.922  -3.939  23.291  0.00  0.00    +0.172 A 
ATOM     10  N   UNL     1       9.102  -4.105  23.962  0.00  0.00    -0.229 NA
ATOM     11  C   UNL     1       9.314  -2.943  24.542  0.00  0.00    +0.203 A 
ENDROOT
BRANCH   1  15
ATOM     12  C   UNL     1      10.302   0.384  24.503  0.00  0.00    +0.038 C 
ATOM     13  C   UNL     1       9.300   0.928  23.501  0.00  0.00    +0.146 C 
ATOM     14  O   UNL     1       8.059   0.211  23.694  0.00  0.00    -0.351 OA
ATOM     15  C   UNL     1       8.203  -0.687  24.818  0.00  0.00    +0.222 C 
ATOM     16  C   UNL     1       9.424  -0.196  25.584  0.00  0.00    +0.057 C 
BRANCH  13  17
ATOM     17  C   UNL     1       9.769   0.754  22.053  0.00  0.00    +0.187 C 
BRANCH  17  18
ATOM     18  O   UNL     1      10.118   2.016  21.494  0.00  0.00    -0.392 OA
ATOM     19  H   UNL     1       9.654   2.074  20.638  0.00  0.00    +0.210 HD
ENDBRANCH  17  18
ENDBRANCH  13  17
ENDBRANCH   1  15
TORSDOF 3
ENDMDL
MODEL 4
REMARK VINA RESULT:      -6.0      1.999      2.898
REMARK  Name = 
REMARK  3 active torsions:
REMARK  status: ('A' for Active; 'I' for Inactive)
REMARK    1  A    between atoms: C_3  and  N_9
REMARK    2  A    between atoms: C_5  and  C_7
REMARK    3  A    between atoms: C_7  and  O_8
REMARK                            x       y       z     vdW  Elec       q    Type
REMARK                         _______ _______ _______ _____ _____    ______ ____
ROOT
ATOM      1  N   UNL     1       8.725  -2.220  23.123  0.00  0.00    -0.288 N 
ATOM      2  C   UNL     1       8.766  -3.268  24.004  0.00  0.00    +0.169 A 
ATOM      3  N   UNL     1       9.874  -3.908  24.455  0.00  0.00    -0.218 NA
ATOM      4  C   UNL     1       9.585  -4.884  25.265  0.00  0.00    +0.201 A 
ATOM      5  N   UNL     1       8.310  -5.262  25.644  0.00  0.00    -0.312 N 
ATOM      6  H   UNL     1       8.161  -6.037  26.271  0.00  0.00    +0.170 HD
ATOM      7  C   UNL     1       7.156  -4.627  25.208  0.00  0.00    +0.279 A 
ATOM      8  O   UNL     1       6.040  -4.990  25.567  0.00  0.00    -0.265 OA
ATOM      9  C   UNL     1       7.447  -3.529  24.311  0.00  0.00    +0.172 A 
ATOM     10  N   UNL     1       6.603  -2.651  23.688  0.00  0.00    -0.229 NA
ATOM     11  C   UNL     1       7.403  -1.856  23.009  0.00  0.00    +0.203 A 
ENDROOT
BRANCH   1  15
ATOM     12  C   UNL     1       9.318   0.715  22.105  0.00  0.00    +0.038 C 
ATOM     13  C   UNL     1      10.296   0.621  23.261  0.00  0.00    +0.146 C 
ATOM     14  O   UNL     1      10.555  -0.782  23.498  0.00  0.00    -0.351 OA
ATOM     15  C   UNL     1       9.864  -1.565  22.499  0.00  0.00    +0.222 C 
ATOM     16  C   UNL     1       9.519  -0.592  21.379  0.00  0.00    +0.057 C 
BRANCH  13  17
ATOM     17  C   UNL     1       9.751   1.262  24.541  0.00  0.00    +0.187 C 
BRANCH  17  18
ATOM     18  O   UNL     1       9.924   0.380  25.646  0.00  0.00    -0.392 OA
ATOM     19  H   UNL     1      10.867   0.132  25.653  0.00  0.00    +0.210 HD
ENDBRANCH  17  18
ENDBRANCH  13  17
ENDBRANCH   1  15
TORSDOF 3
ENDMDL
MODEL 5
REMARK VINA RESULT:      -6.0      1.425      1.581
REMARK  Name = 
REMARK  3 active torsions:
REMARK  status: ('A' for Active; 'I' for Inactive)
REMARK    1  A    between atoms: C_3  and  N_9
REMARK    2  A    between atoms: C_5  and  C_7
REMARK    3  A    between atoms: C_7  and  O_8
REMARK                            x       y       z     vdW  Elec       q    Type
REMARK                         _______ _______ _______ _____ _____    ______ ____
ROOT
ATOM      1  N   UNL     1       8.410  -1.274  24.036  0.00  0.00    -0.288 N 
ATOM      2  C   UNL     1       8.325  -2.528  24.579  0.00  0.00    +0.169 A 
ATOM      3  N   UNL     1       8.474  -2.859  25.887  0.00  0.00    -0.218 NA
ATOM      4  C   UNL     1       8.364  -4.140  26.087  0.00  0.00    +0.201 A 
ATOM      5  N   UNL     1       8.127  -5.089  25.109  0.00  0.00    -0.312 N 
ATOM      6  H   UNL     1       8.063  -6.068  25.338  0.00  0.00    +0.170 HD
ATOM      7  C   UNL     1       7.963  -4.785  23.765  0.00  0.00    +0.279 A 
ATOM      8  O   UNL     1       7.754  -5.654  22.924  0.00  0.00    -0.265 OA
ATOM      9  C   UNL     1       8.072  -3.364  23.512  0.00  0.00    +0.172 A 
ATOM     10  N   UNL     1       7.953  -2.664  22.343  0.00  0.00    -0.229 NA
ATOM     11  C   UNL     1       8.127  -1.407  22.696  0.00  0.00    +0.203 A 
ENDROOT
BRANCH   1  15
ATOM     12  C   UNL     1      10.865   0.709  24.246  0.00  0.00    +0.038 C 
ATOM     13  C   UNL     1       9.858   1.591  23.532  0.00  0.00    +0.146 C 
ATOM     14  O   UNL     1       8.541   1.071  23.824  0.00  0.00    -0.351 OA
ATOM     15  C   UNL     1       8.663  -0.033  24.751  0.00  0.00    +0.222 C 
ATOM     16  C   UNL     1      10.054   0.094  25.359  0.00  0.00    +0.057 C 
BRANCH  13  17
ATOM     17  C   UNL     1      10.072   1.614  22.016  0.00  0.00    +0.187 C 
BRANCH  17  18
ATOM     18  O   UNL     1       8.951   2.207  21.369  0.00  0.00    -0.392 OA
ATOM     19  H   UNL     1       8.478   1.481  20.921  0.00  0.00    +0.210 HD
ENDBRANCH  17  18
ENDBRANCH  13  17
ENDBRANCH   1  15
TORSDOF 3
ENDMDL
MODEL 6
REMARK VINA RESULT:      -5.8      2.239      5.192
REMARK  Name = 
REMARK  3 active torsions:
REMARK  status: ('A' for Active; 'I' for Inactive)
REMARK    1  A    between atoms: C_3  and  N_9
REMARK    2  A    between atoms: C_5  and  C_7
REMARK    3  A    between atoms: C_7  and  O_8
REMARK                            x       y       z     vdW  Elec       q    Type
REMARK                         _______ _______ _______ _____ _____    ______ ____
ROOT
ATOM      1  N   UNL     1       9.742  -1.001  23.682  0.00  0.00    -0.288 N 
ATOM      2  C   UNL     1       9.495   0.093  22.896  0.00  0.00    +0.169 A 
ATOM      3  N   UNL     1       8.986   0.093  21.638  0.00  0.00    -0.218 NA
ATOM      4  C   UNL     1       8.894   1.292  21.142  0.00  0.00    +0.201 A 
ATOM      5  N   UNL     1       9.266   2.458  21.786  0.00  0.00    -0.312 N 
ATOM      6  H   UNL     1       9.174   3.354  21.334  0.00  0.00    +0.170 HD
ATOM      7  C   UNL     1       9.784   2.496  23.073  0.00  0.00    +0.279 A 
ATOM      8  O   UNL     1      10.103   3.550  23.613  0.00  0.00    -0.265 OA
ATOM      9  C   UNL     1       9.890   1.175  23.655  0.00  0.00    +0.172 A 
ATOM     10  N   UNL     1      10.325   0.788  24.893  0.00  0.00    -0.229 NA
ATOM     11  C   UNL     1      10.192  -0.522  24.890  0.00  0.00    +0.203 A 
ENDROOT
BRANCH   1  15
ATOM     12  C   UNL     1       7.913  -3.294  24.864  0.00  0.00    +0.038 C 
ATOM     13  C   UNL     1       7.249  -3.079  23.517  0.00  0.00    +0.146 C 
ATOM     14  O   UNL     1       8.231  -2.481  22.640  0.00  0.00    -0.351 OA
ATOM     15  C   UNL     1       9.495  -2.392  23.336  0.00  0.00    +0.222 C 
ATOM     16  C   UNL     1       9.380  -3.345  24.519  0.00  0.00    +0.057 C 
BRANCH  13  17
ATOM     17  C   UNL     1       6.024  -2.164  23.609  0.00  0.00    +0.187 C 
BRANCH  17  18
ATOM     18  O   UNL     1       6.263  -0.949  22.906  0.00  0.00    -0.392 OA
ATOM     19  H   UNL     1       6.948  -1.148  22.241  0.00  0.00    +0.210 HD
ENDBRANCH  17  18
ENDBRANCH  13  17
ENDBRANCH   1  15
TORSDOF 3
ENDMDL
MODEL 7
REMARK VINA RESULT:      -5.7      1.792      5.345
REMARK  Name = 
REMARK  3 active torsions:
REMARK  status: ('A' for Active; 'I' for Inactive)
REMARK    1  A    between atoms: C_3  and  N_9
REMARK    2  A    between atoms: C_5  and  C_7
REMARK    3  A    between atoms: C_7  and  O_8
REMARK                            x       y       z     vdW  Elec       q    Type
REMARK                         _______ _______ _______ _____ _____    ______ ____
ROOT
ATOM      1  N   UNL     1       8.893  -3.138  25.301  0.00  0.00    -0.288 N 
ATOM      2  C   UNL     1       9.432  -2.246  24.413  0.00  0.00    +0.169 A 
ATOM      3  N   UNL     1       9.982  -2.533  23.205  0.00  0.00    -0.218 NA
ATOM      4  C   UNL     1      10.434  -1.471  22.605  0.00  0.00    +0.201 A 
ATOM      5  N   UNL     1      10.385  -0.183  23.105  0.00  0.00    -0.312 N 
ATOM      6  H   UNL     1      10.765   0.592  22.585  0.00  0.00    +0.170 HD
ATOM      7  C   UNL     1       9.825   0.147  24.330  0.00  0.00    +0.279 A 
ATOM      8  O   UNL     1       9.798   1.303  24.742  0.00  0.00    -0.265 OA
ATOM      9  C   UNL     1       9.304  -1.014  25.020  0.00  0.00    +0.172 A 
ATOM     10  N   UNL     1       8.665  -1.113  26.226  0.00  0.00    -0.229 NA
ATOM     11  C   UNL     1       8.401  -2.396  26.350  0.00  0.00    +0.203 A 
ENDROOT
BRANCH   1  15
ATOM     12  C   UNL     1       6.483  -5.173  25.061  0.00  0.00    +0.038 C 
ATOM     13  C   UNL     1       7.076  -5.279  23.668  0.00  0.00    +0.146 C 
ATOM     14  O   UNL     1       8.456  -4.858  23.749  0.00  0.00    -0.351 OA
ATOM     15  C   UNL     1       8.784  -4.578  25.129  0.00  0.00    +0.222 C 
ATOM     16  C   UNL     1       7.695  -5.251  25.955  0.00  0.00    +0.057 C 
BRANCH  13  17
ATOM     17  C   UNL     1       6.335  -4.407  22.650  0.00  0.00    +0.187 C 
BRANCH  17  18
ATOM     18  O   UNL     1       7.230  -3.466  22.064  0.00  0.00    -0.392 OA
ATOM     19  H   UNL     1       7.974  -3.984  21.703  0.00  0.00    +0.210 HD
ENDBRANCH  17  18
ENDBRANCH  13  17
ENDBRANCH   1  15
TORSDOF 3
ENDMDL
MODEL 8
REMARK VINA RESULT:      -5.7      1.426      1.483
REMARK  Name = 
REMARK  3 active torsions:
REMARK  status: ('A' for Active; 'I' for Inactive)
REMARK    1  A    between atoms: C_3  and  N_9
REMARK    2  A    between atoms: C_5  and  C_7
REMARK    3  A    between atoms: C_7  and  O_8
REMARK                            x       y       z     vdW  Elec       q    Type
REMARK                         _______ _______ _______ _____ _____    ______ ____
ROOT
ATOM      1  N   UNL     1       9.190  -0.882  23.960  0.00  0.00    -0.288 N 
ATOM      2  C   UNL     1       8.358  -1.939  24.216  0.00  0.00    +0.169 A 
ATOM      3  N   UNL     1       7.766  -2.239  25.400  0.00  0.00    -0.218 NA
ATOM      4  C   UNL     1       7.052  -3.325  25.334  0.00  0.00    +0.201 A 
ATOM      5  N   UNL     1       6.893  -4.114  24.210  0.00  0.00    -0.312 N 
ATOM      6  H   UNL     1       6.330  -4.949  24.236  0.00  0.00    +0.170 HD
ATOM      7  C   UNL     1       7.477  -3.834  22.983  0.00  0.00    +0.279 A 
ATOM      8  O   UNL     1       7.313  -4.558  22.006  0.00  0.00    -0.265 OA
ATOM      9  C   UNL     1       8.272  -2.625  23.023  0.00  0.00    +0.172 A 
ATOM     10  N   UNL     1       8.982  -2.002  22.034  0.00  0.00    -0.229 NA
ATOM     11  C   UNL     1       9.494  -0.940  22.620  0.00  0.00    +0.203 A 
ENDROOT
BRANCH   1  15
ATOM     12  C   UNL     1      10.697   1.887  23.705  0.00  0.00    +0.038 C 
ATOM     13  C   UNL     1       9.322   2.360  24.139  0.00  0.00    +0.146 C 
ATOM     14  O   UNL     1       8.675   1.255  24.811  0.00  0.00    -0.351 OA
ATOM     15  C   UNL     1       9.601   0.148  24.900  0.00  0.00    +0.222 C 
ATOM     16  C   UNL     1      10.980   0.745  24.649  0.00  0.00    +0.057 C 
BRANCH  13  17
ATOM     17  C   UNL     1       8.460   2.812  22.956  0.00  0.00    +0.187 C 
BRANCH  17  18
ATOM     18  O   UNL     1       9.134   2.554  21.729  0.00  0.00    -0.392 OA
ATOM     19  H   UNL     1       8.446   2.534  21.038  0.00  0.00    +0.210 HD
ENDBRANCH  17  18
ENDBRANCH  13  17
ENDBRANCH   1  15
TORSDOF 3
ENDMDL
MODEL 9
REMARK VINA RESULT:      -5.7      2.087      5.359
REMARK  Name = 
REMARK  3 active torsions:
REMARK  status: ('A' for Active; 'I' for Inactive)
REMARK    1  A    between atoms: C_3  and  N_9
REMARK    2  A    between atoms: C_5  and  C_7
REMARK    3  A    between atoms: C_7  and  O_8
REMARK                            x       y       z     vdW  Elec       q    Type
REMARK                         _______ _______ _______ _____ _____    ______ ____
ROOT
ATOM      1  N   UNL     1       8.262  -2.040  23.856  0.00  0.00    -0.288 N 
ATOM      2  C   UNL     1       8.356  -0.803  24.435  0.00  0.00    +0.169 A 
ATOM      3  N   UNL     1       7.441  -0.212  25.244  0.00  0.00    -0.218 NA
ATOM      4  C   UNL     1       7.807   0.980  25.615  0.00  0.00    +0.201 A 
ATOM      5  N   UNL     1       8.981   1.611  25.247  0.00  0.00    -0.312 N 
ATOM      6  H   UNL     1       9.195   2.542  25.567  0.00  0.00    +0.170 HD
ATOM      7  C   UNL     1       9.941   1.034  24.428  0.00  0.00    +0.279 A 
ATOM      8  O   UNL     1      10.973   1.624  24.122  0.00  0.00    -0.265 OA
ATOM      9  C   UNL     1       9.566  -0.298  24.005  0.00  0.00    +0.172 A 
ATOM     10  N   UNL     1      10.236  -1.198  23.222  0.00  0.00    -0.229 NA
ATOM     11  C   UNL     1       9.441  -2.247  23.179  0.00  0.00    +0.203 A 
ENDROOT
BRANCH   1  15
ATOM     12  C   UNL     1       7.999  -5.187  23.672  0.00  0.00    +0.038 C 
ATOM     13  C   UNL     1       7.705  -4.970  25.145  0.00  0.00    +0.146 C 
ATOM     14  O   UNL     1       7.253  -3.606  25.301  0.00  0.00    -0.351 OA
ATOM     15  C   UNL     1       7.165  -2.985  23.999  0.00  0.00    +0.222 C 
ATOM     16  C   UNL     1       7.160  -4.131  22.996  0.00  0.00    +0.057 C 
BRANCH  13  17
ATOM     17  C   UNL     1       8.935  -5.205  26.027  0.00  0.00    +0.187 C 
BRANCH  17  18
ATOM     18  O   UNL     1      10.002  -5.741  25.251  0.00  0.00    -0.392 OA
ATOM     19  H   UNL     1      10.470  -4.977  24.866  0.00  0.00    +0.210 HD
ENDBRANCH  17  18
ENDBRANCH  13  17
ENDBRANCH   1  15
TORSDOF 3
ENDMDL
