MODEL 1
REMARK VINA RESULT:      -6.5      0.000      0.000
REMARK  Name = 
REMARK  17 active torsions:
REMARK  status: ('A' for Active; 'I' for Inactive)
REMARK    1  A    between atoms: C_1  and  C_2
REMARK    2  A    between atoms: C_2  and  C_3
REMARK    3  A    between atoms: C_2  and  O_4
REMARK    4  A    between atoms: O_4  and  C_5
REMARK    5  A    between atoms: C_5  and  C_7
REMARK    6  A    between atoms: C_7  and  C_8
REMARK    7  A    between atoms: C_7  and  N_9
REMARK    8  A    between atoms: N_9  and  P_10
REMARK    9  A    between atoms: P_10  and  C_12
REMARK   10  A    between atoms: P_10  and  O_27
REMARK   11  A    between atoms: C_12  and  O_13
REMARK   12  A    between atoms: O_13  and  C_14
REMARK   13  A    between atoms: C_14  and  C_15
REMARK   14  A    between atoms: C_14  and  C_16
REMARK   15  A    between atoms: C_16  and  N_17
REMARK   16  A    between atoms: C_21  and  N_26
REMARK   17  A    between atoms: O_27  and  C_28
REMARK                            x       y       z     vdW  Elec       q    Type
REMARK                         _______ _______ _______ _____ _____    ______ ____
ROOT
ATOM      1  P   UNL     1       7.189   1.325  23.267  0.00  0.00    +0.345 P 
ATOM      2  O   UNL     1       7.243   2.238  22.073  0.00  0.00    -0.257 OA
ENDROOT
BRANCH   1   3
ATOM      3  N   UNL     1       7.440  -0.262  22.884  0.00  0.00    -0.221 NA
ATOM      4  H   UNL     1       6.898  -0.850  23.514  0.00  0.00    +0.133 HD
BRANCH   3   5
ATOM      5  C   UNL     1       8.789  -0.816  22.764  0.00  0.00    +0.169 C 
ATOM      6  C   UNL     1       9.443  -0.301  21.485  0.00  0.00    +0.036 C 
BRANCH   5   7
ATOM      7  C   UNL     1       8.790  -2.343  22.790  0.00  0.00    +0.325 C 
ATOM      8  O   UNL     1       9.652  -2.996  23.369  0.00  0.00    -0.249 OA
BRANCH   7   9
ATOM      9  O   UNL     1       7.730  -2.865  22.112  0.00  0.00    -0.461 OA
BRANCH   9  11
ATOM     10  C   UNL     1       5.491  -3.425  22.884  0.00  0.00    +0.052 C 
ATOM     11  C   UNL     1       6.955  -3.848  22.825  0.00  0.00    +0.170 C 
ATOM     12  C   UNL     1       7.093  -5.173  22.083  0.00  0.00    +0.052 C 
ENDBRANCH   9  11
ENDBRANCH   7   9
ENDBRANCH   5   7
ENDBRANCH   3   5
ENDBRANCH   1   3
BRANCH   1  13
ATOM     13  O   UNL     1       8.296   1.703  24.394  0.00  0.00    -0.431 OA
BRANCH  13  14
ATOM     14  C   UNL     1       9.098   2.805  24.270  0.00  0.00    +0.129 A 
ATOM     15  C   UNL     1      10.331   2.639  23.640  0.00  0.00    +0.046 A 
ATOM     16  C   UNL     1      11.118   3.759  23.365  0.00  0.00    +0.004 A 
ATOM     17  C   UNL     1      10.677   5.030  23.731  0.00  0.00    +0.000 A 
ATOM     18  C   UNL     1       9.473   5.182  24.414  0.00  0.00    +0.004 A 
ATOM     19  C   UNL     1       8.692   4.067  24.698  0.00  0.00    +0.046 A 
ENDBRANCH  13  14
ENDBRANCH   1  13
BRANCH   1  20
ATOM     20  C   UNL     1       5.635   1.536  24.164  0.00  0.00    +0.286 C 
BRANCH  20  21
ATOM     21  O   UNL     1       5.320   0.317  24.845  0.00  0.00    -0.363 OA
BRANCH  21  22
ATOM     22  C   UNL     1       5.459   0.414  26.270  0.00  0.00    +0.136 C 
ATOM     23  C   UNL     1       4.359   1.306  26.837  0.00  0.00    +0.040 C 
BRANCH  22  24
ATOM     24  C   UNL     1       5.344  -1.007  26.840  0.00  0.00    +0.156 C 
BRANCH  24  25
ATOM     25  N   UNL     1       6.553  -1.768  26.584  0.00  0.00    -0.312 N 
ATOM     26  C   UNL     1       6.627  -3.127  26.463  0.00  0.00    +0.165 A 
ATOM     27  C   UNL     1       7.984  -3.399  26.404  0.00  0.00    +0.147 A 
ATOM     28  C   UNL     1       8.350  -4.755  26.357  0.00  0.00    +0.147 A 
ATOM     29  N   UNL     1       7.369  -5.686  26.314  0.00  0.00    -0.219 NA
ATOM     30  C   UNL     1       6.085  -5.268  26.361  0.00  0.00    +0.225 A 
ATOM     31  N   UNL     1       8.722  -2.231  26.425  0.00  0.00    -0.231 NA
ATOM     32  N   UNL     1       5.615  -4.007  26.450  0.00  0.00    -0.216 NA
ATOM     33  C   UNL     1       7.827  -1.270  26.540  0.00  0.00    +0.201 A 
BRANCH  28  34
ATOM     34  N   UNL     1       9.668  -5.188  26.360  0.00  0.00    -0.341 N 
ATOM     35  H   UNL     1      10.323  -4.442  26.172  0.00  0.00    +0.144 HD
ATOM     36  H   UNL     1       9.882  -5.844  27.102  0.00  0.00    +0.144 HD
ENDBRANCH  28  34
ENDBRANCH  24  25
ENDBRANCH  22  24
ENDBRANCH  21  22
ENDBRANCH  20  21
ENDBRANCH   1  20
TORSDOF 13
ENDMDL
MODEL 2
REMARK VINA RESULT:      -6.5      2.229      4.920
REMARK  Name = 
REMARK  17 active torsions:
REMARK  status: ('A' for Active; 'I' for Inactive)
REMARK    1  A    between atoms: C_1  and  C_2
REMARK    2  A    between atoms: C_2  and  C_3
REMARK    3  A    between atoms: C_2  and  O_4
REMARK    4  A    between atoms: O_4  and  C_5
REMARK    5  A    between atoms: C_5  and  C_7
REMARK    6  A    between atoms: C_7  and  C_8
REMARK    7  A    between atoms: C_7  and  N_9
REMARK    8  A    between atoms: N_9  and  P_10
REMARK    9  A    between atoms: P_10  and  C_12
REMARK   10  A    between atoms: P_10  and  O_27
REMARK   11  A    between atoms: C_12  and  O_13
REMARK   12  A    between atoms: O_13  and  C_14
REMARK   13  A    between atoms: C_14  and  C_15
REMARK   14  A    between atoms: C_14  and  C_16
REMARK   15  A    between atoms: C_16  and  N_17
REMARK   16  A    between atoms: C_21  and  N_26
REMARK   17  A    between atoms: O_27  and  C_28
REMARK                            x       y       z     vdW  Elec       q    Type
REMARK                         _______ _______ _______ _____ _____    ______ ____
ROOT
ATOM      1  P   UNL     1       8.930  -2.467  24.020  0.00  0.00    +0.345 P 
ATOM      2  O   UNL     1       9.288  -3.605  24.935  0.00  0.00    -0.257 OA
ENDROOT
BRANCH   1   3
ATOM      3  N   UNL     1       8.084  -1.265  24.775  0.00  0.00    -0.221 NA
ATOM      4  H   UNL     1       8.025  -1.470  25.769  0.00  0.00    +0.133 HD
BRANCH   3   5
ATOM      5  C   UNL     1       6.767  -0.843  24.299  0.00  0.00    +0.169 C 
ATOM      6  C   UNL     1       6.790   0.650  23.982  0.00  0.00    +0.036 C 
BRANCH   5   7
ATOM      7  C   UNL     1       5.661  -1.160  25.304  0.00  0.00    +0.325 C 
ATOM      8  O   UNL     1       5.533  -2.264  25.823  0.00  0.00    -0.249 OA
BRANCH   7   9
ATOM      9  O   UNL     1       4.867  -0.079  25.546  0.00  0.00    -0.461 OA
BRANCH   9  11
ATOM     10  C   UNL     1       5.843   0.703  27.632  0.00  0.00    +0.052 C 
ATOM     11  C   UNL     1       4.588   0.194  26.932  0.00  0.00    +0.170 C 
ATOM     12  C   UNL     1       3.489   1.249  26.984  0.00  0.00    +0.052 C 
ENDBRANCH   9  11
ENDBRANCH   7   9
ENDBRANCH   5   7
ENDBRANCH   3   5
ENDBRANCH   1   3
BRANCH   1  13
ATOM     13  O   UNL     1      10.236  -1.760  23.361  0.00  0.00    -0.431 OA
BRANCH  13  14
ATOM     14  C   UNL     1      10.298  -0.406  23.170  0.00  0.00    +0.129 A 
ATOM     15  C   UNL     1       9.838   0.097  21.954  0.00  0.00    +0.046 A 
ATOM     16  C   UNL     1       9.750   1.478  21.771  0.00  0.00    +0.004 A 
ATOM     17  C   UNL     1      10.132   2.345  22.794  0.00  0.00    +0.000 A 
ATOM     18  C   UNL     1      10.649   1.837  23.983  0.00  0.00    +0.004 A 
ATOM     19  C   UNL     1      10.747   0.461  24.164  0.00  0.00    +0.046 A 
ENDBRANCH  13  14
ENDBRANCH   1  13
BRANCH   1  20
ATOM     20  C   UNL     1       8.041  -3.069  22.567  0.00  0.00    +0.286 C 
BRANCH  20  21
ATOM     21  O   UNL     1       7.568  -4.396  22.825  0.00  0.00    -0.363 OA
BRANCH  21  22
ATOM     22  C   UNL     1       6.219  -4.430  23.313  0.00  0.00    +0.136 C 
ATOM     23  C   UNL     1       5.310  -3.645  22.372  0.00  0.00    +0.040 C 
BRANCH  22  24
ATOM     24  C   UNL     1       5.789  -5.902  23.368  0.00  0.00    +0.156 C 
BRANCH  24  25
ATOM     25  N   UNL     1       5.174  -6.214  24.646  0.00  0.00    -0.312 N 
ATOM     26  C   UNL     1       5.775  -6.098  25.868  0.00  0.00    +0.165 A 
ATOM     27  C   UNL     1       4.877  -6.669  26.755  0.00  0.00    +0.147 A 
ATOM     28  C   UNL     1       5.289  -6.753  28.096  0.00  0.00    +0.147 A 
ATOM     29  N   UNL     1       6.488  -6.228  28.437  0.00  0.00    -0.219 NA
ATOM     30  C   UNL     1       7.251  -5.685  27.461  0.00  0.00    +0.225 A 
ATOM     31  N   UNL     1       3.726  -7.069  26.102  0.00  0.00    -0.231 NA
ATOM     32  N   UNL     1       6.984  -5.586  26.143  0.00  0.00    -0.216 NA
ATOM     33  C   UNL     1       3.945  -6.785  24.833  0.00  0.00    +0.201 A 
BRANCH  28  34
ATOM     34  N   UNL     1       4.529  -7.355  29.088  0.00  0.00    -0.341 N 
ATOM     35  H   UNL     1       3.542  -7.368  28.869  0.00  0.00    +0.144 HD
ATOM     36  H   UNL     1       4.950  -8.192  29.474  0.00  0.00    +0.144 HD
ENDBRANCH  28  34
ENDBRANCH  24  25
ENDBRANCH  22  24
ENDBRANCH  21  22
ENDBRANCH  20  21
ENDBRANCH   1  20
TORSDOF 13
ENDMDL
MODEL 3
REMARK VINA RESULT:      -6.5      2.133      5.958
REMARK  Name = 
REMARK  17 active torsions:
REMARK  status: ('A' for Active; 'I' for Inactive)
REMARK    1  A    between atoms: C_1  and  C_2
REMARK    2  A    between atoms: C_2  and  C_3
REMARK    3  A    between atoms: C_2  and  O_4
REMARK    4  A    between atoms: O_4  and  C_5
REMARK    5  A    between atoms: C_5  and  C_7
REMARK    6  A    between atoms: C_7  and  C_8
REMARK    7  A    between atoms: C_7  and  N_9
REMARK    8  A    between atoms: N_9  and  P_10
REMARK    9  A    between atoms: P_10  and  C_12
REMARK   10  A    between atoms: P_10  and  O_27
REMARK   11  A    between atoms: C_12  and  O_13
REMARK   12  A    between atoms: O_13  and  C_14
REMARK   13  A    between atoms: C_14  and  C_15
REMARK   14  A    between atoms: C_14  and  C_16
REMARK   15  A    between atoms: C_16  and  N_17
REMARK   16  A    between atoms: C_21  and  N_26
REMARK   17  A    between atoms: O_27  and  C_28
REMARK                            x       y       z     vdW  Elec       q    Type
REMARK                         _______ _______ _______ _____ _____    ______ ____
ROOT
ATOM      1  P   UNL     1       9.120  -1.736  22.743  0.00  0.00    +0.345 P 
ATOM      2  O   UNL     1      10.423  -2.440  23.007  0.00  0.00    -0.257 OA
ENDROOT
BRANCH   1   3
ATOM      3  N   UNL     1       9.300  -0.330  21.894  0.00  0.00    -0.221 NA
ATOM      4  H   UNL     1      10.222  -0.312  21.464  0.00  0.00    +0.133 HD
BRANCH   3   5
ATOM      5  C   UNL     1       9.040   0.973  22.509  0.00  0.00    +0.169 C 
ATOM      6  C   UNL     1       8.513   1.941  21.454  0.00  0.00    +0.036 C 
BRANCH   5   7
ATOM      7  C   UNL     1      10.280   1.546  23.192  0.00  0.00    +0.325 C 
ATOM      8  O   UNL     1      10.879   0.955  24.084  0.00  0.00    -0.249 OA
BRANCH   7   9
ATOM      9  O   UNL     1      10.625   2.763  22.683  0.00  0.00    -0.461 OA
BRANCH   9  11
ATOM     10  C   UNL     1      12.166   4.584  23.158  0.00  0.00    +0.052 C 
ATOM     11  C   UNL     1      10.976   3.769  23.652  0.00  0.00    +0.170 C 
ATOM     12  C   UNL     1       9.762   4.669  23.846  0.00  0.00    +0.052 C 
ENDBRANCH   9  11
ENDBRANCH   7   9
ENDBRANCH   5   7
ENDBRANCH   3   5
ENDBRANCH   1   3
BRANCH   1  13
ATOM     13  O   UNL     1       8.076  -2.649  21.895  0.00  0.00    -0.431 OA
BRANCH  13  14
ATOM     14  C   UNL     1       7.157  -3.450  22.517  0.00  0.00    +0.129 A 
ATOM     15  C   UNL     1       5.827  -3.033  22.508  0.00  0.00    +0.046 A 
ATOM     16  C   UNL     1       4.837  -3.884  23.004  0.00  0.00    +0.004 A 
ATOM     17  C   UNL     1       5.183  -5.135  23.515  0.00  0.00    +0.000 A 
ATOM     18  C   UNL     1       6.519  -5.519  23.577  0.00  0.00    +0.004 A 
ATOM     19  C   UNL     1       7.508  -4.669  23.093  0.00  0.00    +0.046 A 
ENDBRANCH  13  14
ENDBRANCH   1  13
BRANCH   1  20
ATOM     20  C   UNL     1       8.222  -1.450  24.284  0.00  0.00    +0.286 C 
BRANCH  20  21
ATOM     21  O   UNL     1       9.113  -1.646  25.388  0.00  0.00    -0.363 OA
BRANCH  21  22
ATOM     22  C   UNL     1       8.434  -1.788  26.644  0.00  0.00    +0.136 C 
ATOM     23  C   UNL     1       8.355  -0.434  27.343  0.00  0.00    +0.040 C 
BRANCH  22  24
ATOM     24  C   UNL     1       7.026  -2.320  26.346  0.00  0.00    +0.156 C 
BRANCH  24  25
ATOM     25  N   UNL     1       6.904  -3.712  26.738  0.00  0.00    -0.312 N 
ATOM     26  C   UNL     1       5.746  -4.338  27.103  0.00  0.00    +0.165 A 
ATOM     27  C   UNL     1       6.149  -5.585  27.553  0.00  0.00    +0.147 A 
ATOM     28  C   UNL     1       5.144  -6.419  28.071  0.00  0.00    +0.147 A 
ATOM     29  N   UNL     1       3.864  -5.981  28.045  0.00  0.00    -0.219 NA
ATOM     30  C   UNL     1       3.620  -4.743  27.557  0.00  0.00    +0.225 A 
ATOM     31  N   UNL     1       7.514  -5.743  27.408  0.00  0.00    -0.231 NA
ATOM     32  N   UNL     1       4.500  -3.842  27.076  0.00  0.00    -0.216 NA
ATOM     33  C   UNL     1       7.935  -4.593  26.921  0.00  0.00    +0.201 A 
BRANCH  28  34
ATOM     34  N   UNL     1       5.399  -7.668  28.618  0.00  0.00    -0.341 N 
ATOM     35  H   UNL     1       6.236  -8.093  28.244  0.00  0.00    +0.144 HD
ATOM     36  H   UNL     1       5.236  -7.719  29.617  0.00  0.00    +0.144 HD
ENDBRANCH  28  34
ENDBRANCH  24  25
ENDBRANCH  22  24
ENDBRANCH  21  22
ENDBRANCH  20  21
ENDBRANCH   1  20
TORSDOF 13
ENDMDL
MODEL 4
REMARK VINA RESULT:      -6.4      2.812      6.049
REMARK  Name = 
REMARK  17 active torsions:
REMARK  status: ('A' for Active; 'I' for Inactive)
REMARK    1  A    between atoms: C_1  and  C_2
REMARK    2  A    between atoms: C_2  and  C_3
REMARK    3  A    between atoms: C_2  and  O_4
REMARK    4  A    between atoms: O_4  and  C_5
REMARK    5  A    between atoms: C_5  and  C_7
REMARK    6  A    between atoms: C_7  and  C_8
REMARK    7  A    between atoms: C_7  and  N_9
REMARK    8  A    between atoms: N_9  and  P_10
REMARK    9  A    between atoms: P_10  and  C_12
REMARK   10  A    between atoms: P_10  and  O_27
REMARK   11  A    between atoms: C_12  and  O_13
REMARK   12  A    between atoms: O_13  and  C_14
REMARK   13  A    between atoms: C_14  and  C_15
REMARK   14  A    between atoms: C_14  and  C_16
REMARK   15  A    between atoms: C_16  and  N_17
REMARK   16  A    between atoms: C_21  and  N_26
REMARK   17  A    between atoms: O_27  and  C_28
REMARK                            x       y       z     vdW  Elec       q    Type
REMARK                         _______ _______ _______ _____ _____    ______ ____
ROOT
ATOM      1  P   UNL     1       8.211  -2.693  23.532  0.00  0.00    +0.345 P 
ATOM      2  O   UNL     1       7.554  -2.644  22.180  0.00  0.00    -0.257 OA
ENDROOT
BRANCH   1   3
ATOM      3  N   UNL     1       8.254  -4.212  24.181  0.00  0.00    -0.221 NA
ATOM      4  H   UNL     1       7.388  -4.697  23.957  0.00  0.00    +0.133 HD
BRANCH   3   5
ATOM      5  C   UNL     1       8.568  -4.432  25.594  0.00  0.00    +0.169 C 
ATOM      6  C   UNL     1       9.968  -5.024  25.721  0.00  0.00    +0.036 C 
BRANCH   5   7
ATOM      7  C   UNL     1       7.541  -5.331  26.280  0.00  0.00    +0.325 C 
ATOM      8  O   UNL     1       7.642  -5.679  27.451  0.00  0.00    -0.249 OA
BRANCH   7   9
ATOM      9  O   UNL     1       6.522  -5.672  25.441  0.00  0.00    -0.461 OA
BRANCH   9  11
ATOM     10  C   UNL     1       4.567  -4.248  25.179  0.00  0.00    +0.052 C 
ATOM     11  C   UNL     1       5.193  -5.414  25.935  0.00  0.00    +0.170 C 
ATOM     12  C   UNL     1       4.370  -6.680  25.730  0.00  0.00    +0.052 C 
ENDBRANCH   9  11
ENDBRANCH   7   9
ENDBRANCH   5   7
ENDBRANCH   3   5
ENDBRANCH   1   3
BRANCH   1  13
ATOM     13  O   UNL     1       9.749  -2.168  23.500  0.00  0.00    -0.431 OA
BRANCH  13  14
ATOM     14  C   UNL     1      10.051  -0.847  23.305  0.00  0.00    +0.129 A 
ATOM     15  C   UNL     1       9.801  -0.307  22.045  0.00  0.00    +0.046 A 
ATOM     16  C   UNL     1       9.960   1.065  21.842  0.00  0.00    +0.004 A 
ATOM     17  C   UNL     1      10.379   1.882  22.890  0.00  0.00    +0.000 A 
ATOM     18  C   UNL     1      10.686   1.327  24.129  0.00  0.00    +0.004 A 
ATOM     19  C   UNL     1      10.538  -0.041  24.331  0.00  0.00    +0.046 A 
ENDBRANCH  13  14
ENDBRANCH   1  13
BRANCH   1  20
ATOM     20  C   UNL     1       7.427  -1.527  24.668  0.00  0.00    +0.286 C 
BRANCH  20  21
ATOM     21  O   UNL     1       6.330  -0.892  24.002  0.00  0.00    -0.363 OA
BRANCH  21  22
ATOM     22  C   UNL     1       5.814   0.240  24.718  0.00  0.00    +0.136 C 
ATOM     23  C   UNL     1       5.228  -0.215  26.051  0.00  0.00    +0.040 C 
BRANCH  22  24
ATOM     24  C   UNL     1       6.983   1.208  24.949  0.00  0.00    +0.156 C 
BRANCH  24  25
ATOM     25  N   UNL     1       7.071   2.180  23.874  0.00  0.00    -0.312 N 
ATOM     26  C   UNL     1       7.613   3.431  23.975  0.00  0.00    +0.165 A 
ATOM     27  C   UNL     1       7.314   4.040  22.768  0.00  0.00    +0.147 A 
ATOM     28  C   UNL     1       7.695   5.386  22.633  0.00  0.00    +0.147 A 
ATOM     29  N   UNL     1       8.367   5.970  23.651  0.00  0.00    -0.219 NA
ATOM     30  C   UNL     1       8.604   5.242  24.765  0.00  0.00    +0.225 A 
ATOM     31  N   UNL     1       6.659   3.163  21.923  0.00  0.00    -0.231 NA
ATOM     32  N   UNL     1       8.253   3.967  25.026  0.00  0.00    -0.216 NA
ATOM     33  C   UNL     1       6.525   2.056  22.626  0.00  0.00    +0.201 A 
BRANCH  28  34
ATOM     34  N   UNL     1       7.407   6.149  21.511  0.00  0.00    -0.341 N 
ATOM     35  H   UNL     1       7.582   7.133  21.654  0.00  0.00    +0.144 HD
ATOM     36  H   UNL     1       7.707   5.726  20.641  0.00  0.00    +0.144 HD
ENDBRANCH  28  34
ENDBRANCH  24  25
ENDBRANCH  22  24
ENDBRANCH  21  22
ENDBRANCH  20  21
ENDBRANCH   1  20
TORSDOF 13
ENDMDL
MODEL 5
REMARK VINA RESULT:      -6.4      2.701      5.958
REMARK  Name = 
REMARK  17 active torsions:
REMARK  status: ('A' for Active; 'I' for Inactive)
REMARK    1  A    between atoms: C_1  and  C_2
REMARK    2  A    between atoms: C_2  and  C_3
REMARK    3  A    between atoms: C_2  and  O_4
REMARK    4  A    between atoms: O_4  and  C_5
REMARK    5  A    between atoms: C_5  and  C_7
REMARK    6  A    between atoms: C_7  and  C_8
REMARK    7  A    between atoms: C_7  and  N_9
REMARK    8  A    between atoms: N_9  and  P_10
REMARK    9  A    between atoms: P_10  and  C_12
REMARK   10  A    between atoms: P_10  and  O_27
REMARK   11  A    between atoms: C_12  and  O_13
REMARK   12  A    between atoms: O_13  and  C_14
REMARK   13  A    between atoms: C_14  and  C_15
REMARK   14  A    between atoms: C_14  and  C_16
REMARK   15  A    between atoms: C_16  and  N_17
REMARK   16  A    between atoms: C_21  and  N_26
REMARK   17  A    between atoms: O_27  and  C_28
REMARK                            x       y       z     vdW  Elec       q    Type
REMARK                         _______ _______ _______ _____ _____    ______ ____
ROOT
ATOM      1  P   UNL     1       8.095  -1.418  25.469  0.00  0.00    +0.345 P 
ATOM      2  O   UNL     1       7.048  -1.332  24.393  0.00  0.00    -0.257 OA
ENDROOT
BRANCH   1   3
ATOM      3  N   UNL     1       8.130  -2.886  26.227  0.00  0.00    -0.221 NA
ATOM      4  H   UNL     1       9.052  -3.034  26.631  0.00  0.00    +0.133 HD
BRANCH   3   5
ATOM      5  C   UNL     1       7.713  -4.110  25.542  0.00  0.00    +0.169 C 
ATOM      6  C   UNL     1       7.458  -5.210  26.569  0.00  0.00    +0.036 C 
BRANCH   5   7
ATOM      7  C   UNL     1       8.737  -4.570  24.506  0.00  0.00    +0.325 C 
ATOM      8  O   UNL     1       9.771  -5.155  24.810  0.00  0.00    -0.249 OA
BRANCH   7   9
ATOM      9  O   UNL     1       8.352  -4.259  23.237  0.00  0.00    -0.461 OA
BRANCH   9  11
ATOM     10  C   UNL     1       6.351  -3.675  21.982  0.00  0.00    +0.052 C 
ATOM     11  C   UNL     1       7.042  -4.719  22.852  0.00  0.00    +0.170 C 
ATOM     12  C   UNL     1       7.217  -6.020  22.076  0.00  0.00    +0.052 C 
ENDBRANCH   9  11
ENDBRANCH   7   9
ENDBRANCH   5   7
ENDBRANCH   3   5
ENDBRANCH   1   3
BRANCH   1  13
ATOM     13  O   UNL     1       9.596  -1.161  24.903  0.00  0.00    -0.431 OA
BRANCH  13  14
ATOM     14  C   UNL     1       9.855  -0.192  23.972  0.00  0.00    +0.129 A 
ATOM     15  C   UNL     1       9.455  -0.435  22.659  0.00  0.00    +0.046 A 
ATOM     16  C   UNL     1       9.570   0.580  21.707  0.00  0.00    +0.004 A 
ATOM     17  C   UNL     1      10.092   1.821  22.068  0.00  0.00    +0.000 A 
ATOM     18  C   UNL     1      10.546   2.037  23.367  0.00  0.00    +0.004 A 
ATOM     19  C   UNL     1      10.442   1.024  24.314  0.00  0.00    +0.046 A 
ENDBRANCH  13  14
ENDBRANCH   1  13
BRANCH   1  20
ATOM     20  C   UNL     1       7.897  -0.079  26.665  0.00  0.00    +0.286 C 
BRANCH  20  21
ATOM     21  O   UNL     1       6.503   0.210  26.818  0.00  0.00    -0.363 OA
BRANCH  21  22
ATOM     22  C   UNL     1       6.131   1.495  26.298  0.00  0.00    +0.136 C 
ATOM     23  C   UNL     1       5.227   2.213  27.297  0.00  0.00    +0.040 C 
BRANCH  22  24
ATOM     24  C   UNL     1       7.425   2.292  26.078  0.00  0.00    +0.156 C 
BRANCH  24  25
ATOM     25  N   UNL     1       7.411   2.955  24.786  0.00  0.00    -0.312 N 
ATOM     26  C   UNL     1       7.923   4.193  24.522  0.00  0.00    +0.165 A 
ATOM     27  C   UNL     1       7.524   4.468  23.225  0.00  0.00    +0.147 A 
ATOM     28  C   UNL     1       7.857   5.737  22.722  0.00  0.00    +0.147 A 
ATOM     29  N   UNL     1       8.583   6.570  23.503  0.00  0.00    -0.219 NA
ATOM     30  C   UNL     1       8.917   6.156  24.745  0.00  0.00    +0.225 A 
ATOM     31  N   UNL     1       6.837   3.397  22.684  0.00  0.00    -0.231 NA
ATOM     32  N   UNL     1       8.620   4.988  25.350  0.00  0.00    -0.216 NA
ATOM     33  C   UNL     1       6.783   2.508  23.656  0.00  0.00    +0.201 A 
BRANCH  28  34
ATOM     34  N   UNL     1       7.471   6.182  21.466  0.00  0.00    -0.341 N 
ATOM     35  H   UNL     1       6.609   5.760  21.151  0.00  0.00    +0.144 HD
ATOM     36  H   UNL     1       7.602   7.177  21.326  0.00  0.00    +0.144 HD
ENDBRANCH  28  34
ENDBRANCH  24  25
ENDBRANCH  22  24
ENDBRANCH  21  22
ENDBRANCH  20  21
ENDBRANCH   1  20
TORSDOF 13
ENDMDL
MODEL 6
REMARK VINA RESULT:      -6.2      1.962      4.910
REMARK  Name = 
REMARK  17 active torsions:
REMARK  status: ('A' for Active; 'I' for Inactive)
REMARK    1  A    between atoms: C_1  and  C_2
REMARK    2  A    between atoms: C_2  and  C_3
REMARK    3  A    between atoms: C_2  and  O_4
REMARK    4  A    between atoms: O_4  and  C_5
REMARK    5  A    between atoms: C_5  and  C_7
REMARK    6  A    between atoms: C_7  and  C_8
REMARK    7  A    between atoms: C_7  and  N_9
REMARK    8  A    between atoms: N_9  and  P_10
REMARK    9  A    between atoms: P_10  and  C_12
REMARK   10  A    between atoms: P_10  and  O_27
REMARK   11  A    between atoms: C_12  and  O_13
REMARK   12  A    between atoms: O_13  and  C_14
REMARK   13  A    between atoms: C_14  and  C_15
REMARK   14  A    between atoms: C_14  and  C_16
REMARK   15  A    between atoms: C_16  and  N_17
REMARK   16  A    between atoms: C_21  and  N_26
REMARK   17  A    between atoms: O_27  and  C_28
REMARK                            x       y       z     vdW  Elec       q    Type
REMARK                         _______ _______ _______ _____ _____    ______ ____
ROOT
ATOM      1  P   UNL     1       5.891  -0.706  25.508  0.00  0.00    +0.345 P 
ATOM      2  O   UNL     1       6.832  -0.148  26.541  0.00  0.00    -0.257 OA
ENDROOT
BRANCH   1   3
ATOM      3  N   UNL     1       5.368   0.427  24.425  0.00  0.00    -0.221 NA
ATOM      4  H   UNL     1       5.595   0.121  23.482  0.00  0.00    +0.133 HD
BRANCH   3   5
ATOM      5  C   UNL     1       5.725   1.839  24.563  0.00  0.00    +0.169 C 
ATOM      6  C   UNL     1       4.474   2.701  24.418  0.00  0.00    +0.036 C 
BRANCH   5   7
ATOM      7  C   UNL     1       6.791   2.266  23.556  0.00  0.00    +0.325 C 
ATOM      8  O   UNL     1       6.778   1.905  22.384  0.00  0.00    -0.249 OA
BRANCH   7   9
ATOM      9  O   UNL     1       7.723   3.087  24.117  0.00  0.00    -0.461 OA
BRANCH   9  11
ATOM     10  C   UNL     1       9.843   4.235  23.793  0.00  0.00    +0.052 C 
ATOM     11  C   UNL     1       9.068   2.932  23.626  0.00  0.00    +0.170 C 
ATOM     12  C   UNL     1       9.728   1.818  24.430  0.00  0.00    +0.052 C 
ENDBRANCH   9  11
ENDBRANCH   7   9
ENDBRANCH   5   7
ENDBRANCH   3   5
ENDBRANCH   1   3
BRANCH   1  13
ATOM     13  O   UNL     1       6.561  -1.899  24.631  0.00  0.00    -0.431 OA
BRANCH  13  14
ATOM     14  C   UNL     1       7.718  -1.707  23.926  0.00  0.00    +0.129 A 
ATOM     15  C   UNL     1       8.923  -1.844  24.613  0.00  0.00    +0.046 A 
ATOM     16  C   UNL     1      10.126  -1.796  23.906  0.00  0.00    +0.004 A 
ATOM     17  C   UNL     1      10.118  -1.601  22.526  0.00  0.00    +0.000 A 
ATOM     18  C   UNL     1       8.915  -1.403  21.855  0.00  0.00    +0.004 A 
ATOM     19  C   UNL     1       7.716  -1.440  22.559  0.00  0.00    +0.046 A 
ENDBRANCH  13  14
ENDBRANCH   1  13
BRANCH   1  20
ATOM     20  C   UNL     1       4.496  -1.540  26.296  0.00  0.00    +0.286 C 
BRANCH  20  21
ATOM     21  O   UNL     1       4.240  -2.771  25.612  0.00  0.00    -0.363 OA
BRANCH  21  22
ATOM     22  C   UNL     1       3.571  -3.743  26.429  0.00  0.00    +0.136 C 
ATOM     23  C   UNL     1       2.087  -3.782  26.072  0.00  0.00    +0.040 C 
BRANCH  22  24
ATOM     24  C   UNL     1       4.224  -5.104  26.152  0.00  0.00    +0.156 C 
BRANCH  24  25
ATOM     25  N   UNL     1       5.662  -5.036  26.340  0.00  0.00    -0.312 N 
ATOM     26  C   UNL     1       6.600  -5.130  25.350  0.00  0.00    +0.165 A 
ATOM     27  C   UNL     1       7.811  -5.189  26.020  0.00  0.00    +0.147 A 
ATOM     28  C   UNL     1       8.957  -5.371  25.227  0.00  0.00    +0.147 A 
ATOM     29  N   UNL     1       8.811  -5.419  23.883  0.00  0.00    -0.219 NA
ATOM     30  C   UNL     1       7.563  -5.329  23.370  0.00  0.00    +0.225 A 
ATOM     31  N   UNL     1       7.625  -5.070  27.384  0.00  0.00    -0.231 NA
ATOM     32  N   UNL     1       6.392  -5.196  24.026  0.00  0.00    -0.216 NA
ATOM     33  C   UNL     1       6.319  -4.986  27.539  0.00  0.00    +0.201 A 
BRANCH  28  34
ATOM     34  N   UNL     1      10.231  -5.514  25.755  0.00  0.00    -0.341 N 
ATOM     35  H   UNL     1      10.743  -4.643  25.780  0.00  0.00    +0.144 HD
ATOM     36  H   UNL     1      10.273  -6.123  26.564  0.00  0.00    +0.144 HD
ENDBRANCH  28  34
ENDBRANCH  24  25
ENDBRANCH  22  24
ENDBRANCH  21  22
ENDBRANCH  20  21
ENDBRANCH   1  20
TORSDOF 13
ENDMDL
MODEL 7
REMARK VINA RESULT:      -6.0      2.091      5.153
REMARK  Name = 
REMARK  17 active torsions:
REMARK  status: ('A' for Active; 'I' for Inactive)
REMARK    1  A    between atoms: C_1  and  C_2
REMARK    2  A    between atoms: C_2  and  C_3
REMARK    3  A    between atoms: C_2  and  O_4
REMARK    4  A    between atoms: O_4  and  C_5
REMARK    5  A    between atoms: C_5  and  C_7
REMARK    6  A    between atoms: C_7  and  C_8
REMARK    7  A    between atoms: C_7  and  N_9
REMARK    8  A    between atoms: N_9  and  P_10
REMARK    9  A    between atoms: P_10  and  C_12
REMARK   10  A    between atoms: P_10  and  O_27
REMARK   11  A    between atoms: C_12  and  O_13
REMARK   12  A    between atoms: O_13  and  C_14
REMARK   13  A    between atoms: C_14  and  C_15
REMARK   14  A    between atoms: C_14  and  C_16
REMARK   15  A    between atoms: C_16  and  N_17
REMARK   16  A    between atoms: C_21  and  N_26
REMARK   17  A    between atoms: O_27  and  C_28
REMARK                            x       y       z     vdW  Elec       q    Type
REMARK                         _______ _______ _______ _____ _____    ______ ____
ROOT
ATOM      1  P   UNL     1       8.576  -2.011  24.695  0.00  0.00    +0.345 P 
ATOM      2  O   UNL     1       8.747  -2.094  26.186  0.00  0.00    -0.257 OA
ENDROOT
BRANCH   1   3
ATOM      3  N   UNL     1       7.414  -0.931  24.232  0.00  0.00    -0.221 NA
ATOM      4  H   UNL     1       7.823  -0.249  23.597  0.00  0.00    +0.133 HD
BRANCH   3   5
ATOM      5  C   UNL     1       6.590  -0.227  25.215  0.00  0.00    +0.169 C 
ATOM      6  C   UNL     1       5.444  -1.130  25.664  0.00  0.00    +0.036 C 
BRANCH   5   7
ATOM      7  C   UNL     1       6.050   1.096  24.675  0.00  0.00    +0.325 C 
ATOM      8  O   UNL     1       4.859   1.385  24.697  0.00  0.00    -0.249 OA
BRANCH   7   9
ATOM      9  O   UNL     1       7.045   1.892  24.190  0.00  0.00    -0.461 OA
BRANCH   9  11
ATOM     10  C   UNL     1       7.594   4.251  24.421  0.00  0.00    +0.052 C 
ATOM     11  C   UNL     1       6.649   3.223  23.807  0.00  0.00    +0.170 C 
ATOM     12  C   UNL     1       6.699   3.301  22.286  0.00  0.00    +0.052 C 
ENDBRANCH   9  11
ENDBRANCH   7   9
ENDBRANCH   5   7
ENDBRANCH   3   5
ENDBRANCH   1   3
BRANCH   1  13
ATOM     13  O   UNL     1       9.940  -1.567  23.932  0.00  0.00    -0.431 OA
BRANCH  13  14
ATOM     14  C   UNL     1      10.145  -0.276  23.524  0.00  0.00    +0.129 A 
ATOM     15  C   UNL     1       9.828   0.042  22.204  0.00  0.00    +0.046 A 
ATOM     16  C   UNL     1       9.886   1.373  21.786  0.00  0.00    +0.004 A 
ATOM     17  C   UNL     1      10.272   2.370  22.680  0.00  0.00    +0.000 A 
ATOM     18  C   UNL     1      10.647   2.037  23.979  0.00  0.00    +0.004 A 
ATOM     19  C   UNL     1      10.599   0.711  24.395  0.00  0.00    +0.046 A 
ENDBRANCH  13  14
ENDBRANCH   1  13
BRANCH   1  20
ATOM     20  C   UNL     1       8.254  -3.645  23.995  0.00  0.00    +0.286 C 
BRANCH  20  21
ATOM     21  O   UNL     1       7.312  -3.517  22.924  0.00  0.00    -0.363 OA
BRANCH  21  22
ATOM     22  C   UNL     1       6.205  -4.424  23.034  0.00  0.00    +0.136 C 
ATOM     23  C   UNL     1       5.723  -4.821  21.641  0.00  0.00    +0.040 C 
BRANCH  22  24
ATOM     24  C   UNL     1       6.699  -5.659  23.801  0.00  0.00    +0.156 C 
BRANCH  24  25
ATOM     25  N   UNL     1       5.736  -6.060  24.811  0.00  0.00    -0.312 N 
ATOM     26  C   UNL     1       5.942  -6.034  26.162  0.00  0.00    +0.165 A 
ATOM     27  C   UNL     1       4.831  -6.664  26.697  0.00  0.00    +0.147 A 
ATOM     28  C   UNL     1       4.824  -6.846  28.090  0.00  0.00    +0.147 A 
ATOM     29  N   UNL     1       5.857  -6.351  28.810  0.00  0.00    -0.219 NA
ATOM     30  C   UNL     1       6.866  -5.742  28.149  0.00  0.00    +0.225 A 
ATOM     31  N   UNL     1       3.936  -7.013  25.703  0.00  0.00    -0.231 NA
ATOM     32  N   UNL     1       7.004  -5.547  26.821  0.00  0.00    -0.216 NA
ATOM     33  C   UNL     1       4.518  -6.639  24.581  0.00  0.00    +0.201 A 
BRANCH  28  34
ATOM     34  N   UNL     1       3.814  -7.516  28.765  0.00  0.00    -0.341 N 
ATOM     35  H   UNL     1       3.795  -7.300  29.752  0.00  0.00    +0.144 HD
ATOM     36  H   UNL     1       2.936  -7.549  28.260  0.00  0.00    +0.144 HD
ENDBRANCH  28  34
ENDBRANCH  24  25
ENDBRANCH  22  24
ENDBRANCH  21  22
ENDBRANCH  20  21
ENDBRANCH   1  20
TORSDOF 13
ENDMDL
MODEL 8
REMARK VINA RESULT:      -5.9      1.965      3.992
REMARK  Name = 
REMARK  17 active torsions:
REMARK  status: ('A' for Active; 'I' for Inactive)
REMARK    1  A    between atoms: C_1  and  C_2
REMARK    2  A    between atoms: C_2  and  C_3
REMARK    3  A    between atoms: C_2  and  O_4
REMARK    4  A    between atoms: O_4  and  C_5
REMARK    5  A    between atoms: C_5  and  C_7
REMARK    6  A    between atoms: C_7  and  C_8
REMARK    7  A    between atoms: C_7  and  N_9
REMARK    8  A    between atoms: N_9  and  P_10
REMARK    9  A    between atoms: P_10  and  C_12
REMARK   10  A    between atoms: P_10  and  O_27
REMARK   11  A    between atoms: C_12  and  O_13
REMARK   12  A    between atoms: O_13  and  C_14
REMARK   13  A    between atoms: C_14  and  C_15
REMARK   14  A    between atoms: C_14  and  C_16
REMARK   15  A    between atoms: C_16  and  N_17
REMARK   16  A    between atoms: C_21  and  N_26
REMARK   17  A    between atoms: O_27  and  C_28
REMARK                            x       y       z     vdW  Elec       q    Type
REMARK                         _______ _______ _______ _____ _____    ______ ____
ROOT
ATOM      1  P   UNL     1       9.863   1.169  24.125  0.00  0.00    +0.345 P 
ATOM      2  O   UNL     1      11.246   0.758  24.548  0.00  0.00    -0.257 OA
ENDROOT
BRANCH   1   3
ATOM      3  N   UNL     1       8.885   1.568  25.396  0.00  0.00    -0.221 NA
ATOM      4  H   UNL     1       9.315   1.255  26.263  0.00  0.00    +0.133 HD
BRANCH   3   5
ATOM      5  C   UNL     1       7.467   1.203  25.413  0.00  0.00    +0.169 C 
ATOM      6  C   UNL     1       6.651   2.286  24.713  0.00  0.00    +0.036 C 
BRANCH   5   7
ATOM      7  C   UNL     1       6.948   0.974  26.832  0.00  0.00    +0.325 C 
ATOM      8  O   UNL     1       6.911   1.862  27.676  0.00  0.00    -0.249 OA
BRANCH   7   9
ATOM      9  O   UNL     1       6.534  -0.311  27.020  0.00  0.00    -0.461 OA
BRANCH   9  11
ATOM     10  C   UNL     1       5.149  -2.202  26.369  0.00  0.00    +0.052 C 
ATOM     11  C   UNL     1       5.335  -0.690  26.317  0.00  0.00    +0.170 C 
ATOM     12  C   UNL     1       4.161   0.010  26.993  0.00  0.00    +0.052 C 
ENDBRANCH   9  11
ENDBRANCH   7   9
ENDBRANCH   5   7
ENDBRANCH   3   5
ENDBRANCH   1   3
BRANCH   1  13
ATOM     13  O   UNL     1       9.869   2.457  23.134  0.00  0.00    -0.431 OA
BRANCH  13  14
ATOM     14  C   UNL     1      10.388   3.661  23.527  0.00  0.00    +0.129 A 
ATOM     15  C   UNL     1      11.737   3.898  23.269  0.00  0.00    +0.046 A 
ATOM     16  C   UNL     1      12.273   5.162  23.524  0.00  0.00    +0.004 A 
ATOM     17  C   UNL     1      11.466   6.172  24.044  0.00  0.00    +0.000 A 
ATOM     18  C   UNL     1      10.135   5.911  24.357  0.00  0.00    +0.004 A 
ATOM     19  C   UNL     1       9.601   4.650  24.114  0.00  0.00    +0.046 A 
ENDBRANCH  13  14
ENDBRANCH   1  13
BRANCH   1  20
ATOM     20  C   UNL     1       9.101  -0.107  23.098  0.00  0.00    +0.286 C 
BRANCH  20  21
ATOM     21  O   UNL     1       9.477  -1.395  23.597  0.00  0.00    -0.363 OA
BRANCH  21  22
ATOM     22  C   UNL     1       8.365  -2.160  24.084  0.00  0.00    +0.136 C 
ATOM     23  C   UNL     1       7.125  -1.856  23.248  0.00  0.00    +0.040 C 
BRANCH  22  24
ATOM     24  C   UNL     1       8.741  -3.643  23.965  0.00  0.00    +0.156 C 
BRANCH  24  25
ATOM     25  N   UNL     1       8.190  -4.407  25.070  0.00  0.00    -0.312 N 
ATOM     26  C   UNL     1       7.048  -5.157  25.026  0.00  0.00    +0.165 A 
ATOM     27  C   UNL     1       6.835  -5.545  26.339  0.00  0.00    +0.147 A 
ATOM     28  C   UNL     1       5.661  -6.275  26.594  0.00  0.00    +0.147 A 
ATOM     29  N   UNL     1       4.861  -6.595  25.551  0.00  0.00    -0.219 NA
ATOM     30  C   UNL     1       5.209  -6.161  24.319  0.00  0.00    +0.225 A 
ATOM     31  N   UNL     1       7.854  -5.096  27.157  0.00  0.00    -0.231 NA
ATOM     32  N   UNL     1       6.280  -5.423  23.959  0.00  0.00    -0.216 NA
ATOM     33  C   UNL     1       8.648  -4.410  26.359  0.00  0.00    +0.201 A 
BRANCH  28  34
ATOM     34  N   UNL     1       5.277  -6.677  27.865  0.00  0.00    -0.341 N 
ATOM     35  H   UNL     1       5.134  -7.675  27.931  0.00  0.00    +0.144 HD
ATOM     36  H   UNL     1       5.778  -6.209  28.611  0.00  0.00    +0.144 HD
ENDBRANCH  28  34
ENDBRANCH  24  25
ENDBRANCH  22  24
ENDBRANCH  21  22
ENDBRANCH  20  21
ENDBRANCH   1  20
TORSDOF 13
ENDMDL
MODEL 9
REMARK VINA RESULT:      -5.8      2.124      4.939
REMARK  Name = 
REMARK  17 active torsions:
REMARK  status: ('A' for Active; 'I' for Inactive)
REMARK    1  A    between atoms: C_1  and  C_2
REMARK    2  A    between atoms: C_2  and  C_3
REMARK    3  A    between atoms: C_2  and  O_4
REMARK    4  A    between atoms: O_4  and  C_5
REMARK    5  A    between atoms: C_5  and  C_7
REMARK    6  A    between atoms: C_7  and  C_8
REMARK    7  A    between atoms: C_7  and  N_9
REMARK    8  A    between atoms: N_9  and  P_10
REMARK    9  A    between atoms: P_10  and  C_12
REMARK   10  A    between atoms: P_10  and  O_27
REMARK   11  A    between atoms: C_12  and  O_13
REMARK   12  A    between atoms: O_13  and  C_14
REMARK   13  A    between atoms: C_14  and  C_15
REMARK   14  A    between atoms: C_14  and  C_16
REMARK   15  A    between atoms: C_16  and  N_17
REMARK   16  A    between atoms: C_21  and  N_26
REMARK   17  A    between atoms: O_27  and  C_28
REMARK                            x       y       z     vdW  Elec       q    Type
REMARK                         _______ _______ _______ _____ _____    ______ ____
ROOT
ATOM      1  P   UNL     1       6.345  -1.279  25.741  0.00  0.00    +0.345 P 
ATOM      2  O   UNL     1       7.218  -1.819  26.841  0.00  0.00    -0.257 OA
ENDROOT
BRANCH   1   3
ATOM      3  N   UNL     1       6.452   0.362  25.572  0.00  0.00    -0.221 NA
ATOM      4  H   UNL     1       6.381   0.603  24.586  0.00  0.00    +0.133 HD
BRANCH   3   5
ATOM      5  C   UNL     1       7.551   1.122  26.167  0.00  0.00    +0.169 C 
ATOM      6  C   UNL     1       6.990   2.175  27.118  0.00  0.00    +0.036 C 
BRANCH   5   7
ATOM      7  C   UNL     1       8.442   1.773  25.111  0.00  0.00    +0.325 C 
ATOM      8  O   UNL     1       9.541   1.326  24.802  0.00  0.00    -0.249 OA
BRANCH   7   9
ATOM      9  O   UNL     1       7.860   2.879  24.567  0.00  0.00    -0.461 OA
BRANCH   9  11
ATOM     10  C   UNL     1       7.579   3.010  22.153  0.00  0.00    +0.052 C 
ATOM     11  C   UNL     1       8.457   3.364  23.348  0.00  0.00    +0.170 C 
ATOM     12  C   UNL     1       8.597   4.877  23.471  0.00  0.00    +0.052 C 
ENDBRANCH   9  11
ENDBRANCH   7   9
ENDBRANCH   5   7
ENDBRANCH   3   5
ENDBRANCH   1   3
BRANCH   1  13
ATOM     13  O   UNL     1       6.706  -1.911  24.289  0.00  0.00    -0.431 OA
BRANCH  13  14
ATOM     14  C   UNL     1       7.872  -1.600  23.642  0.00  0.00    +0.129 A 
ATOM     15  C   UNL     1       9.052  -2.158  24.133  0.00  0.00    +0.046 A 
ATOM     16  C   UNL     1      10.241  -1.983  23.423  0.00  0.00    +0.004 A 
ATOM     17  C   UNL     1      10.247  -1.246  22.240  0.00  0.00    +0.000 A 
ATOM     18  C   UNL     1       9.078  -0.641  21.788  0.00  0.00    +0.004 A 
ATOM     19  C   UNL     1       7.894  -0.804  22.498  0.00  0.00    +0.046 A 
ENDBRANCH  13  14
ENDBRANCH   1  13
BRANCH   1  20
ATOM     20  C   UNL     1       4.630  -1.794  25.973  0.00  0.00    +0.286 C 
BRANCH  20  21
ATOM     21  O   UNL     1       4.215  -2.564  24.839  0.00  0.00    -0.363 OA
BRANCH  21  22
ATOM     22  C   UNL     1       3.560  -3.789  25.197  0.00  0.00    +0.136 C 
ATOM     23  C   UNL     1       2.047  -3.587  25.186  0.00  0.00    +0.040 C 
BRANCH  22  24
ATOM     24  C   UNL     1       3.966  -4.847  24.162  0.00  0.00    +0.156 C 
BRANCH  24  25
ATOM     25  N   UNL     1       5.392  -5.116  24.229  0.00  0.00    -0.312 N 
ATOM     26  C   UNL     1       6.119  -5.273  25.376  0.00  0.00    +0.165 A 
ATOM     27  C   UNL     1       7.435  -5.331  24.949  0.00  0.00    +0.147 A 
ATOM     28  C   UNL     1       8.415  -5.412  25.953  0.00  0.00    +0.147 A 
ATOM     29  N   UNL     1       8.014  -5.485  27.243  0.00  0.00    -0.219 NA
ATOM     30  C   UNL     1       6.689  -5.435  27.506  0.00  0.00    +0.225 A 
ATOM     31  N   UNL     1       7.510  -5.275  23.571  0.00  0.00    -0.231 NA
ATOM     32  N   UNL     1       5.664  -5.315  26.637  0.00  0.00    -0.216 NA
ATOM     33  C   UNL     1       6.260  -5.139  23.173  0.00  0.00    +0.201 A 
BRANCH  28  34
ATOM     34  N   UNL     1       9.777  -5.413  25.687  0.00  0.00    -0.341 N 
ATOM     35  H   UNL     1       9.983  -5.561  24.709  0.00  0.00    +0.144 HD
ATOM     36  H   UNL     1      10.292  -4.697  26.187  0.00  0.00    +0.144 HD
ENDBRANCH  28  34
ENDBRANCH  24  25
ENDBRANCH  22  24
ENDBRANCH  21  22
ENDBRANCH  20  21
ENDBRANCH   1  20
TORSDOF 13
ENDMDL
