MODEL 1
REMARK VINA RESULT:      -7.7      0.000      0.000
REMARK  Name = 
REMARK  7 active torsions:
REMARK  status: ('A' for Active; 'I' for Inactive)
REMARK    1  A    between atoms: C_1  and  O_2
REMARK    2  A    between atoms: O_2  and  C_3
REMARK    3  A    between atoms: C_3  and  O_5
REMARK    4  A    between atoms: O_5  and  C_6
REMARK    5  A    between atoms: C_6  and  O_7
REMARK    6  A    between atoms: O_7  and  C_8
REMARK    7  A    between atoms: N_19  and  C_25
REMARK                            x       y       z     vdW  Elec       q    Type
REMARK                         _______ _______ _______ _____ _____    ______ ____
ROOT
ATOM      1  C   UNL     1       8.660  -0.792  23.203  0.00  0.00    +0.201 A 
ATOM      2  C   UNL     1       9.804  -1.696  22.828  0.00  0.00    +0.224 A 
ATOM      3  O   UNL     1      10.471  -1.536  21.810  0.00  0.00    -0.284 OA
ATOM      4  C   UNL     1      10.161  -2.776  23.769  0.00  0.00    +0.074 A 
ATOM      5  C   UNL     1       9.290  -3.059  24.741  0.00  0.00    +0.113 A 
ATOM      6  N   UNL     1       8.038  -2.481  24.846  0.00  0.00    -0.260 N 
ATOM      7  N   UNL     1       7.156  -2.949  25.917  0.00  0.00    -0.236 N 
ATOM      8  C   UNL     1       6.615  -1.712  26.580  0.00  0.00    +0.206 C 
ATOM      9  N   UNL     1       5.897  -0.928  25.588  0.00  0.00    -0.272 N 
ATOM     10  C   UNL     1       4.675  -0.244  25.990  0.00  0.00    +0.138 C 
ATOM     11  C   UNL     1       3.773  -1.056  26.929  0.00  0.00    +0.179 C 
ATOM     12  O   UNL     1       4.441  -2.033  27.733  0.00  0.00    -0.375 OA
ATOM     13  C   UNL     1       6.583  -0.471  24.480  0.00  0.00    +0.270 C 
ATOM     14  O   UNL     1       6.189   0.492  23.831  0.00  0.00    -0.268 OA
ATOM     15  C   UNL     1       5.823  -1.735  27.918  0.00  0.00    +0.203 C 
ATOM     16  C   UNL     1       7.803  -1.279  24.135  0.00  0.00    +0.169 A 
ENDROOT
BRANCH   7  17
ATOM     17  C   UNL     1       6.088  -3.933  25.413  0.00  0.00    +0.155 C 
ATOM     18  C   UNL     1       6.310  -4.623  24.047  0.00  0.00    -0.008 A 
ATOM     19  C   UNL     1       5.196  -4.871  23.216  0.00  0.00    +0.014 A 
ATOM     20  C   UNL     1       5.347  -5.465  21.952  0.00  0.00    +0.015 A 
ATOM     21  C   UNL     1       6.608  -5.832  21.496  0.00  0.00    +0.001 A 
ATOM     22  C   UNL     1       7.705  -5.678  22.333  0.00  0.00    +0.000 A 
ATOM     23  S   UNL     1       3.533  -4.642  23.829  0.00  0.00    -0.120 S 
ATOM     24  C   UNL     1       3.591  -5.934  25.094  0.00  0.00    +0.112 C 
ATOM     25  C   UNL     1       4.422  -5.714  26.346  0.00  0.00    +0.006 A 
ATOM     26  C   UNL     1       3.973  -6.424  27.481  0.00  0.00    +0.163 A 
ATOM     27  F   UNL     1       2.810  -7.095  27.428  0.00  0.00    -0.202 F 
ATOM     28  C   UNL     1       4.705  -6.460  28.657  0.00  0.00    +0.159 A 
ATOM     29  F   UNL     1       4.204  -7.053  29.750  0.00  0.00    -0.202 F 
ATOM     30  C   UNL     1       5.976  -5.922  28.694  0.00  0.00    +0.041 A 
ATOM     31  C   UNL     1       6.478  -5.272  27.563  0.00  0.00    +0.009 A 
ATOM     32  C   UNL     1       7.543  -5.132  23.614  0.00  0.00    +0.007 A 
ATOM     33  C   UNL     1       5.663  -5.019  26.438  0.00  0.00    -0.014 A 
ENDBRANCH   7  17
BRANCH   1  34
ATOM     34  O   UNL     1       8.532   0.459  22.619  0.00  0.00    -0.450 OA
BRANCH  34  35
ATOM     35  C   UNL     1       9.611   1.367  22.865  0.00  0.00    +0.473 C 
BRANCH  35  36
ATOM     36  O   UNL     1       9.274   2.324  23.871  0.00  0.00    -0.397 OA
BRANCH  36  37
ATOM     37  C   UNL     1       9.857   3.526  23.689  0.00  0.00    +0.513 C 
ATOM     38  O   UNL     1       9.329   4.617  23.871  0.00  0.00    -0.203 OA
BRANCH  37  40
ATOM     39  C   UNL     1      11.944   4.521  23.307  0.00  0.00    +0.284 C 
ATOM     40  O   UNL     1      11.147   3.333  23.320  0.00  0.00    -0.437 OA
ENDBRANCH  37  40
ENDBRANCH  36  37
ENDBRANCH  35  36
ENDBRANCH  34  35
ENDBRANCH   1  34
TORSDOF 6
ENDMDL
MODEL 2
REMARK VINA RESULT:      -7.5      4.716      8.330
REMARK  Name = 
REMARK  7 active torsions:
REMARK  status: ('A' for Active; 'I' for Inactive)
REMARK    1  A    between atoms: C_1  and  O_2
REMARK    2  A    between atoms: O_2  and  C_3
REMARK    3  A    between atoms: C_3  and  O_5
REMARK    4  A    between atoms: O_5  and  C_6
REMARK    5  A    between atoms: C_6  and  O_7
REMARK    6  A    between atoms: O_7  and  C_8
REMARK    7  A    between atoms: N_19  and  C_25
REMARK                            x       y       z     vdW  Elec       q    Type
REMARK                         _______ _______ _______ _____ _____    ______ ____
ROOT
ATOM      1  C   UNL     1       8.378  -1.861  25.172  0.00  0.00    +0.201 A 
ATOM      2  C   UNL     1       8.631  -2.323  23.762  0.00  0.00    +0.224 A 
ATOM      3  O   UNL     1       9.538  -3.096  23.469  0.00  0.00    -0.284 OA
ATOM      4  C   UNL     1       7.698  -1.865  22.713  0.00  0.00    +0.074 A 
ATOM      5  C   UNL     1       6.870  -0.863  23.019  0.00  0.00    +0.113 A 
ATOM      6  N   UNL     1       6.914  -0.165  24.212  0.00  0.00    -0.260 N 
ATOM      7  N   UNL     1       5.997   0.965  24.378  0.00  0.00    -0.236 N 
ATOM      8  C   UNL     1       5.361   0.789  25.729  0.00  0.00    +0.206 C 
ATOM      9  N   UNL     1       6.407   0.786  26.739  0.00  0.00    -0.272 N 
ATOM     10  C   UNL     1       6.148   1.440  28.014  0.00  0.00    +0.138 C 
ATOM     11  C   UNL     1       5.380   2.764  27.903  0.00  0.00    +0.179 C 
ATOM     12  O   UNL     1       4.536   2.893  26.756  0.00  0.00    -0.375 OA
ATOM     13  C   UNL     1       7.388  -0.185  26.675  0.00  0.00    +0.270 C 
ATOM     14  O   UNL     1       8.041  -0.505  27.662  0.00  0.00    -0.268 OA
ATOM     15  C   UNL     1       4.148   1.630  26.219  0.00  0.00    +0.203 C 
ATOM     16  C   UNL     1       7.596  -0.759  25.301  0.00  0.00    +0.169 A 
ENDROOT
BRANCH   7  17
ATOM     17  C   UNL     1       6.688   2.321  24.158  0.00  0.00    +0.155 C 
ATOM     18  C   UNL     1       8.105   2.333  23.538  0.00  0.00    -0.008 A 
ATOM     19  C   UNL     1       9.038   3.295  23.980  0.00  0.00    +0.014 A 
ATOM     20  C   UNL     1      10.348   3.328  23.473  0.00  0.00    +0.015 A 
ATOM     21  C   UNL     1      10.749   2.410  22.510  0.00  0.00    +0.001 A 
ATOM     22  C   UNL     1       9.822   1.512  21.997  0.00  0.00    +0.000 A 
ATOM     23  S   UNL     1       8.526   4.643  25.036  0.00  0.00    -0.120 S 
ATOM     24  C   UNL     1       7.417   5.437  23.847  0.00  0.00    +0.112 C 
ATOM     25  C   UNL     1       6.090   4.779  23.510  0.00  0.00    +0.006 A 
ATOM     26  C   UNL     1       5.081   5.672  23.092  0.00  0.00    +0.163 A 
ATOM     27  F   UNL     1       5.295   6.997  23.160  0.00  0.00    -0.202 F 
ATOM     28  C   UNL     1       3.866   5.223  22.597  0.00  0.00    +0.159 A 
ATOM     29  F   UNL     1       2.889   6.094  22.308  0.00  0.00    -0.202 F 
ATOM     30  C   UNL     1       3.675   3.877  22.359  0.00  0.00    +0.041 A 
ATOM     31  C   UNL     1       4.684   2.971  22.699  0.00  0.00    +0.009 A 
ATOM     32  C   UNL     1       8.502   1.516  22.469  0.00  0.00    +0.007 A 
ATOM     33  C   UNL     1       5.829   3.381  23.418  0.00  0.00    -0.014 A 
ENDBRANCH   7  17
BRANCH   1  34
ATOM     34  O   UNL     1       8.917  -2.552  26.246  0.00  0.00    -0.450 OA
BRANCH  34  35
ATOM     35  C   UNL     1       8.542  -3.930  26.343  0.00  0.00    +0.473 C 
BRANCH  35  36
ATOM     36  O   UNL     1       7.298  -4.090  27.027  0.00  0.00    -0.397 OA
BRANCH  36  37
ATOM     37  C   UNL     1       6.966  -5.377  27.251  0.00  0.00    +0.513 C 
ATOM     38  O   UNL     1       7.083  -5.977  28.313  0.00  0.00    -0.203 OA
BRANCH  37  40
ATOM     39  C   UNL     1       5.163  -6.531  26.298  0.00  0.00    +0.284 C 
ATOM     40  O   UNL     1       6.429  -5.891  26.116  0.00  0.00    -0.437 OA
ENDBRANCH  37  40
ENDBRANCH  36  37
ENDBRANCH  35  36
ENDBRANCH  34  35
ENDBRANCH   1  34
TORSDOF 6
ENDMDL
MODEL 3
REMARK VINA RESULT:      -7.4      2.921      5.727
REMARK  Name = 
REMARK  7 active torsions:
REMARK  status: ('A' for Active; 'I' for Inactive)
REMARK    1  A    between atoms: C_1  and  O_2
REMARK    2  A    between atoms: O_2  and  C_3
REMARK    3  A    between atoms: C_3  and  O_5
REMARK    4  A    between atoms: O_5  and  C_6
REMARK    5  A    between atoms: C_6  and  O_7
REMARK    6  A    between atoms: O_7  and  C_8
REMARK    7  A    between atoms: N_19  and  C_25
REMARK                            x       y       z     vdW  Elec       q    Type
REMARK                         _______ _______ _______ _____ _____    ______ ____
ROOT
ATOM      1  C   UNL     1       8.219   3.635  24.208  0.00  0.00    +0.201 A 
ATOM      2  C   UNL     1       6.837   4.225  24.294  0.00  0.00    +0.224 A 
ATOM      3  O   UNL     1       6.602   5.283  24.871  0.00  0.00    -0.284 OA
ATOM      4  C   UNL     1       5.746   3.519  23.594  0.00  0.00    +0.074 A 
ATOM      5  C   UNL     1       5.987   2.276  23.172  0.00  0.00    +0.113 A 
ATOM      6  N   UNL     1       7.150   1.580  23.449  0.00  0.00    -0.260 N 
ATOM      7  N   UNL     1       7.243   0.192  22.992  0.00  0.00    -0.236 N 
ATOM      8  C   UNL     1       8.584   0.065  22.321  0.00  0.00    +0.206 C 
ATOM      9  N   UNL     1       9.620   0.388  23.289  0.00  0.00    -0.272 N 
ATOM     10  C   UNL     1      10.858  -0.377  23.267  0.00  0.00    +0.138 C 
ATOM     11  C   UNL     1      10.671  -1.880  23.019  0.00  0.00    +0.179 C 
ATOM     12  O   UNL     1       9.498  -2.242  22.286  0.00  0.00    -0.375 OA
ATOM     13  C   UNL     1       9.623   1.645  23.862  0.00  0.00    +0.270 C 
ATOM     14  O   UNL     1      10.639   2.127  24.350  0.00  0.00    -0.268 OA
ATOM     15  C   UNL     1       9.005  -1.173  21.481  0.00  0.00    +0.203 C 
ATOM     16  C   UNL     1       8.281   2.323  23.867  0.00  0.00    +0.169 A 
ENDROOT
BRANCH   7  17
ATOM     17  C   UNL     1       6.984  -0.819  24.120  0.00  0.00    +0.155 C 
ATOM     18  C   UNL     1       6.179  -0.353  25.356  0.00  0.00    -0.008 A 
ATOM     19  C   UNL     1       6.527  -0.852  26.629  0.00  0.00    +0.014 A 
ATOM     20  C   UNL     1       5.849  -0.436  27.787  0.00  0.00    +0.015 A 
ATOM     21  C   UNL     1       4.806   0.479  27.697  0.00  0.00    +0.001 A 
ATOM     22  C   UNL     1       4.390   0.915  26.446  0.00  0.00    +0.000 A 
ATOM     23  S   UNL     1       7.694  -2.197  26.792  0.00  0.00    -0.120 S 
ATOM     24  C   UNL     1       6.697  -3.449  25.949  0.00  0.00    +0.112 C 
ATOM     25  C   UNL     1       6.517  -3.368  24.442  0.00  0.00    +0.006 A 
ATOM     26  C   UNL     1       6.274  -4.607  23.813  0.00  0.00    +0.163 A 
ATOM     27  F   UNL     1       6.363  -5.744  24.524  0.00  0.00    -0.202 F 
ATOM     28  C   UNL     1       5.931  -4.692  22.472  0.00  0.00    +0.159 A 
ATOM     29  F   UNL     1       5.810  -5.887  21.877  0.00  0.00    -0.202 F 
ATOM     30  C   UNL     1       5.670  -3.541  21.755  0.00  0.00    +0.041 A 
ATOM     31  C   UNL     1       5.836  -2.297  22.371  0.00  0.00    +0.009 A 
ATOM     32  C   UNL     1       5.036   0.457  25.289  0.00  0.00    +0.007 A 
ATOM     33  C   UNL     1       6.408  -2.184  23.657  0.00  0.00    -0.014 A 
ENDBRANCH   7  17
BRANCH   1  34
ATOM     34  O   UNL     1       9.336   4.418  24.457  0.00  0.00    -0.450 OA
BRANCH  34  35
ATOM     35  C   UNL     1       9.707   5.313  23.403  0.00  0.00    +0.473 C 
BRANCH  35  36
ATOM     36  O   UNL     1      10.567   6.352  23.875  0.00  0.00    -0.397 OA
BRANCH  36  37
ATOM     37  C   UNL     1      11.847   5.964  24.034  0.00  0.00    +0.513 C 
ATOM     38  O   UNL     1      12.592   6.295  24.950  0.00  0.00    -0.203 OA
BRANCH  37  40
ATOM     39  C   UNL     1      13.175   5.573  22.143  0.00  0.00    +0.284 C 
ATOM     40  O   UNL     1      12.167   5.098  23.040  0.00  0.00    -0.437 OA
ENDBRANCH  37  40
ENDBRANCH  36  37
ENDBRANCH  35  36
ENDBRANCH  34  35
ENDBRANCH   1  34
TORSDOF 6
ENDMDL
MODEL 4
REMARK VINA RESULT:      -7.1      2.387      4.972
REMARK  Name = 
REMARK  7 active torsions:
REMARK  status: ('A' for Active; 'I' for Inactive)
REMARK    1  A    between atoms: C_1  and  O_2
REMARK    2  A    between atoms: O_2  and  C_3
REMARK    3  A    between atoms: C_3  and  O_5
REMARK    4  A    between atoms: O_5  and  C_6
REMARK    5  A    between atoms: C_6  and  O_7
REMARK    6  A    between atoms: O_7  and  C_8
REMARK    7  A    between atoms: N_19  and  C_25
REMARK                            x       y       z     vdW  Elec       q    Type
REMARK                         _______ _______ _______ _____ _____    ______ ____
ROOT
ATOM      1  C   UNL     1       8.067  -1.089  25.520  0.00  0.00    +0.201 A 
ATOM      2  C   UNL     1       7.259  -0.049  26.247  0.00  0.00    +0.224 A 
ATOM      3  O   UNL     1       7.760   0.757  27.026  0.00  0.00    -0.284 OA
ATOM      4  C   UNL     1       5.815   0.030  25.947  0.00  0.00    +0.074 A 
ATOM      5  C   UNL     1       5.269  -0.986  25.276  0.00  0.00    +0.113 A 
ATOM      6  N   UNL     1       5.947  -2.147  24.949  0.00  0.00    -0.260 N 
ATOM      7  N   UNL     1       5.197  -3.213  24.283  0.00  0.00    -0.236 N 
ATOM      8  C   UNL     1       6.041  -3.651  23.118  0.00  0.00    +0.206 C 
ATOM      9  N   UNL     1       7.322  -4.121  23.623  0.00  0.00    -0.272 N 
ATOM     10  C   UNL     1       7.943  -5.272  22.983  0.00  0.00    +0.138 C 
ATOM     11  C   UNL     1       6.964  -6.391  22.603  0.00  0.00    +0.179 C 
ATOM     12  O   UNL     1       5.618  -5.976  22.359  0.00  0.00    -0.375 OA
ATOM     13  C   UNL     1       8.118  -3.243  24.333  0.00  0.00    +0.270 C 
ATOM     14  O   UNL     1       9.327  -3.411  24.438  0.00  0.00    -0.268 OA
ATOM     15  C   UNL     1       5.528  -4.599  21.998  0.00  0.00    +0.203 C 
ATOM     16  C   UNL     1       7.362  -2.117  24.984  0.00  0.00    +0.169 A 
ENDROOT
BRANCH   7  17
ATOM     17  C   UNL     1       4.791  -4.339  25.248  0.00  0.00    +0.155 C 
ATOM     18  C   UNL     1       4.546  -3.982  26.733  0.00  0.00    -0.008 A 
ATOM     19  C   UNL     1       4.921  -4.907  27.731  0.00  0.00    +0.014 A 
ATOM     20  C   UNL     1       4.750  -4.619  29.095  0.00  0.00    +0.015 A 
ATOM     21  C   UNL     1       4.193  -3.408  29.490  0.00  0.00    +0.001 A 
ATOM     22  C   UNL     1       3.736  -2.521  28.524  0.00  0.00    +0.000 A 
ATOM     23  S   UNL     1       5.422  -6.566  27.293  0.00  0.00    -0.120 S 
ATOM     24  C   UNL     1       3.836  -7.094  26.603  0.00  0.00    +0.112 C 
ATOM     25  C   UNL     1       3.383  -6.538  25.264  0.00  0.00    +0.006 A 
ATOM     26  C   UNL     1       2.512  -7.382  24.541  0.00  0.00    +0.163 A 
ATOM     27  F   UNL     1       2.271  -8.626  24.987  0.00  0.00    -0.202 F 
ATOM     28  C   UNL     1       1.883  -6.961  23.380  0.00  0.00    +0.159 A 
ATOM     29  F   UNL     1       1.147  -7.819  22.659  0.00  0.00    -0.202 F 
ATOM     30  C   UNL     1       1.978  -5.642  22.985  0.00  0.00    +0.041 A 
ATOM     31  C   UNL     1       2.779  -4.763  23.720  0.00  0.00    +0.009 A 
ATOM     32  C   UNL     1       3.862  -2.836  27.163  0.00  0.00    +0.007 A 
ATOM     33  C   UNL     1       3.611  -5.223  24.764  0.00  0.00    -0.014 A 
ENDBRANCH   7  17
BRANCH   1  34
ATOM     34  O   UNL     1       9.444  -0.964  25.415  0.00  0.00    -0.450 OA
BRANCH  34  35
ATOM     35  C   UNL     1       9.904   0.055  24.522  0.00  0.00    +0.473 C 
BRANCH  35  36
ATOM     36  O   UNL     1      10.530  -0.502  23.365  0.00  0.00    -0.397 OA
BRANCH  36  37
ATOM     37  C   UNL     1       9.808  -0.357  22.237  0.00  0.00    +0.513 C 
ATOM     38  O   UNL     1       9.184  -1.241  21.661  0.00  0.00    -0.203 OA
BRANCH  37  40
ATOM     39  C   UNL     1       8.570   1.486  21.485  0.00  0.00    +0.284 C 
ATOM     40  O   UNL     1       9.839   0.947  21.865  0.00  0.00    -0.437 OA
ENDBRANCH  37  40
ENDBRANCH  36  37
ENDBRANCH  35  36
ENDBRANCH  34  35
ENDBRANCH   1  34
TORSDOF 6
ENDMDL
MODEL 5
REMARK VINA RESULT:      -7.0      4.589      8.593
REMARK  Name = 
REMARK  7 active torsions:
REMARK  status: ('A' for Active; 'I' for Inactive)
REMARK    1  A    between atoms: C_1  and  O_2
REMARK    2  A    between atoms: O_2  and  C_3
REMARK    3  A    between atoms: C_3  and  O_5
REMARK    4  A    between atoms: O_5  and  C_6
REMARK    5  A    between atoms: C_6  and  O_7
REMARK    6  A    between atoms: O_7  and  C_8
REMARK    7  A    between atoms: N_19  and  C_25
REMARK                            x       y       z     vdW  Elec       q    Type
REMARK                         _______ _______ _______ _____ _____    ______ ____
ROOT
ATOM      1  C   UNL     1       5.551  -2.037  25.322  0.00  0.00    +0.201 A 
ATOM      2  C   UNL     1       4.858  -1.849  26.644  0.00  0.00    +0.224 A 
ATOM      3  O   UNL     1       3.956  -2.586  27.032  0.00  0.00    -0.284 OA
ATOM      4  C   UNL     1       5.341  -0.766  27.524  0.00  0.00    +0.074 A 
ATOM      5  C   UNL     1       6.159   0.143  26.989  0.00  0.00    +0.113 A 
ATOM      6  N   UNL     1       6.485   0.191  25.645  0.00  0.00    -0.260 N 
ATOM      7  N   UNL     1       7.329   1.295  25.185  0.00  0.00    -0.236 N 
ATOM      8  C   UNL     1       8.402   0.671  24.335  0.00  0.00    +0.206 C 
ATOM      9  N   UNL     1       7.770  -0.028  23.227  0.00  0.00    -0.272 N 
ATOM     10  C   UNL     1       8.411   0.013  21.920  0.00  0.00    +0.138 C 
ATOM     11  C   UNL     1       9.008   1.376  21.549  0.00  0.00    +0.179 C 
ATOM     12  O   UNL     1       9.396   2.200  22.652  0.00  0.00    -0.375 OA
ATOM     13  C   UNL     1       6.890  -1.056  23.507  0.00  0.00    +0.270 C 
ATOM     14  O   UNL     1       6.638  -1.929  22.684  0.00  0.00    -0.268 OA
ATOM     15  C   UNL     1       9.654   1.445  23.833  0.00  0.00    +0.203 C 
ATOM     16  C   UNL     1       6.258  -0.971  24.869  0.00  0.00    +0.169 A 
ENDROOT
BRANCH   7  17
ATOM     17  C   UNL     1       6.522   2.407  24.496  0.00  0.00    +0.155 C 
ATOM     18  C   UNL     1       5.068   2.656  24.961  0.00  0.00    -0.008 A 
ATOM     19  C   UNL     1       4.096   3.024  24.005  0.00  0.00    +0.014 A 
ATOM     20  C   UNL     1       2.755   3.229  24.370  0.00  0.00    +0.015 A 
ATOM     21  C   UNL     1       2.359   3.082  25.694  0.00  0.00    +0.001 A 
ATOM     22  C   UNL     1       3.314   2.807  26.664  0.00  0.00    +0.000 A 
ATOM     23  S   UNL     1       4.576   3.457  22.339  0.00  0.00    -0.120 S 
ATOM     24  C   UNL     1       5.532   4.931  22.767  0.00  0.00    +0.112 C 
ATOM     25  C   UNL     1       6.879   4.774  23.452  0.00  0.00    +0.006 A 
ATOM     26  C   UNL     1       7.783   5.832  23.220  0.00  0.00    +0.163 A 
ATOM     27  F   UNL     1       7.472   6.789  22.330  0.00  0.00    -0.202 F 
ATOM     28  C   UNL     1       8.991   5.923  23.894  0.00  0.00    +0.159 A 
ATOM     29  F   UNL     1       9.875   6.879  23.575  0.00  0.00    -0.202 F 
ATOM     30  C   UNL     1       9.269   5.052  24.929  0.00  0.00    +0.041 A 
ATOM     31  C   UNL     1       8.360   4.034  25.230  0.00  0.00    +0.009 A 
ATOM     32  C   UNL     1       4.660   2.653  26.303  0.00  0.00    +0.007 A 
ATOM     33  C   UNL     1       7.241   3.779  24.407  0.00  0.00    -0.014 A 
ENDBRANCH   7  17
BRANCH   1  34
ATOM     34  O   UNL     1       5.459  -3.243  24.644  0.00  0.00    -0.450 OA
BRANCH  34  35
ATOM     35  C   UNL     1       6.162  -4.339  25.239  0.00  0.00    +0.473 C 
BRANCH  35  36
ATOM     36  O   UNL     1       7.568  -4.090  25.302  0.00  0.00    -0.397 OA
BRANCH  36  37
ATOM     37  C   UNL     1       8.260  -4.641  24.286  0.00  0.00    +0.513 C 
ATOM     38  O   UNL     1       7.790  -5.313  23.375  0.00  0.00    -0.203 OA
BRANCH  37  40
ATOM     39  C   UNL     1       9.829  -2.906  24.140  0.00  0.00    +0.284 C 
ATOM     40  O   UNL     1       9.564  -4.286  24.404  0.00  0.00    -0.437 OA
ENDBRANCH  37  40
ENDBRANCH  36  37
ENDBRANCH  35  36
ENDBRANCH  34  35
ENDBRANCH   1  34
TORSDOF 6
ENDMDL
MODEL 6
REMARK VINA RESULT:      -6.9      1.800      2.486
REMARK  Name = 
REMARK  7 active torsions:
REMARK  status: ('A' for Active; 'I' for Inactive)
REMARK    1  A    between atoms: C_1  and  O_2
REMARK    2  A    between atoms: O_2  and  C_3
REMARK    3  A    between atoms: C_3  and  O_5
REMARK    4  A    between atoms: O_5  and  C_6
REMARK    5  A    between atoms: C_6  and  O_7
REMARK    6  A    between atoms: O_7  and  C_8
REMARK    7  A    between atoms: N_19  and  C_25
REMARK                            x       y       z     vdW  Elec       q    Type
REMARK                         _______ _______ _______ _____ _____    ______ ____
ROOT
ATOM      1  C   UNL     1       8.052  -2.164  25.010  0.00  0.00    +0.201 A 
ATOM      2  C   UNL     1       9.014  -3.321  24.978  0.00  0.00    +0.224 A 
ATOM      3  O   UNL     1       9.911  -3.416  24.145  0.00  0.00    -0.284 OA
ATOM      4  C   UNL     1       8.897  -4.339  26.041  0.00  0.00    +0.074 A 
ATOM      5  C   UNL     1       7.790  -4.326  26.787  0.00  0.00    +0.113 A 
ATOM      6  N   UNL     1       6.711  -3.494  26.551  0.00  0.00    -0.260 N 
ATOM      7  N   UNL     1       5.530  -3.647  27.402  0.00  0.00    -0.236 N 
ATOM      8  C   UNL     1       5.149  -2.258  27.839  0.00  0.00    +0.206 C 
ATOM      9  N   UNL     1       4.868  -1.460  26.656  0.00  0.00    -0.272 N 
ATOM     10  C   UNL     1       3.776  -0.498  26.709  0.00  0.00    +0.138 C 
ATOM     11  C   UNL     1       2.527  -0.996  27.448  0.00  0.00    +0.179 C 
ATOM     12  O   UNL     1       2.758  -1.993  28.447  0.00  0.00    -0.375 OA
ATOM     13  C   UNL     1       5.871  -1.280  25.723  0.00  0.00    +0.270 C 
ATOM     14  O   UNL     1       5.860  -0.336  24.941  0.00  0.00    -0.268 OA
ATOM     15  C   UNL     1       4.094  -1.968  28.943  0.00  0.00    +0.203 C 
ATOM     16  C   UNL     1       6.921  -2.357  25.733  0.00  0.00    +0.169 A 
ENDROOT
BRANCH   7  17
ATOM     17  C   UNL     1       4.406  -4.439  26.713  0.00  0.00    +0.155 C 
ATOM     18  C   UNL     1       4.625  -4.912  25.257  0.00  0.00    -0.008 A 
ATOM     19  C   UNL     1       3.529  -4.923  24.368  0.00  0.00    +0.014 A 
ATOM     20  C   UNL     1       3.681  -5.311  23.027  0.00  0.00    +0.015 A 
ATOM     21  C   UNL     1       4.925  -5.705  22.548  0.00  0.00    +0.001 A 
ATOM     22  C   UNL     1       5.997  -5.786  23.426  0.00  0.00    +0.000 A 
ATOM     23  S   UNL     1       1.866  -4.656  24.969  0.00  0.00    -0.120 S 
ATOM     24  C   UNL     1       1.771  -6.139  26.000  0.00  0.00    +0.112 C 
ATOM     25  C   UNL     1       2.567  -6.201  27.293  0.00  0.00    +0.006 A 
ATOM     26  C   UNL     1       2.019  -7.046  28.281  0.00  0.00    +0.163 A 
ATOM     27  F   UNL     1       0.809  -7.597  28.087  0.00  0.00    -0.202 F 
ATOM     28  C   UNL     1       2.699  -7.339  29.452  0.00  0.00    +0.159 A 
ATOM     29  F   UNL     1       2.109  -8.058  30.418  0.00  0.00    -0.202 F 
ATOM     30  C   UNL     1       4.007  -6.925  29.611  0.00  0.00    +0.041 A 
ATOM     31  C   UNL     1       4.603  -6.143  28.618  0.00  0.00    +0.009 A 
ATOM     32  C   UNL     1       5.830  -5.446  24.776  0.00  0.00    +0.007 A 
ATOM     33  C   UNL     1       3.855  -5.638  27.531  0.00  0.00    -0.014 A 
ENDBRANCH   7  17
BRANCH   1  34
ATOM     34  O   UNL     1       8.345  -0.987  24.339  0.00  0.00    -0.450 OA
BRANCH  34  35
ATOM     35  C   UNL     1       9.414  -0.212  24.892  0.00  0.00    +0.473 C 
BRANCH  35  36
ATOM     36  O   UNL     1      10.511  -0.104  23.982  0.00  0.00    -0.397 OA
BRANCH  36  37
ATOM     37  C   UNL     1      10.138   0.159  22.715  0.00  0.00    +0.513 C 
ATOM     38  O   UNL     1      10.059  -0.655  21.802  0.00  0.00    -0.203 OA
BRANCH  37  40
ATOM     39  C   UNL     1       8.678   1.743  21.790  0.00  0.00    +0.284 C 
ATOM     40  O   UNL     1       9.810   1.472  22.622  0.00  0.00    -0.437 OA
ENDBRANCH  37  40
ENDBRANCH  36  37
ENDBRANCH  35  36
ENDBRANCH  34  35
ENDBRANCH   1  34
TORSDOF 6
ENDMDL
MODEL 7
REMARK VINA RESULT:      -6.8      3.997      8.217
REMARK  Name = 
REMARK  7 active torsions:
REMARK  status: ('A' for Active; 'I' for Inactive)
REMARK    1  A    between atoms: C_1  and  O_2
REMARK    2  A    between atoms: O_2  and  C_3
REMARK    3  A    between atoms: C_3  and  O_5
REMARK    4  A    between atoms: O_5  and  C_6
REMARK    5  A    between atoms: C_6  and  O_7
REMARK    6  A    between atoms: O_7  and  C_8
REMARK    7  A    between atoms: N_19  and  C_25
REMARK                            x       y       z     vdW  Elec       q    Type
REMARK                         _______ _______ _______ _____ _____    ______ ____
ROOT
ATOM      1  C   UNL     1       3.454  -3.333  25.295  0.00  0.00    +0.201 A 
ATOM      2  C   UNL     1       2.918  -2.837  26.610  0.00  0.00    +0.224 A 
ATOM      3  O   UNL     1       1.734  -2.925  26.921  0.00  0.00    -0.284 OA
ATOM      4  C   UNL     1       3.885  -2.281  27.578  0.00  0.00    +0.074 A 
ATOM      5  C   UNL     1       5.110  -1.997  27.131  0.00  0.00    +0.113 A 
ATOM      6  N   UNL     1       5.486  -2.088  25.803  0.00  0.00    -0.260 N 
ATOM      7  N   UNL     1       6.841  -1.665  25.445  0.00  0.00    -0.236 N 
ATOM      8  C   UNL     1       7.402  -2.758  24.577  0.00  0.00    +0.206 C 
ATOM      9  N   UNL     1       6.552  -2.905  23.407  0.00  0.00    -0.272 N 
ATOM     10  C   UNL     1       7.177  -3.186  22.122  0.00  0.00    +0.138 C 
ATOM     11  C   UNL     1       8.478  -2.413  21.866  0.00  0.00    +0.179 C 
ATOM     12  O   UNL     1       9.202  -2.022  23.035  0.00  0.00    -0.375 OA
ATOM     13  C   UNL     1       5.223  -3.238  23.589  0.00  0.00    +0.270 C 
ATOM     14  O   UNL     1       4.563  -3.760  22.699  0.00  0.00    -0.268 OA
ATOM     15  C   UNL     1       8.899  -2.838  24.164  0.00  0.00    +0.203 C 
ATOM     16  C   UNL     1       4.675  -2.862  24.938  0.00  0.00    +0.169 A 
ENDROOT
BRANCH   7  17
ATOM     17  C   UNL     1       6.874  -0.260  24.820  0.00  0.00    +0.155 C 
ATOM     18  C   UNL     1       5.840   0.784  25.302  0.00  0.00    -0.008 A 
ATOM     19  C   UNL     1       5.307   1.701  24.370  0.00  0.00    +0.014 A 
ATOM     20  C   UNL     1       4.341   2.647  24.749  0.00  0.00    +0.015 A 
ATOM     21  C   UNL     1       3.894   2.705  26.064  0.00  0.00    +0.001 A 
ATOM     22  C   UNL     1       4.469   1.871  27.015  0.00  0.00    +0.000 A 
ATOM     23  S   UNL     1       6.001   1.839  22.729  0.00  0.00    -0.120 S 
ATOM     24  C   UNL     1       7.633   2.433  23.236  0.00  0.00    +0.112 C 
ATOM     25  C   UNL     1       8.601   1.474  23.907  0.00  0.00    +0.006 A 
ATOM     26  C   UNL     1       9.964   1.794  23.731  0.00  0.00    +0.163 A 
ATOM     27  F   UNL     1      10.310   2.788  22.896  0.00  0.00    -0.202 F 
ATOM     28  C   UNL     1      10.967   1.118  24.407  0.00  0.00    +0.159 A 
ATOM     29  F   UNL     1      12.256   1.373  24.139  0.00  0.00    -0.202 F 
ATOM     30  C   UNL     1      10.641   0.207  25.391  0.00  0.00    +0.041 A 
ATOM     31  C   UNL     1       9.296  -0.083  25.638  0.00  0.00    +0.009 A 
ATOM     32  C   UNL     1       5.470   0.963  26.643  0.00  0.00    +0.007 A 
ATOM     33  C   UNL     1       8.271   0.417  24.805  0.00  0.00    -0.014 A 
ENDBRANCH   7  17
BRANCH   1  34
ATOM     34  O   UNL     1       2.721  -4.227  24.528  0.00  0.00    -0.450 OA
BRANCH  34  35
ATOM     35  C   UNL     1       2.579  -5.540  25.080  0.00  0.00    +0.473 C 
BRANCH  35  36
ATOM     36  O   UNL     1       3.691  -5.885  25.910  0.00  0.00    -0.397 OA
BRANCH  36  37
ATOM     37  C   UNL     1       4.586  -6.690  25.306  0.00  0.00    +0.513 C 
ATOM     38  O   UNL     1       4.351  -7.474  24.394  0.00  0.00    -0.203 OA
BRANCH  37  40
ATOM     39  C   UNL     1       5.796  -5.688  27.045  0.00  0.00    +0.284 C 
ATOM     40  O   UNL     1       5.812  -6.453  25.837  0.00  0.00    -0.437 OA
ENDBRANCH  37  40
ENDBRANCH  36  37
ENDBRANCH  35  36
ENDBRANCH  34  35
ENDBRANCH   1  34
TORSDOF 6
ENDMDL
MODEL 8
REMARK VINA RESULT:      -6.6      3.203      6.241
REMARK  Name = 
REMARK  7 active torsions:
REMARK  status: ('A' for Active; 'I' for Inactive)
REMARK    1  A    between atoms: C_1  and  O_2
REMARK    2  A    between atoms: O_2  and  C_3
REMARK    3  A    between atoms: C_3  and  O_5
REMARK    4  A    between atoms: O_5  and  C_6
REMARK    5  A    between atoms: C_6  and  O_7
REMARK    6  A    between atoms: O_7  and  C_8
REMARK    7  A    between atoms: N_19  and  C_25
REMARK                            x       y       z     vdW  Elec       q    Type
REMARK                         _______ _______ _______ _____ _____    ______ ____
ROOT
ATOM      1  C   UNL     1       7.872   4.470  23.025  0.00  0.00    +0.201 A 
ATOM      2  C   UNL     1       6.446   4.952  23.025  0.00  0.00    +0.224 A 
ATOM      3  O   UNL     1       6.135   6.107  23.302  0.00  0.00    -0.284 OA
ATOM      4  C   UNL     1       5.400   3.996  22.610  0.00  0.00    +0.074 A 
ATOM      5  C   UNL     1       5.739   2.707  22.532  0.00  0.00    +0.113 A 
ATOM      6  N   UNL     1       6.969   2.209  22.923  0.00  0.00    -0.260 N 
ATOM      7  N   UNL     1       7.172   0.761  22.859  0.00  0.00    -0.236 N 
ATOM      8  C   UNL     1       8.496   0.556  22.174  0.00  0.00    +0.206 C 
ATOM      9  N   UNL     1       9.530   1.216  22.954  0.00  0.00    -0.272 N 
ATOM     10  C   UNL     1      10.832   0.573  23.072  0.00  0.00    +0.138 C 
ATOM     11  C   UNL     1      10.773  -0.949  23.257  0.00  0.00    +0.179 C 
ATOM     12  O   UNL     1       9.613  -1.591  22.721  0.00  0.00    -0.375 OA
ATOM     13  C   UNL     1       9.439   2.579  23.159  0.00  0.00    +0.270 C 
ATOM     14  O   UNL     1      10.423   3.255  23.437  0.00  0.00    -0.268 OA
ATOM     15  C   UNL     1       9.000  -0.830  21.683  0.00  0.00    +0.203 C 
ATOM     16  C   UNL     1       8.041   3.125  23.054  0.00  0.00    +0.169 A 
ENDROOT
BRANCH   7  17
ATOM     17  C   UNL     1       7.044   0.087  24.234  0.00  0.00    +0.155 C 
ATOM     18  C   UNL     1       6.198   0.789  25.322  0.00  0.00    -0.008 A 
ATOM     19  C   UNL     1       6.612   0.712  26.669  0.00  0.00    +0.014 A 
ATOM     20  C   UNL     1       5.898   1.359  27.691  0.00  0.00    +0.015 A 
ATOM     21  C   UNL     1       4.752   2.087  27.391  0.00  0.00    +0.001 A 
ATOM     22  C   UNL     1       4.278   2.103  26.086  0.00  0.00    +0.000 A 
ATOM     23  S   UNL     1       7.932  -0.392  27.154  0.00  0.00    -0.120 S 
ATOM     24  C   UNL     1       7.086  -1.935  26.735  0.00  0.00    +0.112 C 
ATOM     25  C   UNL     1       6.887  -2.304  25.275  0.00  0.00    +0.006 A 
ATOM     26  C   UNL     1       6.789  -3.690  25.027  0.00  0.00    +0.163 A 
ATOM     27  F   UNL     1       7.019  -4.561  26.023  0.00  0.00    -0.202 F 
ATOM     28  C   UNL     1       6.449  -4.187  23.779  0.00  0.00    +0.159 A 
ATOM     29  F   UNL     1       6.468  -5.507  23.546  0.00  0.00    -0.202 F 
ATOM     30  C   UNL     1       6.048  -3.323  22.779  0.00  0.00    +0.041 A 
ATOM     31  C   UNL     1       6.068  -1.945  23.016  0.00  0.00    +0.009 A 
ATOM     32  C   UNL     1       4.966   1.413  25.078  0.00  0.00    +0.007 A 
ATOM     33  C   UNL     1       6.632  -1.409  24.195  0.00  0.00    -0.014 A 
ENDBRANCH   7  17
BRANCH   1  34
ATOM     34  O   UNL     1       8.921   5.377  22.985  0.00  0.00    -0.450 OA
BRANCH  34  35
ATOM     35  C   UNL     1       8.987   6.291  24.084  0.00  0.00    +0.473 C 
BRANCH  35  36
ATOM     36  O   UNL     1       9.260   5.618  25.314  0.00  0.00    -0.397 OA
BRANCH  36  37
ATOM     37  C   UNL     1       8.778   6.256  26.398  0.00  0.00    +0.513 C 
ATOM     38  O   UNL     1       9.443   6.846  27.242  0.00  0.00    -0.203 OA
BRANCH  37  40
ATOM     39  C   UNL     1       6.892   4.906  26.738  0.00  0.00    +0.284 C 
ATOM     40  O   UNL     1       7.424   6.185  26.378  0.00  0.00    -0.437 OA
ENDBRANCH  37  40
ENDBRANCH  36  37
ENDBRANCH  35  36
ENDBRANCH  34  35
ENDBRANCH   1  34
TORSDOF 6
ENDMDL
MODEL 9
REMARK VINA RESULT:      -6.6      4.590      8.898
REMARK  Name = 
REMARK  7 active torsions:
REMARK  status: ('A' for Active; 'I' for Inactive)
REMARK    1  A    between atoms: C_1  and  O_2
REMARK    2  A    between atoms: O_2  and  C_3
REMARK    3  A    between atoms: C_3  and  O_5
REMARK    4  A    between atoms: O_5  and  C_6
REMARK    5  A    between atoms: C_6  and  O_7
REMARK    6  A    between atoms: O_7  and  C_8
REMARK    7  A    between atoms: N_19  and  C_25
REMARK                            x       y       z     vdW  Elec       q    Type
REMARK                         _______ _______ _______ _____ _____    ______ ____
ROOT
ATOM      1  C   UNL     1       5.592  -1.971  25.522  0.00  0.00    +0.201 A 
ATOM      2  C   UNL     1       4.914  -1.728  26.844  0.00  0.00    +0.224 A 
ATOM      3  O   UNL     1       4.011  -2.442  27.268  0.00  0.00    -0.284 OA
ATOM      4  C   UNL     1       5.415  -0.617  27.677  0.00  0.00    +0.074 A 
ATOM      5  C   UNL     1       6.235   0.265  27.099  0.00  0.00    +0.113 A 
ATOM      6  N   UNL     1       6.547   0.260  25.752  0.00  0.00    -0.260 N 
ATOM      7  N   UNL     1       7.394   1.339  25.242  0.00  0.00    -0.236 N 
ATOM      8  C   UNL     1       8.453   0.675  24.404  0.00  0.00    +0.206 C 
ATOM      9  N   UNL     1       7.803  -0.060  23.331  0.00  0.00    -0.272 N 
ATOM     10  C   UNL     1       8.431  -0.074  22.016  0.00  0.00    +0.138 C 
ATOM     11  C   UNL     1       9.035   1.270  21.588  0.00  0.00    +0.179 C 
ATOM     12  O   UNL     1       9.441   2.132  22.655  0.00  0.00    -0.375 OA
ATOM     13  C   UNL     1       6.919  -1.070  23.658  0.00  0.00    +0.270 C 
ATOM     14  O   UNL     1       6.652  -1.971  22.871  0.00  0.00    -0.268 OA
ATOM     15  C   UNL     1       9.705   1.419  23.861  0.00  0.00    +0.203 C 
ATOM     16  C   UNL     1       6.302  -0.929  25.022  0.00  0.00    +0.169 A 
ENDROOT
BRANCH   7  17
ATOM     17  C   UNL     1       6.588   2.430  24.519  0.00  0.00    +0.155 C 
ATOM     18  C   UNL     1       5.123   2.672  24.954  0.00  0.00    -0.008 A 
ATOM     19  C   UNL     1       4.165   3.014  23.976  0.00  0.00    +0.014 A 
ATOM     20  C   UNL     1       2.816   3.212  24.313  0.00  0.00    +0.015 A 
ATOM     21  C   UNL     1       2.398   3.083  25.632  0.00  0.00    +0.001 A 
ATOM     22  C   UNL     1       3.338   2.834  26.623  0.00  0.00    +0.000 A 
ATOM     23  S   UNL     1       4.670   3.423  22.310  0.00  0.00    -0.120 S 
ATOM     24  C   UNL     1       5.604   4.915  22.731  0.00  0.00    +0.112 C 
ATOM     25  C   UNL     1       6.940   4.783  23.442  0.00  0.00    +0.006 A 
ATOM     26  C   UNL     1       7.838   5.846  23.207  0.00  0.00    +0.163 A 
ATOM     27  F   UNL     1       7.533   6.785  22.296  0.00  0.00    -0.202 F 
ATOM     28  C   UNL     1       9.032   5.961  23.901  0.00  0.00    +0.159 A 
ATOM     29  F   UNL     1       9.912   6.921  23.582  0.00  0.00    -0.202 F 
ATOM     30  C   UNL     1       9.300   5.111  24.955  0.00  0.00    +0.041 A 
ATOM     31  C   UNL     1       8.396   4.088  25.258  0.00  0.00    +0.009 A 
ATOM     32  C   UNL     1       4.692   2.688  26.289  0.00  0.00    +0.007 A 
ATOM     33  C   UNL     1       7.294   3.809  24.420  0.00  0.00    -0.014 A 
ENDBRANCH   7  17
BRANCH   1  34
ATOM     34  O   UNL     1       5.484  -3.201  24.892  0.00  0.00    -0.450 OA
BRANCH  34  35
ATOM     35  C   UNL     1       6.498  -4.155  25.225  0.00  0.00    +0.473 C 
BRANCH  35  36
ATOM     36  O   UNL     1       6.354  -4.630  26.564  0.00  0.00    -0.397 OA
BRANCH  36  37
ATOM     37  C   UNL     1       7.511  -5.039  27.120  0.00  0.00    +0.513 C 
ATOM     38  O   UNL     1       8.617  -4.546  26.926  0.00  0.00    -0.203 OA
BRANCH  37  40
ATOM     39  C   UNL     1       6.019  -5.923  28.696  0.00  0.00    +0.284 C 
ATOM     40  O   UNL     1       7.247  -6.058  27.975  0.00  0.00    -0.437 OA
ENDBRANCH  37  40
ENDBRANCH  36  37
ENDBRANCH  35  36
ENDBRANCH  34  35
ENDBRANCH   1  34
TORSDOF 6
ENDMDL
