MODEL 1
REMARK VINA RESULT:      -6.1      0.000      0.000
REMARK  Name = 
REMARK  12 active torsions:
REMARK  status: ('A' for Active; 'I' for Inactive)
REMARK    1  A    between atoms: C_1  and  C_2
REMARK    2  A    between atoms: N_4  and  C_5
REMARK    3  A    between atoms: C_6  and  N_21
REMARK    4  A    between atoms: C_8  and  C_18
REMARK    5  A    between atoms: C_10  and  C_11
REMARK    6  A    between atoms: C_11  and  C_12
REMARK    7  A    between atoms: C_11  and  O_16
REMARK    8  A    between atoms: C_12  and  C_13
REMARK    9  A    between atoms: C_12  and  O_15
REMARK   10  A    between atoms: C_13  and  O_14
REMARK   11  A    between atoms: O_16  and  C_17
REMARK   12  A    between atoms: C_18  and  O_20
REMARK                            x       y       z     vdW  Elec       q    Type
REMARK                         _______ _______ _______ _____ _____    ______ ____
ROOT
ATOM      1  C   UNL     1       7.492  -2.521  24.372  0.00  0.00    +0.161 C 
ATOM      2  C   UNL     1       7.258  -2.150  22.872  0.00  0.00    +0.229 C 
ATOM      3  O   UNL     1       6.935  -3.187  21.940  0.00  0.00    -0.477 OA
ATOM      4  C   UNL     1       6.765  -4.474  22.346  0.00  0.00    +0.204 C 
ATOM      5  C   UNL     1       7.014  -4.917  23.583  0.00  0.00    +0.071 C 
ATOM      6  C   UNL     1       7.524  -4.048  24.680  0.00  0.00    +0.238 C 
ENDROOT
BRANCH   6   7
ATOM      7  N   UNL     1       6.726  -4.328  25.896  0.00  0.00    -0.104 NA
ATOM      8  C   UNL     1       7.197  -5.114  26.802  0.00  0.00    +0.377 C 
ATOM      9  N   UNL     1       6.416  -5.441  27.847  0.00  0.00    -0.289 N 
ATOM     10  H   UNL     1       6.865  -5.504  28.747  0.00  0.00    +0.255 HD
ATOM     11  H   UNL     1       5.554  -4.909  27.868  0.00  0.00    +0.255 HD
ATOM     12  N   UNL     1       8.382  -5.745  26.857  0.00  0.00    -0.289 N 
ATOM     13  H   UNL     1       8.657  -6.253  27.683  0.00  0.00    +0.255 HD
ATOM     14  H   UNL     1       9.090  -5.621  26.148  0.00  0.00    +0.255 HD
ENDBRANCH   6   7
BRANCH   1  17
ATOM     15  C   UNL     1       5.961  -0.276  27.082  0.00  0.00    +0.109 C 
ATOM     16  C   UNL     1       6.984  -0.725  26.080  0.00  0.00    +0.210 C 
ATOM     17  N   UNL     1       6.594  -1.786  25.297  0.00  0.00    -0.305 N 
ATOM     18  H   UNL     1       5.774  -2.321  25.568  0.00  0.00    +0.149 HD
ATOM     19  O   UNL     1       8.063  -0.152  25.973  0.00  0.00    -0.276 OA
ENDBRANCH   1  17
BRANCH   4  20
ATOM     20  C   UNL     1       6.277  -5.433  21.308  0.00  0.00    +0.372 C 
ATOM     21  O   UNL     1       5.959  -5.155  20.167  0.00  0.00    -0.242 OA
BRANCH  20  22
ATOM     22  O   UNL     1       6.214  -6.687  21.828  0.00  0.00    -0.475 OA
ATOM     23  H   UNL     1       7.064  -6.913  22.262  0.00  0.00    +0.296 HD
ENDBRANCH  20  22
ENDBRANCH   4  20
BRANCH   2  24
ATOM     24  C   UNL     1       8.445  -1.320  22.288  0.00  0.00    +0.191 C 
BRANCH  24  25
ATOM     25  O   UNL     1       9.745  -1.792  22.694  0.00  0.00    -0.373 OA
ATOM     26  C   UNL     1      10.528  -0.910  23.485  0.00  0.00    +0.194 C 
ENDBRANCH  24  25
BRANCH  24  27
ATOM     27  C   UNL     1       8.326   0.205  22.522  0.00  0.00    +0.172 C 
BRANCH  27  28
ATOM     28  O   UNL     1       7.031   0.580  23.023  0.00  0.00    -0.387 OA
ATOM     29  H   UNL     1       6.631   1.191  22.375  0.00  0.00    +0.210 HD
ENDBRANCH  27  28
BRANCH  27  30
ATOM     30  C   UNL     1       8.589   1.006  21.234  0.00  0.00    +0.189 C 
BRANCH  30  31
ATOM     31  O   UNL     1       9.659   1.932  21.441  0.00  0.00    -0.392 OA
ATOM     32  H   UNL     1       9.404   2.515  22.181  0.00  0.00    +0.210 HD
ENDBRANCH  30  31
ENDBRANCH  27  30
ENDBRANCH  24  27
ENDBRANCH   2  24
TORSDOF 10
ENDMDL
MODEL 2
REMARK VINA RESULT:      -6.0      1.016      1.624
REMARK  Name = 
REMARK  12 active torsions:
REMARK  status: ('A' for Active; 'I' for Inactive)
REMARK    1  A    between atoms: C_1  and  C_2
REMARK    2  A    between atoms: N_4  and  C_5
REMARK    3  A    between atoms: C_6  and  N_21
REMARK    4  A    between atoms: C_8  and  C_18
REMARK    5  A    between atoms: C_10  and  C_11
REMARK    6  A    between atoms: C_11  and  C_12
REMARK    7  A    between atoms: C_11  and  O_16
REMARK    8  A    between atoms: C_12  and  C_13
REMARK    9  A    between atoms: C_12  and  O_15
REMARK   10  A    between atoms: C_13  and  O_14
REMARK   11  A    between atoms: O_16  and  C_17
REMARK   12  A    between atoms: C_18  and  O_20
REMARK                            x       y       z     vdW  Elec       q    Type
REMARK                         _______ _______ _______ _____ _____    ______ ____
ROOT
ATOM      1  C   UNL     1       7.271  -2.243  25.183  0.00  0.00    +0.161 C 
ATOM      2  C   UNL     1       7.164  -1.662  23.737  0.00  0.00    +0.229 C 
ATOM      3  O   UNL     1       7.016  -2.561  22.634  0.00  0.00    -0.477 OA
ATOM      4  C   UNL     1       6.902  -3.903  22.827  0.00  0.00    +0.204 C 
ATOM      5  C   UNL     1       7.057  -4.514  24.007  0.00  0.00    +0.071 C 
ATOM      6  C   UNL     1       7.385  -3.794  25.269  0.00  0.00    +0.238 C 
ENDROOT
BRANCH   6   7
ATOM      7  N   UNL     1       6.492  -4.303  26.334  0.00  0.00    -0.104 NA
ATOM      8  C   UNL     1       6.897  -5.248  27.110  0.00  0.00    +0.377 C 
ATOM      9  N   UNL     1       6.035  -5.770  28.001  0.00  0.00    -0.289 N 
ATOM     10  H   UNL     1       6.406  -6.004  28.909  0.00  0.00    +0.255 HD
ATOM     11  H   UNL     1       5.165  -5.252  28.048  0.00  0.00    +0.255 HD
ATOM     12  N   UNL     1       8.084  -5.876  27.148  0.00  0.00    -0.289 N 
ATOM     13  H   UNL     1       8.296  -6.533  27.882  0.00  0.00    +0.255 HD
ATOM     14  H   UNL     1       8.847  -5.618  26.540  0.00  0.00    +0.255 HD
ENDBRANCH   6   7
BRANCH   1  17
ATOM     15  C   UNL     1       5.303  -0.479  27.967  0.00  0.00    +0.109 C 
ATOM     16  C   UNL     1       6.440  -0.706  27.014  0.00  0.00    +0.210 C 
ATOM     17  N   UNL     1       6.231  -1.712  26.100  0.00  0.00    -0.305 N 
ATOM     18  H   UNL     1       5.460  -2.358  26.247  0.00  0.00    +0.149 HD
ATOM     19  O   UNL     1       7.450  -0.012  27.053  0.00  0.00    -0.276 OA
ENDBRANCH   1  17
BRANCH   4  20
ATOM     20  C   UNL     1       6.596  -4.720  21.612  0.00  0.00    +0.372 C 
ATOM     21  O   UNL     1       5.802  -4.433  20.737  0.00  0.00    -0.242 OA
BRANCH  20  22
ATOM     22  O   UNL     1       7.327  -5.865  21.628  0.00  0.00    -0.475 OA
ATOM     23  H   UNL     1       8.234  -5.688  21.299  0.00  0.00    +0.296 HD
ENDBRANCH  20  22
ENDBRANCH   4  20
BRANCH   2  24
ATOM     24  C   UNL     1       8.338  -0.684  23.416  0.00  0.00    +0.191 C 
BRANCH  24  25
ATOM     25  O   UNL     1       8.064   0.690  23.753  0.00  0.00    -0.373 OA
ATOM     26  C   UNL     1       6.702   1.095  23.730  0.00  0.00    +0.194 C 
ENDBRANCH  24  25
BRANCH  24  27
ATOM     27  C   UNL     1       8.872  -0.790  21.968  0.00  0.00    +0.172 C 
BRANCH  27  28
ATOM     28  O   UNL     1       9.739  -1.924  21.788  0.00  0.00    -0.387 OA
ATOM     29  H   UNL     1      10.022  -1.931  20.853  0.00  0.00    +0.210 HD
ENDBRANCH  27  28
BRANCH  27  30
ATOM     30  C   UNL     1       9.644   0.472  21.545  0.00  0.00    +0.189 C 
BRANCH  30  31
ATOM     31  O   UNL     1       8.759   1.403  20.917  0.00  0.00    -0.392 OA
ATOM     32  H   UNL     1       7.861   1.024  20.952  0.00  0.00    +0.210 HD
ENDBRANCH  30  31
ENDBRANCH  27  30
ENDBRANCH  24  27
ENDBRANCH   2  24
TORSDOF 10
ENDMDL
MODEL 3
REMARK VINA RESULT:      -5.8      3.032      5.666
REMARK  Name = 
REMARK  12 active torsions:
REMARK  status: ('A' for Active; 'I' for Inactive)
REMARK    1  A    between atoms: C_1  and  C_2
REMARK    2  A    between atoms: N_4  and  C_5
REMARK    3  A    between atoms: C_6  and  N_21
REMARK    4  A    between atoms: C_8  and  C_18
REMARK    5  A    between atoms: C_10  and  C_11
REMARK    6  A    between atoms: C_11  and  C_12
REMARK    7  A    between atoms: C_11  and  O_16
REMARK    8  A    between atoms: C_12  and  C_13
REMARK    9  A    between atoms: C_12  and  O_15
REMARK   10  A    between atoms: C_13  and  O_14
REMARK   11  A    between atoms: O_16  and  C_17
REMARK   12  A    between atoms: C_18  and  O_20
REMARK                            x       y       z     vdW  Elec       q    Type
REMARK                         _______ _______ _______ _____ _____    ______ ____
ROOT
ATOM      1  C   UNL     1       6.462  -2.261  23.355  0.00  0.00    +0.161 C 
ATOM      2  C   UNL     1       5.953  -3.439  24.245  0.00  0.00    +0.229 C 
ATOM      3  O   UNL     1       6.904  -4.344  24.816  0.00  0.00    -0.477 OA
ATOM      4  C   UNL     1       8.241  -4.159  24.649  0.00  0.00    +0.204 C 
ATOM      5  C   UNL     1       8.785  -3.237  23.848  0.00  0.00    +0.071 C 
ATOM      6  C   UNL     1       7.984  -2.291  23.021  0.00  0.00    +0.238 C 
ENDROOT
BRANCH   6   7
ATOM      7  N   UNL     1       8.559  -0.937  23.187  0.00  0.00    -0.104 NA
ATOM      8  C   UNL     1       9.335  -0.457  22.277  0.00  0.00    +0.377 C 
ATOM      9  N   UNL     1       9.932   0.730  22.494  0.00  0.00    -0.289 N 
ATOM     10  H   UNL     1      10.008   1.350  21.703  0.00  0.00    +0.255 HD
ATOM     11  H   UNL     1       9.588   1.189  23.329  0.00  0.00    +0.255 HD
ATOM     12  N   UNL     1       9.718  -0.993  21.107  0.00  0.00    -0.289 N 
ATOM     13  H   UNL     1      10.254  -0.456  20.444  0.00  0.00    +0.255 HD
ATOM     14  H   UNL     1       9.373  -1.887  20.788  0.00  0.00    +0.255 HD
ENDBRANCH   6   7
BRANCH   1  17
ATOM     15  C   UNL     1       5.365   0.761  25.451  0.00  0.00    +0.109 C 
ATOM     16  C   UNL     1       6.038  -0.551  25.170  0.00  0.00    +0.210 C 
ATOM     17  N   UNL     1       6.029  -0.931  23.849  0.00  0.00    -0.305 N 
ATOM     18  H   UNL     1       5.413  -0.445  23.202  0.00  0.00    +0.149 HD
ATOM     19  O   UNL     1       6.571  -1.196  26.067  0.00  0.00    -0.276 OA
ENDBRANCH   1  17
BRANCH   4  20
ATOM     20  C   UNL     1       9.134  -5.078  25.421  0.00  0.00    +0.372 C 
ATOM     21  O   UNL     1      10.335  -5.199  25.277  0.00  0.00    -0.242 OA
BRANCH  20  22
ATOM     22  O   UNL     1       8.401  -5.794  26.314  0.00  0.00    -0.475 OA
ATOM     23  H   UNL     1       7.615  -5.278  26.592  0.00  0.00    +0.296 HD
ENDBRANCH  20  22
ENDBRANCH   4  20
BRANCH   2  24
ATOM     24  C   UNL     1       4.852  -4.279  23.524  0.00  0.00    +0.191 C 
BRANCH  24  25
ATOM     25  O   UNL     1       3.570  -4.251  24.182  0.00  0.00    -0.373 OA
ATOM     26  C   UNL     1       3.432  -3.356  25.276  0.00  0.00    +0.194 C 
ENDBRANCH  24  25
BRANCH  24  27
ATOM     27  C   UNL     1       5.270  -5.736  23.214  0.00  0.00    +0.172 C 
BRANCH  27  28
ATOM     28  O   UNL     1       5.001  -6.102  21.849  0.00  0.00    -0.387 OA
ATOM     29  H   UNL     1       5.518  -5.501  21.277  0.00  0.00    +0.210 HD
ENDBRANCH  27  28
BRANCH  27  30
ATOM     30  C   UNL     1       4.554  -6.746  24.128  0.00  0.00    +0.189 C 
BRANCH  30  31
ATOM     31  O   UNL     1       5.022  -6.612  25.472  0.00  0.00    -0.392 OA
ATOM     32  H   UNL     1       5.597  -7.377  25.661  0.00  0.00    +0.210 HD
ENDBRANCH  30  31
ENDBRANCH  27  30
ENDBRANCH  24  27
ENDBRANCH   2  24
TORSDOF 10
ENDMDL
MODEL 4
REMARK VINA RESULT:      -5.7      2.833      5.370
REMARK  Name = 
REMARK  12 active torsions:
REMARK  status: ('A' for Active; 'I' for Inactive)
REMARK    1  A    between atoms: C_1  and  C_2
REMARK    2  A    between atoms: N_4  and  C_5
REMARK    3  A    between atoms: C_6  and  N_21
REMARK    4  A    between atoms: C_8  and  C_18
REMARK    5  A    between atoms: C_10  and  C_11
REMARK    6  A    between atoms: C_11  and  C_12
REMARK    7  A    between atoms: C_11  and  O_16
REMARK    8  A    between atoms: C_12  and  C_13
REMARK    9  A    between atoms: C_12  and  O_15
REMARK   10  A    between atoms: C_13  and  O_14
REMARK   11  A    between atoms: O_16  and  C_17
REMARK   12  A    between atoms: C_18  and  O_20
REMARK                            x       y       z     vdW  Elec       q    Type
REMARK                         _______ _______ _______ _____ _____    ______ ____
ROOT
ATOM      1  C   UNL     1       7.863  -2.053  24.211  0.00  0.00    +0.161 C 
ATOM      2  C   UNL     1       7.080  -3.223  23.535  0.00  0.00    +0.229 C 
ATOM      3  O   UNL     1       5.756  -3.530  23.987  0.00  0.00    -0.477 OA
ATOM      4  C   UNL     1       5.148  -2.782  24.946  0.00  0.00    +0.204 C 
ATOM      5  C   UNL     1       5.747  -1.813  25.645  0.00  0.00    +0.071 C 
ATOM      6  C   UNL     1       7.176  -1.432  25.464  0.00  0.00    +0.238 C 
ENDROOT
BRANCH   6   7
ATOM      7  N   UNL     1       7.252   0.045  25.394  0.00  0.00    -0.104 NA
ATOM      8  C   UNL     1       7.636   0.714  26.426  0.00  0.00    +0.377 C 
ATOM      9  N   UNL     1       7.597   2.059  26.379  0.00  0.00    -0.289 N 
ATOM     10  H   UNL     1       8.359   2.550  26.819  0.00  0.00    +0.255 HD
ATOM     11  H   UNL     1       7.380   2.407  25.452  0.00  0.00    +0.255 HD
ATOM     12  N   UNL     1       8.038   0.276  27.631  0.00  0.00    -0.289 N 
ATOM     13  H   UNL     1       8.409   0.917  28.315  0.00  0.00    +0.255 HD
ATOM     14  H   UNL     1       8.118  -0.707  27.845  0.00  0.00    +0.255 HD
ENDBRANCH   6   7
BRANCH   1  17
ATOM     15  C   UNL     1       9.813   0.220  21.812  0.00  0.00    +0.109 C 
ATOM     16  C   UNL     1       9.501  -1.034  22.575  0.00  0.00    +0.210 C 
ATOM     17  N   UNL     1       8.301  -1.015  23.246  0.00  0.00    -0.305 N 
ATOM     18  H   UNL     1       7.819  -0.128  23.366  0.00  0.00    +0.149 HD
ATOM     19  O   UNL     1      10.264  -1.994  22.558  0.00  0.00    -0.276 OA
ENDBRANCH   1  17
BRANCH   4  20
ATOM     20  C   UNL     1       3.713  -3.104  25.220  0.00  0.00    +0.372 C 
ATOM     21  O   UNL     1       2.914  -2.389  25.792  0.00  0.00    -0.242 OA
BRANCH  20  22
ATOM     22  O   UNL     1       3.419  -4.345  24.751  0.00  0.00    -0.475 OA
ATOM     23  H   UNL     1       4.089  -4.989  25.065  0.00  0.00    +0.296 HD
ENDBRANCH  20  22
ENDBRANCH   4  20
BRANCH   2  24
ATOM     24  C   UNL     1       7.909  -4.546  23.521  0.00  0.00    +0.191 C 
BRANCH  24  25
ATOM     25  O   UNL     1       7.169  -5.696  23.068  0.00  0.00    -0.373 OA
ATOM     26  C   UNL     1       7.062  -5.876  21.663  0.00  0.00    +0.194 C 
ENDBRANCH  24  25
BRANCH  24  27
ATOM     27  C   UNL     1       8.628  -4.856  24.856  0.00  0.00    +0.172 C 
BRANCH  27  28
ATOM     28  O   UNL     1       9.697  -5.804  24.693  0.00  0.00    -0.387 OA
ATOM     29  H   UNL     1       9.317  -6.697  24.807  0.00  0.00    +0.210 HD
ENDBRANCH  27  28
BRANCH  27  30
ATOM     30  C   UNL     1       7.658  -5.408  25.916  0.00  0.00    +0.189 C 
BRANCH  30  31
ATOM     31  O   UNL     1       8.352  -5.645  27.143  0.00  0.00    -0.392 OA
ATOM     32  H   UNL     1       8.972  -4.903  27.278  0.00  0.00    +0.210 HD
ENDBRANCH  30  31
ENDBRANCH  27  30
ENDBRANCH  24  27
ENDBRANCH   2  24
TORSDOF 10
ENDMDL
MODEL 5
REMARK VINA RESULT:      -5.7      3.372      5.450
REMARK  Name = 
REMARK  12 active torsions:
REMARK  status: ('A' for Active; 'I' for Inactive)
REMARK    1  A    between atoms: C_1  and  C_2
REMARK    2  A    between atoms: N_4  and  C_5
REMARK    3  A    between atoms: C_6  and  N_21
REMARK    4  A    between atoms: C_8  and  C_18
REMARK    5  A    between atoms: C_10  and  C_11
REMARK    6  A    between atoms: C_11  and  C_12
REMARK    7  A    between atoms: C_11  and  O_16
REMARK    8  A    between atoms: C_12  and  C_13
REMARK    9  A    between atoms: C_12  and  O_15
REMARK   10  A    between atoms: C_13  and  O_14
REMARK   11  A    between atoms: O_16  and  C_17
REMARK   12  A    between atoms: C_18  and  O_20
REMARK                            x       y       z     vdW  Elec       q    Type
REMARK                         _______ _______ _______ _____ _____    ______ ____
ROOT
ATOM      1  C   UNL     1       5.730  -4.685  24.340  0.00  0.00    +0.161 C 
ATOM      2  C   UNL     1       6.921  -4.412  25.313  0.00  0.00    +0.229 C 
ATOM      3  O   UNL     1       6.862  -4.925  26.648  0.00  0.00    -0.477 OA
ATOM      4  C   UNL     1       5.822  -5.697  27.062  0.00  0.00    +0.204 C 
ATOM      5  C   UNL     1       4.718  -5.929  26.344  0.00  0.00    +0.071 C 
ATOM      6  C   UNL     1       4.484  -5.357  24.988  0.00  0.00    +0.238 C 
ENDROOT
BRANCH   6   7
ATOM      7  N   UNL     1       3.987  -6.442  24.112  0.00  0.00    -0.104 NA
ATOM      8  C   UNL     1       2.902  -6.274  23.439  0.00  0.00    +0.377 C 
ATOM      9  N   UNL     1       2.410  -7.307  22.731  0.00  0.00    -0.289 N 
ATOM     10  H   UNL     1       2.010  -7.091  21.832  0.00  0.00    +0.255 HD
ATOM     11  H   UNL     1       3.045  -8.096  22.707  0.00  0.00    +0.255 HD
ATOM     12  N   UNL     1       2.099  -5.199  23.362  0.00  0.00    -0.289 N 
ATOM     13  H   UNL     1       1.331  -5.175  22.711  0.00  0.00    +0.255 HD
ATOM     14  H   UNL     1       2.311  -4.335  23.839  0.00  0.00    +0.255 HD
ENDBRANCH   6   7
BRANCH   1  17
ATOM     15  C   UNL     1       6.258  -5.848  20.720  0.00  0.00    +0.109 C 
ATOM     16  C   UNL     1       5.936  -4.885  21.826  0.00  0.00    +0.210 C 
ATOM     17  N   UNL     1       6.147  -5.375  23.093  0.00  0.00    -0.305 N 
ATOM     18  H   UNL     1       6.289  -6.374  23.217  0.00  0.00    +0.149 HD
ATOM     19  O   UNL     1       5.546  -3.748  21.585  0.00  0.00    -0.276 OA
ENDBRANCH   1  17
BRANCH   4  20
ATOM     20  C   UNL     1       5.951  -6.301  28.425  0.00  0.00    +0.372 C 
ATOM     21  O   UNL     1       6.443  -5.768  29.400  0.00  0.00    -0.242 OA
BRANCH  20  22
ATOM     22  O   UNL     1       5.451  -7.564  28.421  0.00  0.00    -0.475 OA
ATOM     23  H   UNL     1       4.540  -7.563  28.057  0.00  0.00    +0.296 HD
ENDBRANCH  20  22
ENDBRANCH   4  20
BRANCH   2  24
ATOM     24  C   UNL     1       7.273  -2.893  25.389  0.00  0.00    +0.191 C 
BRANCH  24  25
ATOM     25  O   UNL     1       6.141  -2.044  25.663  0.00  0.00    -0.373 OA
ATOM     26  C   UNL     1       6.070  -1.471  26.961  0.00  0.00    +0.194 C 
ENDBRANCH  24  25
BRANCH  24  27
ATOM     27  C   UNL     1       8.062  -2.364  24.167  0.00  0.00    +0.172 C 
BRANCH  27  28
ATOM     28  O   UNL     1       9.439  -2.093  24.483  0.00  0.00    -0.387 OA
ATOM     29  H   UNL     1       9.923  -2.010  23.638  0.00  0.00    +0.210 HD
ENDBRANCH  27  28
BRANCH  27  30
ATOM     30  C   UNL     1       7.442  -1.078  23.594  0.00  0.00    +0.189 C 
BRANCH  30  31
ATOM     31  O   UNL     1       6.215  -1.378  22.924  0.00  0.00    -0.392 OA
ATOM     32  H   UNL     1       5.732  -0.539  22.805  0.00  0.00    +0.210 HD
ENDBRANCH  30  31
ENDBRANCH  27  30
ENDBRANCH  24  27
ENDBRANCH   2  24
TORSDOF 10
ENDMDL
MODEL 6
REMARK VINA RESULT:      -5.7      3.156      6.539
REMARK  Name = 
REMARK  12 active torsions:
REMARK  status: ('A' for Active; 'I' for Inactive)
REMARK    1  A    between atoms: C_1  and  C_2
REMARK    2  A    between atoms: N_4  and  C_5
REMARK    3  A    between atoms: C_6  and  N_21
REMARK    4  A    between atoms: C_8  and  C_18
REMARK    5  A    between atoms: C_10  and  C_11
REMARK    6  A    between atoms: C_11  and  C_12
REMARK    7  A    between atoms: C_11  and  O_16
REMARK    8  A    between atoms: C_12  and  C_13
REMARK    9  A    between atoms: C_12  and  O_15
REMARK   10  A    between atoms: C_13  and  O_14
REMARK   11  A    between atoms: O_16  and  C_17
REMARK   12  A    between atoms: C_18  and  O_20
REMARK                            x       y       z     vdW  Elec       q    Type
REMARK                         _______ _______ _______ _____ _____    ______ ____
ROOT
ATOM      1  C   UNL     1       7.291  -4.471  24.075  0.00  0.00    +0.161 C 
ATOM      2  C   UNL     1       5.979  -4.709  24.890  0.00  0.00    +0.229 C 
ATOM      3  O   UNL     1       5.308  -3.587  25.472  0.00  0.00    -0.477 OA
ATOM      4  C   UNL     1       5.753  -2.317  25.275  0.00  0.00    +0.204 C 
ATOM      5  C   UNL     1       6.901  -2.003  24.665  0.00  0.00    +0.071 C 
ATOM      6  C   UNL     1       7.850  -3.018  24.126  0.00  0.00    +0.238 C 
ENDROOT
BRANCH   6   7
ATOM      7  N   UNL     1       8.256  -2.590  22.768  0.00  0.00    -0.104 NA
ATOM      8  C   UNL     1       9.314  -1.873  22.614  0.00  0.00    +0.377 C 
ATOM      9  N   UNL     1       9.609  -1.405  21.387  0.00  0.00    -0.289 N 
ATOM     10  H   UNL     1      10.582  -1.399  21.126  0.00  0.00    +0.255 HD
ATOM     11  H   UNL     1       9.006  -1.793  20.671  0.00  0.00    +0.255 HD
ATOM     12  N   UNL     1      10.196  -1.439  23.530  0.00  0.00    -0.289 N 
ATOM     13  H   UNL     1      11.040  -0.965  23.249  0.00  0.00    +0.255 HD
ATOM     14  H   UNL     1      10.123  -1.687  24.506  0.00  0.00    +0.255 HD
ENDBRANCH   6   7
BRANCH   1  17
ATOM     15  C   UNL     1       6.183  -5.698  20.611  0.00  0.00    +0.109 C 
ATOM     16  C   UNL     1       6.085  -4.933  21.899  0.00  0.00    +0.210 C 
ATOM     17  N   UNL     1       7.212  -4.987  22.686  0.00  0.00    -0.305 N 
ATOM     18  H   UNL     1       7.926  -5.678  22.474  0.00  0.00    +0.149 HD
ATOM     19  O   UNL     1       5.077  -4.296  22.186  0.00  0.00    -0.276 OA
ENDBRANCH   1  17
BRANCH   4  20
ATOM     20  C   UNL     1       4.880  -1.223  25.803  0.00  0.00    +0.372 C 
ATOM     21  O   UNL     1       4.851  -0.075  25.406  0.00  0.00    -0.242 OA
BRANCH  20  22
ATOM     22  O   UNL     1       4.119  -1.691  26.827  0.00  0.00    -0.475 OA
ATOM     23  H   UNL     1       4.645  -1.708  27.655  0.00  0.00    +0.296 HD
ENDBRANCH  20  22
ENDBRANCH   4  20
BRANCH   2  24
ATOM     24  C   UNL     1       6.172  -5.792  25.998  0.00  0.00    +0.191 C 
BRANCH  24  25
ATOM     25  O   UNL     1       4.990  -6.569  26.267  0.00  0.00    -0.373 OA
ATOM     26  C   UNL     1       4.241  -7.007  25.143  0.00  0.00    +0.194 C 
ENDBRANCH  24  25
BRANCH  24  27
ATOM     27  C   UNL     1       6.775  -5.248  27.315  0.00  0.00    +0.172 C 
BRANCH  27  28
ATOM     28  O   UNL     1       7.928  -5.998  27.738  0.00  0.00    -0.387 OA
ATOM     29  H   UNL     1       8.592  -5.942  27.023  0.00  0.00    +0.210 HD
ENDBRANCH  27  28
BRANCH  27  30
ATOM     30  C   UNL     1       5.751  -5.261  28.464  0.00  0.00    +0.189 C 
BRANCH  30  31
ATOM     31  O   UNL     1       4.733  -4.286  28.227  0.00  0.00    -0.392 OA
ATOM     32  H   UNL     1       3.967  -4.520  28.784  0.00  0.00    +0.210 HD
ENDBRANCH  30  31
ENDBRANCH  27  30
ENDBRANCH  24  27
ENDBRANCH   2  24
TORSDOF 10
ENDMDL
MODEL 7
REMARK VINA RESULT:      -5.6      3.390      5.524
REMARK  Name = 
REMARK  12 active torsions:
REMARK  status: ('A' for Active; 'I' for Inactive)
REMARK    1  A    between atoms: C_1  and  C_2
REMARK    2  A    between atoms: N_4  and  C_5
REMARK    3  A    between atoms: C_6  and  N_21
REMARK    4  A    between atoms: C_8  and  C_18
REMARK    5  A    between atoms: C_10  and  C_11
REMARK    6  A    between atoms: C_11  and  C_12
REMARK    7  A    between atoms: C_11  and  O_16
REMARK    8  A    between atoms: C_12  and  C_13
REMARK    9  A    between atoms: C_12  and  O_15
REMARK   10  A    between atoms: C_13  and  O_14
REMARK   11  A    between atoms: O_16  and  C_17
REMARK   12  A    between atoms: C_18  and  O_20
REMARK                            x       y       z     vdW  Elec       q    Type
REMARK                         _______ _______ _______ _____ _____    ______ ____
ROOT
ATOM      1  C   UNL     1       5.761  -4.665  24.323  0.00  0.00    +0.161 C 
ATOM      2  C   UNL     1       6.959  -4.387  25.286  0.00  0.00    +0.229 C 
ATOM      3  O   UNL     1       6.905  -4.885  26.627  0.00  0.00    -0.477 OA
ATOM      4  C   UNL     1       5.864  -5.648  27.055  0.00  0.00    +0.204 C 
ATOM      5  C   UNL     1       4.755  -5.883  26.346  0.00  0.00    +0.071 C 
ATOM      6  C   UNL     1       4.515  -5.324  24.986  0.00  0.00    +0.238 C 
ENDROOT
BRANCH   6   7
ATOM      7  N   UNL     1       4.008  -6.416  24.124  0.00  0.00    -0.104 NA
ATOM      8  C   UNL     1       2.927  -6.245  23.445  0.00  0.00    +0.377 C 
ATOM      9  N   UNL     1       2.425  -7.283  22.752  0.00  0.00    -0.289 N 
ATOM     10  H   UNL     1       2.032  -7.076  21.848  0.00  0.00    +0.255 HD
ATOM     11  H   UNL     1       3.051  -8.080  22.742  0.00  0.00    +0.255 HD
ATOM     12  N   UNL     1       2.138  -5.162  23.348  0.00  0.00    -0.289 N 
ATOM     13  H   UNL     1       1.373  -5.139  22.694  0.00  0.00    +0.255 HD
ATOM     14  H   UNL     1       2.360  -4.293  23.813  0.00  0.00    +0.255 HD
ENDBRANCH   6   7
BRANCH   1  17
ATOM     15  C   UNL     1       6.282  -5.853  20.711  0.00  0.00    +0.109 C 
ATOM     16  C   UNL     1       5.980  -4.878  21.811  0.00  0.00    +0.210 C 
ATOM     17  N   UNL     1       6.166  -5.370  23.082  0.00  0.00    -0.305 N 
ATOM     18  H   UNL     1       6.278  -6.372  23.209  0.00  0.00    +0.149 HD
ATOM     19  O   UNL     1       5.625  -3.731  21.564  0.00  0.00    -0.276 OA
ENDBRANCH   1  17
BRANCH   4  20
ATOM     20  C   UNL     1       5.999  -6.237  28.424  0.00  0.00    +0.372 C 
ATOM     21  O   UNL     1       6.428  -5.669  29.409  0.00  0.00    -0.242 OA
BRANCH  20  22
ATOM     22  O   UNL     1       5.587  -7.532  28.413  0.00  0.00    -0.475 OA
ATOM     23  H   UNL     1       6.314  -8.116  28.717  0.00  0.00    +0.296 HD
ENDBRANCH  20  22
ENDBRANCH   4  20
BRANCH   2  24
ATOM     24  C   UNL     1       7.318  -2.868  25.343  0.00  0.00    +0.191 C 
BRANCH  24  25
ATOM     25  O   UNL     1       8.636  -2.560  24.849  0.00  0.00    -0.373 OA
ATOM     26  C   UNL     1       8.787  -2.471  23.440  0.00  0.00    +0.194 C 
ENDBRANCH  24  25
BRANCH  24  27
ATOM     27  C   UNL     1       7.092  -2.217  26.728  0.00  0.00    +0.172 C 
BRANCH  27  28
ATOM     28  O   UNL     1       5.709  -2.237  27.122  0.00  0.00    -0.387 OA
ATOM     29  H   UNL     1       5.624  -2.867  27.864  0.00  0.00    +0.210 HD
ENDBRANCH  27  28
BRANCH  27  30
ATOM     30  C   UNL     1       7.577  -0.756  26.763  0.00  0.00    +0.189 C 
BRANCH  30  31
ATOM     31  O   UNL     1       8.944  -0.701  27.175  0.00  0.00    -0.392 OA
ATOM     32  H   UNL     1       9.484  -1.074  26.453  0.00  0.00    +0.210 HD
ENDBRANCH  30  31
ENDBRANCH  27  30
ENDBRANCH  24  27
ENDBRANCH   2  24
TORSDOF 10
ENDMDL
MODEL 8
REMARK VINA RESULT:      -5.4      2.642      4.216
REMARK  Name = 
REMARK  12 active torsions:
REMARK  status: ('A' for Active; 'I' for Inactive)
REMARK    1  A    between atoms: C_1  and  C_2
REMARK    2  A    between atoms: N_4  and  C_5
REMARK    3  A    between atoms: C_6  and  N_21
REMARK    4  A    between atoms: C_8  and  C_18
REMARK    5  A    between atoms: C_10  and  C_11
REMARK    6  A    between atoms: C_11  and  C_12
REMARK    7  A    between atoms: C_11  and  O_16
REMARK    8  A    between atoms: C_12  and  C_13
REMARK    9  A    between atoms: C_12  and  O_15
REMARK   10  A    between atoms: C_13  and  O_14
REMARK   11  A    between atoms: O_16  and  C_17
REMARK   12  A    between atoms: C_18  and  O_20
REMARK                            x       y       z     vdW  Elec       q    Type
REMARK                         _______ _______ _______ _____ _____    ______ ____
ROOT
ATOM      1  C   UNL     1       8.106  -2.637  23.468  0.00  0.00    +0.161 C 
ATOM      2  C   UNL     1       8.489  -1.335  24.241  0.00  0.00    +0.229 C 
ATOM      3  O   UNL     1       7.454  -0.553  24.846  0.00  0.00    -0.477 OA
ATOM      4  C   UNL     1       6.155  -0.957  24.814  0.00  0.00    +0.204 C 
ATOM      5  C   UNL     1       5.705  -2.006  24.118  0.00  0.00    +0.071 C 
ATOM      6  C   UNL     1       6.578  -2.869  23.275  0.00  0.00    +0.238 C 
ENDROOT
BRANCH   6   7
ATOM      7  N   UNL     1       6.246  -4.282  23.567  0.00  0.00    -0.104 NA
ATOM      8  C   UNL     1       6.036  -5.103  22.597  0.00  0.00    +0.377 C 
ATOM      9  N   UNL     1       5.632  -6.355  22.881  0.00  0.00    -0.289 N 
ATOM     10  H   UNL     1       6.016  -7.095  22.316  0.00  0.00    +0.255 HD
ATOM     11  H   UNL     1       5.662  -6.554  23.874  0.00  0.00    +0.255 HD
ATOM     12  N   UNL     1       6.099  -4.897  21.271  0.00  0.00    -0.289 N 
ATOM     13  H   UNL     1       6.007  -5.664  20.625  0.00  0.00    +0.255 HD
ATOM     14  H   UNL     1       6.378  -4.009  20.878  0.00  0.00    +0.255 HD
ENDBRANCH   6   7
BRANCH   1  17
ATOM     15  C   UNL     1       9.875  -5.285  25.611  0.00  0.00    +0.109 C 
ATOM     16  C   UNL     1       8.984  -4.111  25.328  0.00  0.00    +0.210 C 
ATOM     17  N   UNL     1       8.789  -3.846  23.993  0.00  0.00    -0.305 N 
ATOM     18  H   UNL     1       9.396  -4.290  23.310  0.00  0.00    +0.149 HD
ATOM     19  O   UNL     1       8.461  -3.476  26.238  0.00  0.00    -0.276 OA
ENDBRANCH   1  17
BRANCH   4  20
ATOM     20  C   UNL     1       5.192  -0.137  25.613  0.00  0.00    +0.372 C 
ATOM     21  O   UNL     1       4.717   0.933  25.285  0.00  0.00    -0.242 OA
BRANCH  20  22
ATOM     22  O   UNL     1       4.928  -0.754  26.794  0.00  0.00    -0.475 OA
ATOM     23  H   UNL     1       5.128  -0.149  27.540  0.00  0.00    +0.296 HD
ENDBRANCH  20  22
ENDBRANCH   4  20
BRANCH   2  24
ATOM     24  C   UNL     1       9.377  -0.385  23.376  0.00  0.00    +0.191 C 
BRANCH  24  25
ATOM     25  O   UNL     1       9.791   0.813  24.061  0.00  0.00    -0.373 OA
ATOM     26  C   UNL     1      11.105   0.820  24.600  0.00  0.00    +0.194 C 
ENDBRANCH  24  25
BRANCH  24  27
ATOM     27  C   UNL     1       8.771  -0.038  21.995  0.00  0.00    +0.172 C 
BRANCH  27  28
ATOM     28  O   UNL     1       9.542  -0.581  20.909  0.00  0.00    -0.387 OA
ATOM     29  H   UNL     1       9.164  -0.232  20.079  0.00  0.00    +0.210 HD
ENDBRANCH  27  28
BRANCH  27  30
ATOM     30  C   UNL     1       8.655   1.482  21.785  0.00  0.00    +0.189 C 
BRANCH  30  31
ATOM     31  O   UNL     1       9.932   2.033  21.454  0.00  0.00    -0.392 OA
ATOM     32  H   UNL     1       9.793   2.962  21.192  0.00  0.00    +0.210 HD
ENDBRANCH  30  31
ENDBRANCH  27  30
ENDBRANCH  24  27
ENDBRANCH   2  24
TORSDOF 10
ENDMDL
MODEL 9
REMARK VINA RESULT:      -5.3      2.629      4.290
REMARK  Name = 
REMARK  12 active torsions:
REMARK  status: ('A' for Active; 'I' for Inactive)
REMARK    1  A    between atoms: C_1  and  C_2
REMARK    2  A    between atoms: N_4  and  C_5
REMARK    3  A    between atoms: C_6  and  N_21
REMARK    4  A    between atoms: C_8  and  C_18
REMARK    5  A    between atoms: C_10  and  C_11
REMARK    6  A    between atoms: C_11  and  C_12
REMARK    7  A    between atoms: C_11  and  O_16
REMARK    8  A    between atoms: C_12  and  C_13
REMARK    9  A    between atoms: C_12  and  O_15
REMARK   10  A    between atoms: C_13  and  O_14
REMARK   11  A    between atoms: O_16  and  C_17
REMARK   12  A    between atoms: C_18  and  O_20
REMARK                            x       y       z     vdW  Elec       q    Type
REMARK                         _______ _______ _______ _____ _____    ______ ____
ROOT
ATOM      1  C   UNL     1       6.601  -4.599  25.932  0.00  0.00    +0.161 C 
ATOM      2  C   UNL     1       5.950  -4.592  24.512  0.00  0.00    +0.229 C 
ATOM      3  O   UNL     1       4.878  -5.498  24.233  0.00  0.00    -0.477 OA
ATOM      4  C   UNL     1       4.375  -6.315  25.197  0.00  0.00    +0.204 C 
ATOM      5  C   UNL     1       4.901  -6.460  26.418  0.00  0.00    +0.071 C 
ATOM      6  C   UNL     1       6.124  -5.743  26.876  0.00  0.00    +0.238 C 
ENDROOT
BRANCH   6   7
ATOM      7  N   UNL     1       5.857  -5.198  28.227  0.00  0.00    -0.104 NA
ATOM      8  C   UNL     1       6.047  -5.938  29.263  0.00  0.00    +0.377 C 
ATOM      9  N   UNL     1       5.699  -5.463  30.473  0.00  0.00    -0.289 N 
ATOM     10  H   UNL     1       6.314  -5.683  31.241  0.00  0.00    +0.255 HD
ATOM     11  H   UNL     1       5.432  -4.486  30.443  0.00  0.00    +0.255 HD
ATOM     12  N   UNL     1       6.508  -7.198  29.344  0.00  0.00    -0.289 N 
ATOM     13  H   UNL     1       6.702  -7.619  30.239  0.00  0.00    +0.255 HD
ATOM     14  H   UNL     1       6.808  -7.713  28.529  0.00  0.00    +0.255 HD
ENDBRANCH   6   7
BRANCH   1  17
ATOM     15  C   UNL     1       5.702  -1.078  27.168  0.00  0.00    +0.109 C 
ATOM     16  C   UNL     1       5.452  -2.450  26.612  0.00  0.00    +0.210 C 
ATOM     17  N   UNL     1       6.553  -3.274  26.598  0.00  0.00    -0.305 N 
ATOM     18  H   UNL     1       7.473  -2.867  26.748  0.00  0.00    +0.149 HD
ATOM     19  O   UNL     1       4.335  -2.789  26.236  0.00  0.00    -0.276 OA
ENDBRANCH   1  17
BRANCH   4  20
ATOM     20  C   UNL     1       3.156  -7.100  24.825  0.00  0.00    +0.372 C 
ATOM     21  O   UNL     1       2.093  -7.095  25.415  0.00  0.00    -0.242 OA
BRANCH  20  22
ATOM     22  O   UNL     1       3.410  -7.855  23.725  0.00  0.00    -0.475 OA
ATOM     23  H   UNL     1       4.159  -7.472  23.221  0.00  0.00    +0.296 HD
ENDBRANCH  20  22
ENDBRANCH   4  20
BRANCH   2  24
ATOM     24  C   UNL     1       7.019  -4.738  23.383  0.00  0.00    +0.191 C 
BRANCH  24  25
ATOM     25  O   UNL     1       8.247  -4.030  23.645  0.00  0.00    -0.373 OA
ATOM     26  C   UNL     1       8.370  -2.733  23.082  0.00  0.00    +0.194 C 
ENDBRANCH  24  25
BRANCH  24  27
ATOM     27  C   UNL     1       6.492  -4.402  21.967  0.00  0.00    +0.172 C 
BRANCH  27  28
ATOM     28  O   UNL     1       5.232  -3.710  22.004  0.00  0.00    -0.387 OA
ATOM     29  H   UNL     1       5.044  -3.493  22.938  0.00  0.00    +0.210 HD
ENDBRANCH  27  28
BRANCH  27  30
ATOM     30  C   UNL     1       6.318  -5.665  21.104  0.00  0.00    +0.189 C 
BRANCH  30  31
ATOM     31  O   UNL     1       5.150  -6.382  21.512  0.00  0.00    -0.392 OA
ATOM     32  H   UNL     1       4.581  -5.761  22.004  0.00  0.00    +0.210 HD
ENDBRANCH  30  31
ENDBRANCH  27  30
ENDBRANCH  24  27
ENDBRANCH   2  24
TORSDOF 10
ENDMDL
