MODEL 1
REMARK VINA RESULT:      -7.9      0.000      0.000
REMARK  Name = 
REMARK  3 active torsions:
REMARK  status: ('A' for Active; 'I' for Inactive)
REMARK    1  A    between atoms: N_16  and  N_19
REMARK    2  A    between atoms: C_20  and  C_22
REMARK    3  A    between atoms: C_25  and  C_28
REMARK                            x       y       z     vdW  Elec       q    Type
REMARK                         _______ _______ _______ _____ _____    ______ ____
ROOT
ATOM      1  C   UNL     1       7.347   1.188  24.292  0.00  0.00    +0.009 C 
ATOM      2  C   UNL     1       7.999   1.526  22.941  0.00  0.00    +0.001 C 
ATOM      3  C   UNL     1       9.220   1.052  22.106  0.00  0.00    +0.027 C 
ATOM      4  C   UNL     1      10.048  -0.095  22.707  0.00  0.00    +0.097 C 
ATOM      5  C   UNL     1       9.352  -1.402  22.643  0.00  0.00    +0.243 C 
ATOM      6  N   UNL     1       8.781  -1.577  23.879  0.00  0.00    -0.155 N 
ATOM      7  C   UNL     1       9.373  -0.826  24.869  0.00  0.00    +0.243 C 
ATOM      8  O   UNL     1       9.201  -0.955  26.074  0.00  0.00    -0.273 OA
ATOM      9  O   UNL     1       9.356  -2.156  21.689  0.00  0.00    -0.273 OA
ATOM     10  C   UNL     1      10.281   0.195  24.208  0.00  0.00    +0.097 C 
ATOM     11  C   UNL     1       9.989   1.712  24.478  0.00  0.00    +0.027 C 
ATOM     12  C   UNL     1      10.714   2.488  23.358  0.00  0.00    -0.026 C 
ATOM     13  C   UNL     1      10.256   2.190  22.123  0.00  0.00    -0.026 C 
ATOM     14  C   UNL     1       8.517   2.095  24.265  0.00  0.00    +0.001 C 
ENDROOT
BRANCH   6  15
ATOM     15  N   UNL     1       7.675  -2.413  24.072  0.00  0.00    -0.221 N 
ATOM     16  H   UNL     1       6.849  -2.143  23.544  0.00  0.00    +0.174 HD
ATOM     17  C   UNL     1       7.934  -3.776  24.260  0.00  0.00    +0.261 C 
ATOM     18  O   UNL     1       9.057  -4.268  24.308  0.00  0.00    -0.269 OA
BRANCH  17  19
ATOM     19  C   UNL     1       6.751  -4.677  24.343  0.00  0.00    +0.038 A 
ATOM     20  C   UNL     1       6.410  -5.342  25.523  0.00  0.00    +0.013 A 
ATOM     21  C   UNL     1       5.261  -6.135  25.566  0.00  0.00    +0.013 A 
ATOM     22  C   UNL     1       4.444  -6.290  24.435  0.00  0.00    +0.055 A 
ATOM     23  C   UNL     1       4.828  -5.671  23.235  0.00  0.00    +0.013 A 
ATOM     24  C   UNL     1       5.974  -4.874  23.190  0.00  0.00    +0.013 A 
BRANCH  22  25
ATOM     25  C   UNL     1       3.173  -7.099  24.531  0.00  0.00    +0.417 C 
ATOM     26  F   UNL     1       2.180  -6.415  25.168  0.00  0.00    -0.166 F 
ATOM     27  F   UNL     1       3.340  -8.254  25.231  0.00  0.00    -0.166 F 
ATOM     28  F   UNL     1       2.659  -7.460  23.323  0.00  0.00    -0.166 F 
ENDBRANCH  22  25
ENDBRANCH  17  19
ENDBRANCH   6  15
TORSDOF 3
ENDMDL
MODEL 2
REMARK VINA RESULT:      -7.8      5.326      8.716
REMARK  Name = 
REMARK  3 active torsions:
REMARK  status: ('A' for Active; 'I' for Inactive)
REMARK    1  A    between atoms: N_16  and  N_19
REMARK    2  A    between atoms: C_20  and  C_22
REMARK    3  A    between atoms: C_25  and  C_28
REMARK                            x       y       z     vdW  Elec       q    Type
REMARK                         _______ _______ _______ _____ _____    ______ ____
ROOT
ATOM      1  C   UNL     1       6.481  -2.817  21.876  0.00  0.00    +0.009 C 
ATOM      2  C   UNL     1       5.327  -3.232  22.803  0.00  0.00    +0.001 C 
ATOM      3  C   UNL     1       5.130  -3.583  24.303  0.00  0.00    +0.027 C 
ATOM      4  C   UNL     1       6.381  -3.484  25.192  0.00  0.00    +0.097 C 
ATOM      5  C   UNL     1       6.789  -2.083  25.456  0.00  0.00    +0.243 C 
ATOM      6  N   UNL     1       7.786  -1.814  24.551  0.00  0.00    -0.155 N 
ATOM      7  C   UNL     1       8.403  -2.943  24.062  0.00  0.00    +0.243 C 
ATOM      8  O   UNL     1       9.445  -2.975  23.422  0.00  0.00    -0.273 OA
ATOM      9  O   UNL     1       6.342  -1.372  26.335  0.00  0.00    -0.273 OA
ATOM     10  C   UNL     1       7.567  -4.147  24.456  0.00  0.00    +0.097 C 
ATOM     11  C   UNL     1       7.003  -5.049  23.304  0.00  0.00    +0.027 C 
ATOM     12  C   UNL     1       5.852  -5.864  23.931  0.00  0.00    -0.026 C 
ATOM     13  C   UNL     1       4.841  -5.093  24.387  0.00  0.00    -0.026 C 
ATOM     14  C   UNL     1       6.297  -4.251  22.197  0.00  0.00    +0.001 C 
ENDROOT
BRANCH   6  15
ATOM     15  N   UNL     1       8.091  -0.507  24.154  0.00  0.00    -0.221 N 
ATOM     16  H   UNL     1       7.290   0.033  23.841  0.00  0.00    +0.174 HD
ATOM     17  C   UNL     1       9.109   0.149  24.857  0.00  0.00    +0.261 C 
ATOM     18  O   UNL     1       9.768  -0.359  25.759  0.00  0.00    -0.269 OA
BRANCH  17  19
ATOM     19  C   UNL     1       9.347   1.578  24.511  0.00  0.00    +0.038 A 
ATOM     20  C   UNL     1       8.452   2.587  24.878  0.00  0.00    +0.013 A 
ATOM     21  C   UNL     1       8.745   3.919  24.577  0.00  0.00    +0.013 A 
ATOM     22  C   UNL     1       9.923   4.266  23.896  0.00  0.00    +0.055 A 
ATOM     23  C   UNL     1      10.785   3.242  23.474  0.00  0.00    +0.013 A 
ATOM     24  C   UNL     1      10.496   1.910  23.777  0.00  0.00    +0.013 A 
BRANCH  22  25
ATOM     25  C   UNL     1      10.244   5.719  23.644  0.00  0.00    +0.417 C 
ATOM     26  F   UNL     1      10.288   6.439  24.801  0.00  0.00    -0.166 F 
ATOM     27  F   UNL     1       9.316   6.331  22.858  0.00  0.00    -0.166 F 
ATOM     28  F   UNL     1      11.445   5.919  23.036  0.00  0.00    -0.166 F 
ENDBRANCH  22  25
ENDBRANCH  17  19
ENDBRANCH   6  15
TORSDOF 3
ENDMDL
MODEL 3
REMARK VINA RESULT:      -7.7      4.602      8.426
REMARK  Name = 
REMARK  3 active torsions:
REMARK  status: ('A' for Active; 'I' for Inactive)
REMARK    1  A    between atoms: N_16  and  N_19
REMARK    2  A    between atoms: C_20  and  C_22
REMARK    3  A    between atoms: C_25  and  C_28
REMARK                            x       y       z     vdW  Elec       q    Type
REMARK                         _______ _______ _______ _____ _____    ______ ____
ROOT
ATOM      1  C   UNL     1       3.966  -3.704  24.599  0.00  0.00    +0.009 C 
ATOM      2  C   UNL     1       3.915  -4.204  26.052  0.00  0.00    +0.001 C 
ATOM      3  C   UNL     1       4.784  -5.083  26.994  0.00  0.00    +0.027 C 
ATOM      4  C   UNL     1       6.096  -5.620  26.399  0.00  0.00    +0.097 C 
ATOM      5  C   UNL     1       7.129  -4.568  26.241  0.00  0.00    +0.243 C 
ATOM      6  N   UNL     1       7.054  -4.174  24.928  0.00  0.00    -0.155 N 
ATOM      7  C   UNL     1       6.470  -5.110  24.106  0.00  0.00    +0.243 C 
ATOM      8  O   UNL     1       6.477  -5.100  22.882  0.00  0.00    -0.273 OA
ATOM      9  O   UNL     1       7.896  -4.198  27.108  0.00  0.00    -0.273 OA
ATOM     10  C   UNL     1       5.813  -6.163  24.980  0.00  0.00    +0.097 C 
ATOM     11  C   UNL     1       4.268  -6.378  24.823  0.00  0.00    +0.027 C 
ATOM     12  C   UNL     1       3.812  -7.113  26.101  0.00  0.00    -0.026 C 
ATOM     13  C   UNL     1       4.019  -6.398  27.229  0.00  0.00    -0.026 C 
ATOM     14  C   UNL     1       3.463  -5.071  24.872  0.00  0.00    +0.001 C 
ENDROOT
BRANCH   6  15
ATOM     15  N   UNL     1       7.499  -2.915  24.507  0.00  0.00    -0.221 N 
ATOM     16  H   UNL     1       7.037  -2.134  24.963  0.00  0.00    +0.174 HD
ATOM     17  C   UNL     1       8.857  -2.797  24.186  0.00  0.00    +0.261 C 
ATOM     18  O   UNL     1       9.659  -3.725  24.211  0.00  0.00    -0.269 OA
BRANCH  17  19
ATOM     19  C   UNL     1       9.350  -1.430  23.856  0.00  0.00    +0.038 A 
ATOM     20  C   UNL     1       9.452  -0.979  22.538  0.00  0.00    +0.013 A 
ATOM     21  C   UNL     1       9.869   0.328  22.281  0.00  0.00    +0.013 A 
ATOM     22  C   UNL     1      10.205   1.201  23.329  0.00  0.00    +0.055 A 
ATOM     23  C   UNL     1      10.163   0.721  24.647  0.00  0.00    +0.013 A 
ATOM     24  C   UNL     1       9.742  -0.586  24.907  0.00  0.00    +0.013 A 
BRANCH  22  25
ATOM     25  C   UNL     1      10.589   2.629  23.024  0.00  0.00    +0.417 C 
ATOM     26  F   UNL     1      10.953   2.791  21.719  0.00  0.00    -0.166 F 
ATOM     27  F   UNL     1      11.649   3.055  23.764  0.00  0.00    -0.166 F 
ATOM     28  F   UNL     1       9.589   3.526  23.243  0.00  0.00    -0.166 F 
ENDBRANCH  22  25
ENDBRANCH  17  19
ENDBRANCH   6  15
TORSDOF 3
ENDMDL
MODEL 4
REMARK VINA RESULT:      -7.7      5.417      8.555
REMARK  Name = 
REMARK  3 active torsions:
REMARK  status: ('A' for Active; 'I' for Inactive)
REMARK    1  A    between atoms: N_16  and  N_19
REMARK    2  A    between atoms: C_20  and  C_22
REMARK    3  A    between atoms: C_25  and  C_28
REMARK                            x       y       z     vdW  Elec       q    Type
REMARK                         _______ _______ _______ _____ _____    ______ ____
ROOT
ATOM      1  C   UNL     1       6.685  -1.684  26.196  0.00  0.00    +0.009 C 
ATOM      2  C   UNL     1       7.659  -2.765  26.694  0.00  0.00    +0.001 C 
ATOM      3  C   UNL     1       8.548  -3.880  26.077  0.00  0.00    +0.027 C 
ATOM      4  C   UNL     1       8.536  -3.985  24.543  0.00  0.00    +0.097 C 
ATOM      5  C   UNL     1       9.270  -2.878  23.885  0.00  0.00    +0.243 C 
ATOM      6  N   UNL     1       8.311  -1.965  23.523  0.00  0.00    -0.155 N 
ATOM      7  C   UNL     1       7.048  -2.504  23.423  0.00  0.00    +0.243 C 
ATOM      8  O   UNL     1       6.072  -1.967  22.918  0.00  0.00    -0.273 OA
ATOM      9  O   UNL     1      10.468  -2.849  23.682  0.00  0.00    -0.273 OA
ATOM     10  C   UNL     1       7.074  -3.886  24.050  0.00  0.00    +0.097 C 
ATOM     11  C   UNL     1       6.116  -4.154  25.262  0.00  0.00    +0.027 C 
ATOM     12  C   UNL     1       6.671  -5.406  25.972  0.00  0.00    -0.026 C 
ATOM     13  C   UNL     1       7.919  -5.232  26.460  0.00  0.00    -0.026 C 
ATOM     14  C   UNL     1       6.198  -3.075  26.353  0.00  0.00    +0.001 C 
ENDROOT
BRANCH   6  15
ATOM     15  N   UNL     1       8.614  -0.613  23.324  0.00  0.00    -0.221 N 
ATOM     16  H   UNL     1       7.942  -0.115  22.747  0.00  0.00    +0.174 HD
ATOM     17  C   UNL     1       9.216   0.067  24.390  0.00  0.00    +0.261 C 
ATOM     18  O   UNL     1       9.528  -0.453  25.457  0.00  0.00    -0.269 OA
BRANCH  17  19
ATOM     19  C   UNL     1       9.424   1.532  24.217  0.00  0.00    +0.038 A 
ATOM     20  C   UNL     1       8.536   2.472  24.745  0.00  0.00    +0.013 A 
ATOM     21  C   UNL     1       8.802   3.836  24.602  0.00  0.00    +0.013 A 
ATOM     22  C   UNL     1       9.946   4.284  23.922  0.00  0.00    +0.055 A 
ATOM     23  C   UNL     1      10.799   3.334  23.339  0.00  0.00    +0.013 A 
ATOM     24  C   UNL     1      10.537   1.970  23.483  0.00  0.00    +0.013 A 
BRANCH  22  25
ATOM     25  C   UNL     1      10.241   5.762  23.841  0.00  0.00    +0.417 C 
ATOM     26  F   UNL     1       9.394   6.405  22.988  0.00  0.00    -0.166 F 
ATOM     27  F   UNL     1      11.498   6.020  23.387  0.00  0.00    -0.166 F 
ATOM     28  F   UNL     1      10.130   6.410  25.033  0.00  0.00    -0.166 F 
ENDBRANCH  22  25
ENDBRANCH  17  19
ENDBRANCH   6  15
TORSDOF 3
ENDMDL
MODEL 5
REMARK VINA RESULT:      -7.6      4.683      8.449
REMARK  Name = 
REMARK  3 active torsions:
REMARK  status: ('A' for Active; 'I' for Inactive)
REMARK    1  A    between atoms: N_16  and  N_19
REMARK    2  A    between atoms: C_20  and  C_22
REMARK    3  A    between atoms: C_25  and  C_28
REMARK                            x       y       z     vdW  Elec       q    Type
REMARK                         _______ _______ _______ _____ _____    ______ ____
ROOT
ATOM      1  C   UNL     1       3.825  -3.272  24.851  0.00  0.00    +0.009 C 
ATOM      2  C   UNL     1       4.367  -4.399  25.746  0.00  0.00    +0.001 C 
ATOM      3  C   UNL     1       5.488  -5.472  25.688  0.00  0.00    +0.027 C 
ATOM      4  C   UNL     1       6.377  -5.455  24.433  0.00  0.00    +0.097 C 
ATOM      5  C   UNL     1       7.315  -4.307  24.408  0.00  0.00    +0.243 C 
ATOM      6  N   UNL     1       6.714  -3.358  23.620  0.00  0.00    -0.155 N 
ATOM      7  C   UNL     1       5.767  -3.874  22.763  0.00  0.00    +0.243 C 
ATOM      8  O   UNL     1       5.249  -3.287  21.822  0.00  0.00    -0.273 OA
ATOM      9  O   UNL     1       8.405  -4.277  24.946  0.00  0.00    -0.273 OA
ATOM     10  C   UNL     1       5.474  -5.301  23.188  0.00  0.00    +0.097 C 
ATOM     11  C   UNL     1       4.000  -5.653  23.589  0.00  0.00    +0.027 C 
ATOM     12  C   UNL     1       4.083  -6.964  24.399  0.00  0.00    -0.026 C 
ATOM     13  C   UNL     1       4.805  -6.843  25.534  0.00  0.00    -0.026 C 
ATOM     14  C   UNL     1       3.391  -4.665  24.595  0.00  0.00    +0.001 C 
ENDROOT
BRANCH   6  15
ATOM     15  N   UNL     1       7.026  -1.998  23.731  0.00  0.00    -0.221 N 
ATOM     16  H   UNL     1       6.953  -1.628  24.675  0.00  0.00    +0.174 HD
ATOM     17  C   UNL     1       8.036  -1.507  22.896  0.00  0.00    +0.261 C 
ATOM     18  O   UNL     1       8.627  -2.177  22.054  0.00  0.00    -0.269 OA
BRANCH  17  19
ATOM     19  C   UNL     1       8.447  -0.091  23.103  0.00  0.00    +0.038 A 
ATOM     20  C   UNL     1       8.424   0.846  22.067  0.00  0.00    +0.013 A 
ATOM     21  C   UNL     1       8.769   2.175  22.323  0.00  0.00    +0.013 A 
ATOM     22  C   UNL     1       9.154   2.588  23.608  0.00  0.00    +0.055 A 
ATOM     23  C   UNL     1       9.238   1.630  24.629  0.00  0.00    +0.013 A 
ATOM     24  C   UNL     1       8.890   0.301  24.377  0.00  0.00    +0.013 A 
BRANCH  22  25
ATOM     25  C   UNL     1       9.456   4.044  23.869  0.00  0.00    +0.417 C 
ATOM     26  F   UNL     1       9.126   4.414  25.140  0.00  0.00    -0.166 F 
ATOM     27  F   UNL     1       8.765   4.878  23.045  0.00  0.00    -0.166 F 
ATOM     28  F   UNL     1      10.770   4.369  23.718  0.00  0.00    -0.166 F 
ENDBRANCH  22  25
ENDBRANCH  17  19
ENDBRANCH   6  15
TORSDOF 3
ENDMDL
MODEL 6
REMARK VINA RESULT:      -7.4      2.754      3.789
REMARK  Name = 
REMARK  3 active torsions:
REMARK  status: ('A' for Active; 'I' for Inactive)
REMARK    1  A    between atoms: N_16  and  N_19
REMARK    2  A    between atoms: C_20  and  C_22
REMARK    3  A    between atoms: C_25  and  C_28
REMARK                            x       y       z     vdW  Elec       q    Type
REMARK                         _______ _______ _______ _____ _____    ______ ____
ROOT
ATOM      1  C   UNL     1       5.723   3.388  23.946  0.00  0.00    +0.009 C 
ATOM      2  C   UNL     1       6.527   4.290  22.995  0.00  0.00    +0.001 C 
ATOM      3  C   UNL     1       8.018   4.536  22.635  0.00  0.00    +0.027 C 
ATOM      4  C   UNL     1       9.045   3.652  23.360  0.00  0.00    +0.097 C 
ATOM      5  C   UNL     1       9.041   2.250  22.877  0.00  0.00    +0.243 C 
ATOM      6  N   UNL     1       8.268   1.555  23.772  0.00  0.00    -0.155 N 
ATOM      7  C   UNL     1       8.154   2.173  24.997  0.00  0.00    +0.243 C 
ATOM      8  O   UNL     1       7.710   1.671  26.021  0.00  0.00    -0.273 OA
ATOM      9  O   UNL     1       9.653   1.836  21.911  0.00  0.00    -0.273 OA
ATOM     10  C   UNL     1       8.677   3.591  24.860  0.00  0.00    +0.097 C 
ATOM     11  C   UNL     1       7.689   4.765  25.183  0.00  0.00    +0.027 C 
ATOM     12  C   UNL     1       8.297   6.022  24.526  0.00  0.00    -0.026 C 
ATOM     13  C   UNL     1       8.399   5.923  23.182  0.00  0.00    -0.026 C 
ATOM     14  C   UNL     1       6.331   4.630  24.476  0.00  0.00    +0.001 C 
ENDROOT
BRANCH   6  15
ATOM     15  N   UNL     1       7.634   0.355  23.428  0.00  0.00    -0.221 N 
ATOM     16  H   UNL     1       7.091   0.400  22.570  0.00  0.00    +0.174 HD
ATOM     17  C   UNL     1       8.313  -0.832  23.729  0.00  0.00    +0.261 C 
ATOM     18  O   UNL     1       9.395  -0.884  24.307  0.00  0.00    -0.269 OA
BRANCH  17  19
ATOM     19  C   UNL     1       7.692  -2.098  23.252  0.00  0.00    +0.038 A 
ATOM     20  C   UNL     1       6.468  -2.114  22.579  0.00  0.00    +0.013 A 
ATOM     21  C   UNL     1       5.951  -3.321  22.104  0.00  0.00    +0.013 A 
ATOM     22  C   UNL     1       6.635  -4.531  22.303  0.00  0.00    +0.055 A 
ATOM     23  C   UNL     1       7.832  -4.516  23.036  0.00  0.00    +0.013 A 
ATOM     24  C   UNL     1       8.353  -3.310  23.509  0.00  0.00    +0.013 A 
BRANCH  22  25
ATOM     25  C   UNL     1       6.085  -5.810  21.720  0.00  0.00    +0.417 C 
ATOM     26  F   UNL     1       6.829  -6.895  22.078  0.00  0.00    -0.166 F 
ATOM     27  F   UNL     1       6.068  -5.800  20.359  0.00  0.00    -0.166 F 
ATOM     28  F   UNL     1       4.811  -6.089  22.111  0.00  0.00    -0.166 F 
ENDBRANCH  22  25
ENDBRANCH  17  19
ENDBRANCH   6  15
TORSDOF 3
ENDMDL
MODEL 7
REMARK VINA RESULT:      -7.4      5.789      8.973
REMARK  Name = 
REMARK  3 active torsions:
REMARK  status: ('A' for Active; 'I' for Inactive)
REMARK    1  A    between atoms: N_16  and  N_19
REMARK    2  A    between atoms: C_20  and  C_22
REMARK    3  A    between atoms: C_25  and  C_28
REMARK                            x       y       z     vdW  Elec       q    Type
REMARK                         _______ _______ _______ _____ _____    ______ ____
ROOT
ATOM      1  C   UNL     1       8.060  -2.535  26.317  0.00  0.00    +0.009 C 
ATOM      2  C   UNL     1       8.531  -3.693  25.422  0.00  0.00    +0.001 C 
ATOM      3  C   UNL     1       8.355  -4.147  23.947  0.00  0.00    +0.027 C 
ATOM      4  C   UNL     1       7.517  -3.223  23.048  0.00  0.00    +0.097 C 
ATOM      5  C   UNL     1       8.223  -1.967  22.698  0.00  0.00    +0.243 C 
ATOM      6  N   UNL     1       7.757  -1.024  23.580  0.00  0.00    -0.155 N 
ATOM      7  C   UNL     1       6.539  -1.346  24.135  0.00  0.00    +0.243 C 
ATOM      8  O   UNL     1       5.815  -0.592  24.772  0.00  0.00    -0.273 OA
ATOM      9  O   UNL     1       9.007  -1.833  21.778  0.00  0.00    -0.273 OA
ATOM     10  C   UNL     1       6.246  -2.801  23.819  0.00  0.00    +0.097 C 
ATOM     11  C   UNL     1       6.042  -3.780  25.026  0.00  0.00    +0.027 C 
ATOM     12  C   UNL     1       6.235  -5.201  24.456  0.00  0.00    -0.026 C 
ATOM     13  C   UNL     1       7.474  -5.409  23.957  0.00  0.00    -0.026 C 
ATOM     14  C   UNL     1       7.150  -3.680  26.085  0.00  0.00    +0.001 C 
ENDROOT
BRANCH   6  15
ATOM     15  N   UNL     1       8.495   0.123  23.895  0.00  0.00    -0.221 N 
ATOM     16  H   UNL     1       9.440  -0.064  24.219  0.00  0.00    +0.174 HD
ATOM     17  C   UNL     1       8.267   1.260  23.111  0.00  0.00    +0.261 C 
ATOM     18  O   UNL     1       7.442   1.324  22.204  0.00  0.00    -0.269 OA
BRANCH  17  19
ATOM     19  C   UNL     1       9.140   2.439  23.371  0.00  0.00    +0.038 A 
ATOM     20  C   UNL     1      10.520   2.399  23.156  0.00  0.00    +0.013 A 
ATOM     21  C   UNL     1      11.288   3.546  23.365  0.00  0.00    +0.013 A 
ATOM     22  C   UNL     1      10.700   4.743  23.803  0.00  0.00    +0.055 A 
ATOM     23  C   UNL     1       9.324   4.758  24.079  0.00  0.00    +0.013 A 
ATOM     24  C   UNL     1       8.552   3.613  23.868  0.00  0.00    +0.013 A 
BRANCH  22  25
ATOM     25  C   UNL     1      11.547   5.984  23.956  0.00  0.00    +0.417 C 
ATOM     26  F   UNL     1      10.798   7.073  24.291  0.00  0.00    -0.166 F 
ATOM     27  F   UNL     1      12.198   6.317  22.808  0.00  0.00    -0.166 F 
ATOM     28  F   UNL     1      12.504   5.882  24.918  0.00  0.00    -0.166 F 
ENDBRANCH  22  25
ENDBRANCH  17  19
ENDBRANCH   6  15
TORSDOF 3
ENDMDL
MODEL 8
REMARK VINA RESULT:      -7.3      5.168      8.568
REMARK  Name = 
REMARK  3 active torsions:
REMARK  status: ('A' for Active; 'I' for Inactive)
REMARK    1  A    between atoms: N_16  and  N_19
REMARK    2  A    between atoms: C_20  and  C_22
REMARK    3  A    between atoms: C_25  and  C_28
REMARK                            x       y       z     vdW  Elec       q    Type
REMARK                         _______ _______ _______ _____ _____    ______ ____
ROOT
ATOM      1  C   UNL     1       5.514  -2.762  24.210  0.00  0.00    +0.009 C 
ATOM      2  C   UNL     1       5.667  -3.179  25.682  0.00  0.00    +0.001 C 
ATOM      3  C   UNL     1       6.820  -3.402  26.698  0.00  0.00    +0.027 C 
ATOM      4  C   UNL     1       8.241  -3.118  26.183  0.00  0.00    +0.097 C 
ATOM      5  C   UNL     1       8.514  -1.670  26.016  0.00  0.00    +0.243 C 
ATOM      6  N   UNL     1       8.309  -1.408  24.684  0.00  0.00    -0.155 N 
ATOM      7  C   UNL     1       8.400  -2.525  23.884  0.00  0.00    +0.243 C 
ATOM      8  O   UNL     1       8.473  -2.533  22.663  0.00  0.00    -0.273 OA
ATOM      9  O   UNL     1       8.889  -0.918  26.895  0.00  0.00    -0.273 OA
ATOM     10  C   UNL     1       8.396  -3.749  24.781  0.00  0.00    +0.097 C 
ATOM     11  C   UNL     1       7.250  -4.799  24.573  0.00  0.00    +0.027 C 
ATOM     12  C   UNL     1       7.208  -5.642  25.865  0.00  0.00    -0.026 C 
ATOM     13  C   UNL     1       6.912  -4.915  26.964  0.00  0.00    -0.026 C 
ATOM     14  C   UNL     1       5.849  -4.169  24.528  0.00  0.00    +0.001 C 
ENDROOT
BRANCH   6  15
ATOM     15  N   UNL     1       7.997  -0.124  24.222  0.00  0.00    -0.221 N 
ATOM     16  H   UNL     1       7.176   0.289  24.657  0.00  0.00    +0.174 HD
ATOM     17  C   UNL     1       9.071   0.710  23.890  0.00  0.00    +0.261 C 
ATOM     18  O   UNL     1      10.251   0.375  23.939  0.00  0.00    -0.269 OA
BRANCH  17  19
ATOM     19  C   UNL     1       8.738   2.113  23.516  0.00  0.00    +0.038 A 
ATOM     20  C   UNL     1       7.742   2.413  22.583  0.00  0.00    +0.013 A 
ATOM     21  C   UNL     1       7.430   3.745  22.304  0.00  0.00    +0.013 A 
ATOM     22  C   UNL     1       8.112   4.797  22.936  0.00  0.00    +0.055 A 
ATOM     23  C   UNL     1       9.155   4.489  23.822  0.00  0.00    +0.013 A 
ATOM     24  C   UNL     1       9.467   3.157  24.106  0.00  0.00    +0.013 A 
BRANCH  22  25
ATOM     25  C   UNL     1       7.707   6.226  22.663  0.00  0.00    +0.417 C 
ATOM     26  F   UNL     1       8.694   7.107  22.995  0.00  0.00    -0.166 F 
ATOM     27  F   UNL     1       6.612   6.604  23.377  0.00  0.00    -0.166 F 
ATOM     28  F   UNL     1       7.412   6.474  21.358  0.00  0.00    -0.166 F 
ENDBRANCH  22  25
ENDBRANCH  17  19
ENDBRANCH   6  15
TORSDOF 3
ENDMDL
MODEL 9
REMARK VINA RESULT:      -7.1      5.664      8.900
REMARK  Name = 
REMARK  3 active torsions:
REMARK  status: ('A' for Active; 'I' for Inactive)
REMARK    1  A    between atoms: N_16  and  N_19
REMARK    2  A    between atoms: C_20  and  C_22
REMARK    3  A    between atoms: C_25  and  C_28
REMARK                            x       y       z     vdW  Elec       q    Type
REMARK                         _______ _______ _______ _____ _____    ______ ____
ROOT
ATOM      1  C   UNL     1       9.301  -3.583  25.166  0.00  0.00    +0.009 C 
ATOM      2  C   UNL     1       8.459  -4.240  24.060  0.00  0.00    +0.001 C 
ATOM      3  C   UNL     1       7.046  -4.066  23.438  0.00  0.00    +0.027 C 
ATOM      4  C   UNL     1       6.193  -2.919  24.003  0.00  0.00    +0.097 C 
ATOM      5  C   UNL     1       6.671  -1.582  23.575  0.00  0.00    +0.243 C 
ATOM      6  N   UNL     1       7.437  -1.115  24.614  0.00  0.00    -0.155 N 
ATOM      7  C   UNL     1       7.156  -1.720  25.818  0.00  0.00    +0.243 C 
ATOM      8  O   UNL     1       7.535  -1.345  26.920  0.00  0.00    -0.273 OA
ATOM      9  O   UNL     1       6.379  -1.030  22.532  0.00  0.00    -0.273 OA
ATOM     10  C   UNL     1       6.293  -2.939  25.545  0.00  0.00    +0.097 C 
ATOM     11  C   UNL     1       6.844  -4.336  25.995  0.00  0.00    +0.027 C 
ATOM     12  C   UNL     1       6.037  -5.384  25.200  0.00  0.00    -0.026 C 
ATOM     13  C   UNL     1       6.204  -5.283  23.863  0.00  0.00    -0.026 C 
ATOM     14  C   UNL     1       8.288  -4.596  25.540  0.00  0.00    +0.001 C 
ENDROOT
BRANCH   6  15
ATOM     15  N   UNL     1       8.429  -0.146  24.426  0.00  0.00    -0.221 N 
ATOM     16  H   UNL     1       9.152  -0.411  23.763  0.00  0.00    +0.174 HD
ATOM     17  C   UNL     1       8.026   1.194  24.478  0.00  0.00    +0.261 C 
ATOM     18  O   UNL     1       6.881   1.565  24.717  0.00  0.00    -0.269 OA
BRANCH  17  19
ATOM     19  C   UNL     1       9.060   2.217  24.156  0.00  0.00    +0.038 A 
ATOM     20  C   UNL     1       8.848   3.579  24.383  0.00  0.00    +0.013 A 
ATOM     21  C   UNL     1       9.868   4.495  24.114  0.00  0.00    +0.013 A 
ATOM     22  C   UNL     1      11.106   4.072  23.604  0.00  0.00    +0.055 A 
ATOM     23  C   UNL     1      11.289   2.710  23.318  0.00  0.00    +0.013 A 
ATOM     24  C   UNL     1      10.272   1.792  23.589  0.00  0.00    +0.013 A 
BRANCH  22  25
ATOM     25  C   UNL     1      12.212   5.077  23.387  0.00  0.00    +0.417 C 
ATOM     26  F   UNL     1      13.440   4.486  23.362  0.00  0.00    -0.166 F 
ATOM     27  F   UNL     1      12.268   6.014  24.372  0.00  0.00    -0.166 F 
ATOM     28  F   UNL     1      12.107   5.765  22.217  0.00  0.00    -0.166 F 
ENDBRANCH  22  25
ENDBRANCH  17  19
ENDBRANCH   6  15
TORSDOF 3
ENDMDL
