MODEL 1
REMARK VINA RESULT:      -6.0      0.000      0.000
REMARK  Name = 
REMARK  21 active torsions:
REMARK  status: ('A' for Active; 'I' for Inactive)
REMARK    1  A    between atoms: C_1  and  C_2
REMARK    2  A    between atoms: C_2  and  C_3
REMARK    3  A    between atoms: C_2  and  C_4
REMARK    4  A    between atoms: C_2  and  C_5
REMARK    5  A    between atoms: C_5  and  C_6
REMARK    6  A    between atoms: C_5  and  N_44
REMARK    7  A    between atoms: C_10  and  O_30
REMARK    8  A    between atoms: C_12  and  C_13
REMARK    9  A    between atoms: N_15  and  C_16
REMARK   10  A    between atoms: C_16  and  C_21
REMARK   11  A    between atoms: C_18  and  C_19
REMARK   12  A    between atoms: N_23  and  S_24
REMARK   13  A    between atoms: S_24  and  C_27
REMARK   14  A    between atoms: O_30  and  C_31
REMARK   15  A    between atoms: C_34  and  O_42
REMARK   16  A    between atoms: O_42  and  C_43
REMARK   17  A    between atoms: C_45  and  O_47
REMARK   18  A    between atoms: O_47  and  C_48
REMARK   19  A    between atoms: C_48  and  C_49
REMARK   20  A    between atoms: C_48  and  C_50
REMARK   21  A    between atoms: C_48  and  C_51
REMARK                            x       y       z     vdW  Elec       q    Type
REMARK                         _______ _______ _______ _____ _____    ______ ____
ROOT
ATOM      1  C   UNL     1       8.116   2.012  22.415  0.00  0.00    +0.237 C 
ATOM      2  N   UNL     1       8.420   0.931  23.219  0.00  0.00    -0.285 N 
ATOM      3  C   UNL     1       8.877   0.919  24.601  0.00  0.00    +0.166 C 
ATOM      4  C   UNL     1       9.158  -0.557  24.910  0.00  0.00    +0.078 C 
ATOM      5  C   UNL     1       8.458  -1.348  23.787  0.00  0.00    +0.195 C 
ATOM      6  C   UNL     1       8.586  -0.385  22.615  0.00  0.00    +0.153 C 
ATOM      7  O   UNL     1       7.920   1.813  21.213  0.00  0.00    -0.274 OA
ENDROOT
BRANCH   3   8
ATOM      8  C   UNL     1       7.879   1.484  25.617  0.00  0.00    +0.234 C 
ATOM      9  N   UNL     1       6.786   0.675  25.856  0.00  0.00    -0.299 N 
ATOM     10  H   UNL     1       6.761  -0.249  25.438  0.00  0.00    +0.150 HD
ATOM     11  O   UNL     1       8.031   2.564  26.181  0.00  0.00    -0.274 OA
BRANCH   9  12
ATOM     12  C   UNL     1       5.690   1.027  26.758  0.00  0.00    +0.119 C 
ATOM     13  C   UNL     1       4.390   0.217  26.695  0.00  0.00    +0.046 C 
ATOM     14  C   UNL     1       4.440   1.576  26.065  0.00  0.00    +0.046 C 
BRANCH  12  15
ATOM     15  C   UNL     1       6.042   1.669  28.102  0.00  0.00    +0.256 C 
ATOM     16  N   UNL     1       5.805   3.032  28.213  0.00  0.00    -0.188 N 
ATOM     17  H   UNL     1       5.410   3.568  27.435  0.00  0.00    +0.176 HD
ATOM     18  O   UNL     1       6.554   1.004  28.989  0.00  0.00    -0.272 OA
BRANCH  16  19
ATOM     19  S   UNL     1       6.168   3.960  29.520  0.00  0.00    +0.048 S 
ATOM     20  O   UNL     1       7.559   3.767  29.836  0.00  0.00    -0.155 OA
ATOM     21  O   UNL     1       5.113   3.714  30.485  0.00  0.00    -0.155 OA
BRANCH  19  22
ATOM     22  C   UNL     1       6.045   5.676  28.980  0.00  0.00    +0.151 C 
ATOM     23  C   UNL     1       5.504   5.879  27.595  0.00  0.00    +0.030 C 
ATOM     24  C   UNL     1       6.977   6.043  27.860  0.00  0.00    +0.030 C 
ENDBRANCH  19  22
ENDBRANCH  16  19
ENDBRANCH  12  15
BRANCH  13  25
ATOM     25  C   UNL     1       3.576   0.045  27.907  0.00  0.00    -0.028 C 
ATOM     26  C   UNL     1       3.363  -1.111  28.549  0.00  0.00    +0.004 C 
ENDBRANCH  13  25
ENDBRANCH   9  12
ENDBRANCH   3   8
BRANCH   1  27
ATOM     27  C   UNL     1       7.859   3.423  23.068  0.00  0.00    +0.168 C 
BRANCH  27  29
ATOM     28  C   UNL     1       5.427   2.834  22.470  0.00  0.00    +0.013 C 
ATOM     29  C   UNL     1       6.395   3.962  22.921  0.00  0.00    -0.011 C 
ATOM     30  C   UNL     1       5.859   4.431  24.294  0.00  0.00    +0.013 C 
ATOM     31  C   UNL     1       6.326   5.129  21.930  0.00  0.00    +0.013 C 
ENDBRANCH  27  29
BRANCH  27  32
ATOM     32  N   UNL     1       8.920   4.417  22.793  0.00  0.00    -0.269 N 
ATOM     33  H   UNL     1       9.402   4.384  21.905  0.00  0.00    +0.153 HD
ATOM     34  C   UNL     1       9.512   5.173  23.767  0.00  0.00    +0.401 C 
ATOM     35  O   UNL     1       9.140   5.199  24.926  0.00  0.00    -0.226 OA
BRANCH  34  36
ATOM     36  O   UNL     1      10.481   5.968  23.234  0.00  0.00    -0.445 OA
BRANCH  36  37
ATOM     37  C   UNL     1      11.884   5.624  23.464  0.00  0.00    +0.107 C 
ATOM     38  C   UNL     1      12.441   6.391  24.674  0.00  0.00    +0.055 C 
ATOM     39  C   UNL     1      12.678   6.084  22.227  0.00  0.00    +0.055 C 
ATOM     40  C   UNL     1      12.076   4.108  23.600  0.00  0.00    +0.055 C 
ENDBRANCH  36  37
ENDBRANCH  34  36
ENDBRANCH  27  32
ENDBRANCH   1  27
BRANCH   5  41
ATOM     41  O   UNL     1       7.055  -1.563  24.001  0.00  0.00    -0.471 OA
BRANCH  41  42
ATOM     42  C   UNL     1       6.755  -2.617  24.840  0.00  0.00    +0.223 A 
ATOM     43  C   UNL     1       6.380  -3.840  24.260  0.00  0.00    +0.049 A 
ATOM     44  C   UNL     1       6.484  -4.118  22.876  0.00  0.00    +0.034 A 
ATOM     45  C   UNL     1       6.032  -5.331  22.356  0.00  0.00    +0.042 A 
ATOM     46 CL   UNL     1       6.145  -5.644  20.666  0.00  0.00    -0.084 Cl
ATOM     47  C   UNL     1       5.466  -6.283  23.194  0.00  0.00    +0.021 A 
ATOM     48  C   UNL     1       5.384  -6.034  24.566  0.00  0.00    +0.014 A 
ATOM     49  C   UNL     1       5.840  -4.819  25.128  0.00  0.00    +0.030 A 
ATOM     50  C   UNL     1       5.729  -4.530  26.508  0.00  0.00    +0.146 A 
ATOM     51  C   UNL     1       6.206  -3.307  26.955  0.00  0.00    +0.160 A 
ATOM     52  N   UNL     1       6.726  -2.355  26.163  0.00  0.00    -0.217 NA
BRANCH  50  53
ATOM     53  O   UNL     1       5.153  -5.475  27.319  0.00  0.00    -0.493 OA
ATOM     54  C   UNL     1       5.645  -5.548  28.653  0.00  0.00    +0.277 C 
ENDBRANCH  50  53
ENDBRANCH  41  42
ENDBRANCH   5  41
TORSDOF 14
ENDMDL
MODEL 2
REMARK VINA RESULT:      -5.9      1.756      3.124
REMARK  Name = 
REMARK  21 active torsions:
REMARK  status: ('A' for Active; 'I' for Inactive)
REMARK    1  A    between atoms: C_1  and  C_2
REMARK    2  A    between atoms: C_2  and  C_3
REMARK    3  A    between atoms: C_2  and  C_4
REMARK    4  A    between atoms: C_2  and  C_5
REMARK    5  A    between atoms: C_5  and  C_6
REMARK    6  A    between atoms: C_5  and  N_44
REMARK    7  A    between atoms: C_10  and  O_30
REMARK    8  A    between atoms: C_12  and  C_13
REMARK    9  A    between atoms: N_15  and  C_16
REMARK   10  A    between atoms: C_16  and  C_21
REMARK   11  A    between atoms: C_18  and  C_19
REMARK   12  A    between atoms: N_23  and  S_24
REMARK   13  A    between atoms: S_24  and  C_27
REMARK   14  A    between atoms: O_30  and  C_31
REMARK   15  A    between atoms: C_34  and  O_42
REMARK   16  A    between atoms: O_42  and  C_43
REMARK   17  A    between atoms: C_45  and  O_47
REMARK   18  A    between atoms: O_47  and  C_48
REMARK   19  A    between atoms: C_48  and  C_49
REMARK   20  A    between atoms: C_48  and  C_50
REMARK   21  A    between atoms: C_48  and  C_51
REMARK                            x       y       z     vdW  Elec       q    Type
REMARK                         _______ _______ _______ _____ _____    ______ ____
ROOT
ATOM      1  C   UNL     1       9.424  -0.101  23.399  0.00  0.00    +0.237 C 
ATOM      2  N   UNL     1       9.182  -0.695  24.622  0.00  0.00    -0.285 N 
ATOM      3  C   UNL     1       8.935  -0.067  25.911  0.00  0.00    +0.166 C 
ATOM      4  C   UNL     1       8.856  -1.231  26.908  0.00  0.00    +0.078 C 
ATOM      5  C   UNL     1       8.671  -2.494  26.044  0.00  0.00    +0.195 C 
ATOM      6  C   UNL     1       9.448  -2.118  24.791  0.00  0.00    +0.153 C 
ATOM      7  O   UNL     1       9.789  -0.815  22.461  0.00  0.00    -0.274 OA
ENDROOT
BRANCH   3   8
ATOM      8  C   UNL     1       7.656   0.773  25.987  0.00  0.00    +0.234 C 
ATOM      9  N   UNL     1       7.848   2.070  26.421  0.00  0.00    -0.299 N 
ATOM     10  H   UNL     1       8.796   2.403  26.561  0.00  0.00    +0.150 HD
ATOM     11  O   UNL     1       6.547   0.340  25.686  0.00  0.00    -0.274 OA
BRANCH   9  12
ATOM     12  C   UNL     1       6.769   3.038  26.606  0.00  0.00    +0.119 C 
ATOM     13  C   UNL     1       6.163   3.717  25.372  0.00  0.00    +0.046 C 
ATOM     14  C   UNL     1       7.127   4.479  26.230  0.00  0.00    +0.046 C 
BRANCH  12  15
ATOM     15  C   UNL     1       5.856   2.877  27.824  0.00  0.00    +0.256 C 
ATOM     16  N   UNL     1       5.093   1.718  27.871  0.00  0.00    -0.188 N 
ATOM     17  H   UNL     1       5.149   1.014  27.131  0.00  0.00    +0.176 HD
ATOM     18  O   UNL     1       5.782   3.761  28.662  0.00  0.00    -0.272 OA
BRANCH  16  19
ATOM     19  S   UNL     1       3.986   1.351  29.029  0.00  0.00    +0.048 S 
ATOM     20  O   UNL     1       2.815   2.158  28.804  0.00  0.00    -0.155 OA
ATOM     21  O   UNL     1       4.709   1.371  30.287  0.00  0.00    -0.155 OA
BRANCH  19  22
ATOM     22  C   UNL     1       3.455  -0.342  28.714  0.00  0.00    +0.151 C 
ATOM     23  C   UNL     1       4.490  -1.237  28.095  0.00  0.00    +0.030 C 
ATOM     24  C   UNL     1       3.358  -0.701  27.258  0.00  0.00    +0.030 C 
ENDBRANCH  19  22
ENDBRANCH  16  19
ENDBRANCH  12  15
BRANCH  13  25
ATOM     25  C   UNL     1       4.752   4.129  25.381  0.00  0.00    -0.028 C 
ATOM     26  C   UNL     1       3.768   3.568  24.669  0.00  0.00    +0.004 C 
ENDBRANCH  13  25
ENDBRANCH   9  12
ENDBRANCH   3   8
BRANCH   1  27
ATOM     27  C   UNL     1       9.067   1.419  23.185  0.00  0.00    +0.168 C 
BRANCH  27  29
ATOM     28  C   UNL     1       7.553   3.198  22.105  0.00  0.00    +0.013 C 
ATOM     29  C   UNL     1       7.909   1.687  22.164  0.00  0.00    -0.011 C 
ATOM     30  C   UNL     1       8.366   1.322  20.732  0.00  0.00    +0.013 C 
ATOM     31  C   UNL     1       6.657   0.874  22.513  0.00  0.00    +0.013 C 
ENDBRANCH  27  29
BRANCH  27  32
ATOM     32  N   UNL     1      10.246   2.300  23.037  0.00  0.00    -0.269 N 
ATOM     33  H   UNL     1      11.018   1.991  22.463  0.00  0.00    +0.153 HD
ATOM     34  C   UNL     1      10.504   3.356  23.868  0.00  0.00    +0.401 C 
ATOM     35  O   UNL     1       9.731   3.753  24.721  0.00  0.00    -0.226 OA
BRANCH  34  36
ATOM     36  O   UNL     1      11.675   3.961  23.525  0.00  0.00    -0.445 OA
BRANCH  36  37
ATOM     37  C   UNL     1      11.716   5.420  23.432  0.00  0.00    +0.107 C 
ATOM     38  C   UNL     1      10.346   5.977  23.016  0.00  0.00    +0.055 C 
ATOM     39  C   UNL     1      12.714   5.780  22.315  0.00  0.00    +0.055 C 
ATOM     40  C   UNL     1      12.230   6.052  24.733  0.00  0.00    +0.055 C 
ENDBRANCH  36  37
ENDBRANCH  34  36
ENDBRANCH  27  32
ENDBRANCH   1  27
BRANCH   5  41
ATOM     41  O   UNL     1       7.315  -2.739  25.639  0.00  0.00    -0.471 OA
BRANCH  41  42
ATOM     42  C   UNL     1       6.772  -3.910  26.126  0.00  0.00    +0.223 A 
ATOM     43  C   UNL     1       6.234  -4.825  25.205  0.00  0.00    +0.049 A 
ATOM     44  C   UNL     1       6.394  -4.714  23.803  0.00  0.00    +0.034 A 
ATOM     45  C   UNL     1       5.778  -5.621  22.941  0.00  0.00    +0.042 A 
ATOM     46 CL   UNL     1       5.965  -5.459  21.237  0.00  0.00    -0.084 Cl
ATOM     47  C   UNL     1       4.991  -6.646  23.451  0.00  0.00    +0.021 A 
ATOM     48  C   UNL     1       4.848  -6.785  24.833  0.00  0.00    +0.014 A 
ATOM     49  C   UNL     1       5.466  -5.888  25.737  0.00  0.00    +0.030 A 
ATOM     50  C   UNL     1       5.300  -5.985  27.137  0.00  0.00    +0.146 A 
ATOM     51  C   UNL     1       5.949  -5.053  27.934  0.00  0.00    +0.160 A 
ATOM     52  N   UNL     1       6.687  -4.033  27.466  0.00  0.00    -0.217 NA
BRANCH  50  53
ATOM     53  O   UNL     1       4.508  -6.994  27.624  0.00  0.00    -0.493 OA
ATOM     54  C   UNL     1       3.635  -6.653  28.696  0.00  0.00    +0.277 C 
ENDBRANCH  50  53
ENDBRANCH  41  42
ENDBRANCH   5  41
TORSDOF 14
ENDMDL
MODEL 3
REMARK VINA RESULT:      -5.8      2.269      3.443
REMARK  Name = 
REMARK  21 active torsions:
REMARK  status: ('A' for Active; 'I' for Inactive)
REMARK    1  A    between atoms: C_1  and  C_2
REMARK    2  A    between atoms: C_2  and  C_3
REMARK    3  A    between atoms: C_2  and  C_4
REMARK    4  A    between atoms: C_2  and  C_5
REMARK    5  A    between atoms: C_5  and  C_6
REMARK    6  A    between atoms: C_5  and  N_44
REMARK    7  A    between atoms: C_10  and  O_30
REMARK    8  A    between atoms: C_12  and  C_13
REMARK    9  A    between atoms: N_15  and  C_16
REMARK   10  A    between atoms: C_16  and  C_21
REMARK   11  A    between atoms: C_18  and  C_19
REMARK   12  A    between atoms: N_23  and  S_24
REMARK   13  A    between atoms: S_24  and  C_27
REMARK   14  A    between atoms: O_30  and  C_31
REMARK   15  A    between atoms: C_34  and  O_42
REMARK   16  A    between atoms: O_42  and  C_43
REMARK   17  A    between atoms: C_45  and  O_47
REMARK   18  A    between atoms: O_47  and  C_48
REMARK   19  A    between atoms: C_48  and  C_49
REMARK   20  A    between atoms: C_48  and  C_50
REMARK   21  A    between atoms: C_48  and  C_51
REMARK                            x       y       z     vdW  Elec       q    Type
REMARK                         _______ _______ _______ _____ _____    ______ ____
ROOT
ATOM      1  C   UNL     1       9.277  -0.081  23.408  0.00  0.00    +0.237 C 
ATOM      2  N   UNL     1       9.018  -0.672  24.629  0.00  0.00    -0.285 N 
ATOM      3  C   UNL     1       8.792  -0.041  25.921  0.00  0.00    +0.166 C 
ATOM      4  C   UNL     1       8.677  -1.206  26.913  0.00  0.00    +0.078 C 
ATOM      5  C   UNL     1       8.451  -2.459  26.045  0.00  0.00    +0.195 C 
ATOM      6  C   UNL     1       9.239  -2.103  24.792  0.00  0.00    +0.153 C 
ATOM      7  O   UNL     1       9.618  -0.802  22.467  0.00  0.00    -0.274 OA
ENDROOT
BRANCH   3   8
ATOM      8  C   UNL     1       7.541   0.838  26.002  0.00  0.00    +0.234 C 
ATOM      9  N   UNL     1       7.741   2.063  26.608  0.00  0.00    -0.299 N 
ATOM     10  H   UNL     1       8.685   2.335  26.861  0.00  0.00    +0.150 HD
ATOM     11  O   UNL     1       6.446   0.494  25.566  0.00  0.00    -0.274 OA
BRANCH   9  12
ATOM     12  C   UNL     1       6.684   3.049  26.828  0.00  0.00    +0.119 C 
ATOM     13  C   UNL     1       6.826   4.042  27.986  0.00  0.00    +0.046 C 
ATOM     14  C   UNL     1       5.902   2.871  28.132  0.00  0.00    +0.046 C 
BRANCH  12  15
ATOM     15  C   UNL     1       5.865   3.509  25.619  0.00  0.00    +0.256 C 
ATOM     16  N   UNL     1       4.556   3.052  25.554  0.00  0.00    -0.188 N 
ATOM     17  H   UNL     1       4.166   2.448  26.282  0.00  0.00    +0.176 HD
ATOM     18  O   UNL     1       6.380   4.191  24.748  0.00  0.00    -0.272 OA
BRANCH  16  19
ATOM     19  S   UNL     1       3.505   3.341  24.323  0.00  0.00    +0.048 S 
ATOM     20  O   UNL     1       2.258   2.695  24.636  0.00  0.00    -0.155 OA
ATOM     21  O   UNL     1       4.238   3.060  23.103  0.00  0.00    -0.155 OA
BRANCH  19  22
ATOM     22  C   UNL     1       3.140   5.106  24.364  0.00  0.00    +0.151 C 
ATOM     23  C   UNL     1       2.825   5.669  25.719  0.00  0.00    +0.030 C 
ATOM     24  C   UNL     1       1.720   5.439  24.722  0.00  0.00    +0.030 C 
ENDBRANCH  19  22
ENDBRANCH  16  19
ENDBRANCH  12  15
BRANCH  13  25
ATOM     25  C   UNL     1       6.234   5.383  27.879  0.00  0.00    -0.028 C 
ATOM     26  C   UNL     1       6.911   6.537  27.835  0.00  0.00    +0.004 C 
ENDBRANCH  13  25
ENDBRANCH   9  12
ENDBRANCH   3   8
BRANCH   1  27
ATOM     27  C   UNL     1       8.969   1.451  23.202  0.00  0.00    +0.168 C 
BRANCH  27  29
ATOM     28  C   UNL     1       7.615   3.291  22.016  0.00  0.00    +0.013 C 
ATOM     29  C   UNL     1       7.881   1.764  22.117  0.00  0.00    -0.011 C 
ATOM     30  C   UNL     1       8.390   1.347  20.717  0.00  0.00    +0.013 C 
ATOM     31  C   UNL     1       6.570   1.029  22.413  0.00  0.00    +0.013 C 
ENDBRANCH  27  29
BRANCH  27  32
ATOM     32  N   UNL     1      10.174   2.306  23.141  0.00  0.00    -0.269 N 
ATOM     33  H   UNL     1      10.982   1.976  22.631  0.00  0.00    +0.153 HD
ATOM     34  C   UNL     1      10.389   3.361  23.984  0.00  0.00    +0.401 C 
ATOM     35  O   UNL     1       9.561   3.780  24.772  0.00  0.00    -0.226 OA
BRANCH  34  36
ATOM     36  O   UNL     1      11.596   3.940  23.730  0.00  0.00    -0.445 OA
BRANCH  36  37
ATOM     37  C   UNL     1      11.645   5.369  23.424  0.00  0.00    +0.107 C 
ATOM     38  C   UNL     1      12.638   5.647  22.285  0.00  0.00    +0.055 C 
ATOM     39  C   UNL     1      12.175   6.089  24.679  0.00  0.00    +0.055 C 
ATOM     40  C   UNL     1      10.247   5.928  23.126  0.00  0.00    +0.055 C 
ENDBRANCH  36  37
ENDBRANCH  34  36
ENDBRANCH  27  32
ENDBRANCH   1  27
BRANCH   5  41
ATOM     41  O   UNL     1       7.088  -2.660  25.640  0.00  0.00    -0.471 OA
BRANCH  41  42
ATOM     42  C   UNL     1       6.495  -3.794  26.155  0.00  0.00    +0.223 A 
ATOM     43  C   UNL     1       6.026  -4.765  25.253  0.00  0.00    +0.049 A 
ATOM     44  C   UNL     1       6.301  -4.745  23.864  0.00  0.00    +0.034 A 
ATOM     45  C   UNL     1       5.748  -5.703  23.014  0.00  0.00    +0.042 A 
ATOM     46 CL   UNL     1       6.075  -5.652  21.325  0.00  0.00    -0.084 Cl
ATOM     47  C   UNL     1       4.913  -6.690  23.523  0.00  0.00    +0.021 A 
ATOM     48  C   UNL     1       4.657  -6.739  24.895  0.00  0.00    +0.014 A 
ATOM     49  C   UNL     1       5.207  -5.788  25.787  0.00  0.00    +0.030 A 
ATOM     50  C   UNL     1       4.927  -5.794  27.172  0.00  0.00    +0.146 A 
ATOM     51  C   UNL     1       5.517  -4.815  27.958  0.00  0.00    +0.160 A 
ATOM     52  N   UNL     1       6.300  -3.830  27.489  0.00  0.00    -0.217 NA
BRANCH  50  53
ATOM     53  O   UNL     1       4.088  -6.766  27.656  0.00  0.00    -0.493 OA
ATOM     54  C   UNL     1       4.032  -6.909  29.071  0.00  0.00    +0.277 C 
ENDBRANCH  50  53
ENDBRANCH  41  42
ENDBRANCH   5  41
TORSDOF 14
ENDMDL
MODEL 4
REMARK VINA RESULT:      -5.5      1.752      3.213
REMARK  Name = 
REMARK  21 active torsions:
REMARK  status: ('A' for Active; 'I' for Inactive)
REMARK    1  A    between atoms: C_1  and  C_2
REMARK    2  A    between atoms: C_2  and  C_3
REMARK    3  A    between atoms: C_2  and  C_4
REMARK    4  A    between atoms: C_2  and  C_5
REMARK    5  A    between atoms: C_5  and  C_6
REMARK    6  A    between atoms: C_5  and  N_44
REMARK    7  A    between atoms: C_10  and  O_30
REMARK    8  A    between atoms: C_12  and  C_13
REMARK    9  A    between atoms: N_15  and  C_16
REMARK   10  A    between atoms: C_16  and  C_21
REMARK   11  A    between atoms: C_18  and  C_19
REMARK   12  A    between atoms: N_23  and  S_24
REMARK   13  A    between atoms: S_24  and  C_27
REMARK   14  A    between atoms: O_30  and  C_31
REMARK   15  A    between atoms: C_34  and  O_42
REMARK   16  A    between atoms: O_42  and  C_43
REMARK   17  A    between atoms: C_45  and  O_47
REMARK   18  A    between atoms: O_47  and  C_48
REMARK   19  A    between atoms: C_48  and  C_49
REMARK   20  A    between atoms: C_48  and  C_50
REMARK   21  A    between atoms: C_48  and  C_51
REMARK                            x       y       z     vdW  Elec       q    Type
REMARK                         _______ _______ _______ _____ _____    ______ ____
ROOT
ATOM      1  C   UNL     1       8.191   2.003  22.521  0.00  0.00    +0.237 C 
ATOM      2  N   UNL     1       8.470   0.928  23.341  0.00  0.00    -0.285 N 
ATOM      3  C   UNL     1       8.902   0.926  24.731  0.00  0.00    +0.166 C 
ATOM      4  C   UNL     1       9.162  -0.550  25.060  0.00  0.00    +0.078 C 
ATOM      5  C   UNL     1       8.474  -1.345  23.934  0.00  0.00    +0.195 C 
ATOM      6  C   UNL     1       8.632  -0.396  22.755  0.00  0.00    +0.153 C 
ATOM      7  O   UNL     1       8.013   1.793  21.317  0.00  0.00    -0.274 OA
ENDROOT
BRANCH   3   8
ATOM      8  C   UNL     1       7.893   1.512  25.723  0.00  0.00    +0.234 C 
ATOM      9  N   UNL     1       6.988   0.598  26.227  0.00  0.00    -0.299 N 
ATOM     10  H   UNL     1       7.105  -0.383  25.996  0.00  0.00    +0.150 HD
ATOM     11  O   UNL     1       7.882   2.695  26.054  0.00  0.00    -0.274 OA
BRANCH   9  12
ATOM     12  C   UNL     1       5.914   0.939  27.158  0.00  0.00    +0.119 C 
ATOM     13  C   UNL     1       6.033   2.221  27.989  0.00  0.00    +0.046 C 
ATOM     14  C   UNL     1       6.310   0.898  28.637  0.00  0.00    +0.046 C 
BRANCH  12  15
ATOM     15  C   UNL     1       4.499   0.453  26.835  0.00  0.00    +0.256 C 
ATOM     16  N   UNL     1       4.052  -0.652  27.546  0.00  0.00    -0.188 N 
ATOM     17  H   UNL     1       4.640  -1.105  28.250  0.00  0.00    +0.176 HD
ATOM     18  O   UNL     1       3.847   0.991  25.954  0.00  0.00    -0.272 OA
BRANCH  16  19
ATOM     19  S   UNL     1       2.607  -1.406  27.327  0.00  0.00    +0.048 S 
ATOM     20  O   UNL     1       2.619  -2.032  26.031  0.00  0.00    -0.155 OA
ATOM     21  O   UNL     1       1.595  -0.440  27.712  0.00  0.00    -0.155 OA
BRANCH  19  22
ATOM     22  C   UNL     1       2.557  -2.770  28.505  0.00  0.00    +0.151 C 
ATOM     23  C   UNL     1       2.052  -2.420  29.875  0.00  0.00    +0.030 C 
ATOM     24  C   UNL     1       3.525  -2.639  29.647  0.00  0.00    +0.030 C 
ENDBRANCH  19  22
ENDBRANCH  16  19
ENDBRANCH  12  15
BRANCH  13  25
ATOM     25  C   UNL     1       4.821   2.949  28.391  0.00  0.00    -0.028 C 
ATOM     26  C   UNL     1       4.500   3.304  29.641  0.00  0.00    +0.004 C 
ENDBRANCH  13  25
ENDBRANCH   9  12
ENDBRANCH   3   8
BRANCH   1  27
ATOM     27  C   UNL     1       7.937   3.424  23.154  0.00  0.00    +0.168 C 
BRANCH  27  29
ATOM     28  C   UNL     1       5.539   2.875  22.399  0.00  0.00    +0.013 C 
ATOM     29  C   UNL     1       6.468   3.953  23.020  0.00  0.00    -0.011 C 
ATOM     30  C   UNL     1       5.876   4.242  24.420  0.00  0.00    +0.013 C 
ATOM     31  C   UNL     1       6.411   5.233  22.178  0.00  0.00    +0.013 C 
ENDBRANCH  27  29
BRANCH  27  32
ATOM     32  N   UNL     1       8.989   4.418  22.847  0.00  0.00    -0.269 N 
ATOM     33  H   UNL     1       9.474   4.358  21.962  0.00  0.00    +0.153 HD
ATOM     34  C   UNL     1       9.571   5.213  23.794  0.00  0.00    +0.401 C 
ATOM     35  O   UNL     1       9.195   5.277  24.951  0.00  0.00    -0.226 OA
BRANCH  34  36
ATOM     36  O   UNL     1      10.534   5.998  23.237  0.00  0.00    -0.445 OA
BRANCH  36  37
ATOM     37  C   UNL     1      11.939   5.649  23.444  0.00  0.00    +0.107 C 
ATOM     38  C   UNL     1      12.781   6.029  22.216  0.00  0.00    +0.055 C 
ATOM     39  C   UNL     1      12.014   4.117  23.592  0.00  0.00    +0.055 C 
ATOM     40  C   UNL     1      12.487   6.266  24.738  0.00  0.00    +0.055 C 
ENDBRANCH  36  37
ENDBRANCH  34  36
ENDBRANCH  27  32
ENDBRANCH   1  27
BRANCH   5  41
ATOM     41  O   UNL     1       7.064  -1.543  24.126  0.00  0.00    -0.471 OA
BRANCH  41  42
ATOM     42  C   UNL     1       6.739  -2.605  24.944  0.00  0.00    +0.223 A 
ATOM     43  C   UNL     1       6.360  -3.816  24.341  0.00  0.00    +0.049 A 
ATOM     44  C   UNL     1       6.484  -4.076  22.955  0.00  0.00    +0.034 A 
ATOM     45  C   UNL     1       6.027  -5.276  22.410  0.00  0.00    +0.042 A 
ATOM     46 CL   UNL     1       6.166  -5.566  20.718  0.00  0.00    -0.084 Cl
ATOM     47  C   UNL     1       5.437  -6.233  23.224  0.00  0.00    +0.021 A 
ATOM     48  C   UNL     1       5.334  -6.003  24.599  0.00  0.00    +0.014 A 
ATOM     49  C   UNL     1       5.794  -4.801  25.186  0.00  0.00    +0.030 A 
ATOM     50  C   UNL     1       5.663  -4.530  26.567  0.00  0.00    +0.146 A 
ATOM     51  C   UNL     1       6.146  -3.319  27.040  0.00  0.00    +0.160 A 
ATOM     52  N   UNL     1       6.690  -2.362  26.270  0.00  0.00    -0.217 NA
BRANCH  50  53
ATOM     53  O   UNL     1       5.063  -5.480  27.355  0.00  0.00    -0.493 OA
ATOM     54  C   UNL     1       5.869  -6.054  28.379  0.00  0.00    +0.277 C 
ENDBRANCH  50  53
ENDBRANCH  41  42
ENDBRANCH   5  41
TORSDOF 14
ENDMDL
MODEL 5
REMARK VINA RESULT:      -5.4      1.903      3.571
REMARK  Name = 
REMARK  21 active torsions:
REMARK  status: ('A' for Active; 'I' for Inactive)
REMARK    1  A    between atoms: C_1  and  C_2
REMARK    2  A    between atoms: C_2  and  C_3
REMARK    3  A    between atoms: C_2  and  C_4
REMARK    4  A    between atoms: C_2  and  C_5
REMARK    5  A    between atoms: C_5  and  C_6
REMARK    6  A    between atoms: C_5  and  N_44
REMARK    7  A    between atoms: C_10  and  O_30
REMARK    8  A    between atoms: C_12  and  C_13
REMARK    9  A    between atoms: N_15  and  C_16
REMARK   10  A    between atoms: C_16  and  C_21
REMARK   11  A    between atoms: C_18  and  C_19
REMARK   12  A    between atoms: N_23  and  S_24
REMARK   13  A    between atoms: S_24  and  C_27
REMARK   14  A    between atoms: O_30  and  C_31
REMARK   15  A    between atoms: C_34  and  O_42
REMARK   16  A    between atoms: O_42  and  C_43
REMARK   17  A    between atoms: C_45  and  O_47
REMARK   18  A    between atoms: O_47  and  C_48
REMARK   19  A    between atoms: C_48  and  C_49
REMARK   20  A    between atoms: C_48  and  C_50
REMARK   21  A    between atoms: C_48  and  C_51
REMARK                            x       y       z     vdW  Elec       q    Type
REMARK                         _______ _______ _______ _____ _____    ______ ____
ROOT
ATOM      1  C   UNL     1       7.970   2.228  22.865  0.00  0.00    +0.237 C 
ATOM      2  N   UNL     1       8.079   1.245  23.828  0.00  0.00    -0.285 N 
ATOM      3  C   UNL     1       8.280   1.388  25.262  0.00  0.00    +0.166 C 
ATOM      4  C   UNL     1       8.436  -0.047  25.783  0.00  0.00    +0.078 C 
ATOM      5  C   UNL     1       7.914  -0.950  24.648  0.00  0.00    +0.195 C 
ATOM      6  C   UNL     1       8.291  -0.137  23.418  0.00  0.00    +0.153 C 
ATOM      7  O   UNL     1       7.983   1.892  21.677  0.00  0.00    -0.274 OA
ENDROOT
BRANCH   3   8
ATOM      8  C   UNL     1       7.144   2.093  26.009  0.00  0.00    +0.234 C 
ATOM      9  N   UNL     1       7.561   2.989  26.972  0.00  0.00    -0.299 N 
ATOM     10  H   UNL     1       8.551   3.192  27.055  0.00  0.00    +0.150 HD
ATOM     11  O   UNL     1       5.955   1.888  25.776  0.00  0.00    -0.274 OA
BRANCH   9  12
ATOM     12  C   UNL     1       6.653   3.747  27.832  0.00  0.00    +0.119 C 
ATOM     13  C   UNL     1       5.909   4.951  27.244  0.00  0.00    +0.046 C 
ATOM     14  C   UNL     1       7.098   5.182  28.128  0.00  0.00    +0.046 C 
BRANCH  12  15
ATOM     15  C   UNL     1       5.973   3.010  28.989  0.00  0.00    +0.256 C 
ATOM     16  N   UNL     1       5.061   2.025  28.637  0.00  0.00    -0.188 N 
ATOM     17  H   UNL     1       4.867   1.805  27.657  0.00  0.00    +0.176 HD
ATOM     18  O   UNL     1       6.196   3.335  30.144  0.00  0.00    -0.272 OA
BRANCH  16  19
ATOM     19  S   UNL     1       4.148   1.151  29.689  0.00  0.00    +0.048 S 
ATOM     20  O   UNL     1       3.179   2.033  30.283  0.00  0.00    -0.155 OA
ATOM     21  O   UNL     1       5.088   0.384  30.485  0.00  0.00    -0.155 OA
BRANCH  19  22
ATOM     22  C   UNL     1       3.184  -0.003  28.695  0.00  0.00    +0.151 C 
ATOM     23  C   UNL     1       2.448  -1.060  29.466  0.00  0.00    +0.030 C 
ATOM     24  C   UNL     1       3.700  -1.414  28.707  0.00  0.00    +0.030 C 
ENDBRANCH  19  22
ENDBRANCH  16  19
ENDBRANCH  12  15
BRANCH  13  25
ATOM     25  C   UNL     1       4.582   5.315  27.760  0.00  0.00    -0.028 C 
ATOM     26  C   UNL     1       3.425   5.197  27.097  0.00  0.00    +0.004 C 
ENDBRANCH  13  25
ENDBRANCH   9  12
ENDBRANCH   3   8
BRANCH   1  27
ATOM     27  C   UNL     1       7.664   3.713  23.296  0.00  0.00    +0.168 C 
BRANCH  27  29
ATOM     28  C   UNL     1       5.549   4.929  24.114  0.00  0.00    +0.013 C 
ATOM     29  C   UNL     1       6.236   4.231  22.909  0.00  0.00    -0.011 C 
ATOM     30  C   UNL     1       6.342   5.319  21.815  0.00  0.00    +0.013 C 
ATOM     31  C   UNL     1       5.349   3.091  22.397  0.00  0.00    +0.013 C 
ENDBRANCH  27  29
BRANCH  27  32
ATOM     32  N   UNL     1       8.766   4.661  23.021  0.00  0.00    -0.269 N 
ATOM     33  H   UNL     1       9.204   4.650  22.110  0.00  0.00    +0.153 HD
ATOM     34  C   UNL     1       9.445   5.329  24.003  0.00  0.00    +0.401 C 
ATOM     35  O   UNL     1       9.128   5.313  25.178  0.00  0.00    -0.226 OA
BRANCH  34  36
ATOM     36  O   UNL     1      10.433   6.097  23.466  0.00  0.00    -0.445 OA
BRANCH  36  37
ATOM     37  C   UNL     1      11.823   5.667  23.613  0.00  0.00    +0.107 C 
ATOM     38  C   UNL     1      12.472   6.335  24.835  0.00  0.00    +0.055 C 
ATOM     39  C   UNL     1      12.587   6.152  22.367  0.00  0.00    +0.055 C 
ATOM     40  C   UNL     1      11.936   4.137  23.658  0.00  0.00    +0.055 C 
ENDBRANCH  36  37
ENDBRANCH  34  36
ENDBRANCH  27  32
ENDBRANCH   1  27
BRANCH   5  41
ATOM     41  O   UNL     1       6.486  -1.106  24.626  0.00  0.00    -0.471 OA
BRANCH  41  42
ATOM     42  C   UNL     1       6.040  -2.237  23.974  0.00  0.00    +0.223 A 
ATOM     43  C   UNL     1       5.761  -3.379  24.743  0.00  0.00    +0.049 A 
ATOM     44  C   UNL     1       5.717  -3.383  26.158  0.00  0.00    +0.034 A 
ATOM     45  C   UNL     1       5.500  -4.567  26.862  0.00  0.00    +0.042 A 
ATOM     46 CL   UNL     1       5.471  -4.557  28.583  0.00  0.00    -0.084 Cl
ATOM     47  C   UNL     1       5.329  -5.764  26.179  0.00  0.00    +0.021 A 
ATOM     48  C   UNL     1       5.341  -5.771  24.782  0.00  0.00    +0.014 A 
ATOM     49  C   UNL     1       5.550  -4.588  24.036  0.00  0.00    +0.030 A 
ATOM     50  C   UNL     1       5.608  -4.579  22.624  0.00  0.00    +0.146 A 
ATOM     51  C   UNL     1       5.820  -3.363  21.990  0.00  0.00    +0.160 A 
ATOM     52  N   UNL     1       6.022  -2.197  22.626  0.00  0.00    -0.217 NA
BRANCH  50  53
ATOM     53  O   UNL     1       5.452  -5.773  21.966  0.00  0.00    -0.493 OA
ATOM     54  C   UNL     1       6.141  -5.907  20.727  0.00  0.00    +0.277 C 
ENDBRANCH  50  53
ENDBRANCH  41  42
ENDBRANCH   5  41
TORSDOF 14
ENDMDL
MODEL 6
REMARK VINA RESULT:      -5.4      2.145      3.714
REMARK  Name = 
REMARK  21 active torsions:
REMARK  status: ('A' for Active; 'I' for Inactive)
REMARK    1  A    between atoms: C_1  and  C_2
REMARK    2  A    between atoms: C_2  and  C_3
REMARK    3  A    between atoms: C_2  and  C_4
REMARK    4  A    between atoms: C_2  and  C_5
REMARK    5  A    between atoms: C_5  and  C_6
REMARK    6  A    between atoms: C_5  and  N_44
REMARK    7  A    between atoms: C_10  and  O_30
REMARK    8  A    between atoms: C_12  and  C_13
REMARK    9  A    between atoms: N_15  and  C_16
REMARK   10  A    between atoms: C_16  and  C_21
REMARK   11  A    between atoms: C_18  and  C_19
REMARK   12  A    between atoms: N_23  and  S_24
REMARK   13  A    between atoms: S_24  and  C_27
REMARK   14  A    between atoms: O_30  and  C_31
REMARK   15  A    between atoms: C_34  and  O_42
REMARK   16  A    between atoms: O_42  and  C_43
REMARK   17  A    between atoms: C_45  and  O_47
REMARK   18  A    between atoms: O_47  and  C_48
REMARK   19  A    between atoms: C_48  and  C_49
REMARK   20  A    between atoms: C_48  and  C_50
REMARK   21  A    between atoms: C_48  and  C_51
REMARK                            x       y       z     vdW  Elec       q    Type
REMARK                         _______ _______ _______ _____ _____    ______ ____
ROOT
ATOM      1  C   UNL     1       8.858   1.514  23.977  0.00  0.00    +0.237 C 
ATOM      2  N   UNL     1       8.839   0.471  24.881  0.00  0.00    -0.285 N 
ATOM      3  C   UNL     1       8.254   0.426  26.213  0.00  0.00    +0.166 C 
ATOM      4  C   UNL     1       8.653  -0.946  26.772  0.00  0.00    +0.078 C 
ATOM      5  C   UNL     1       9.118  -1.763  25.550  0.00  0.00    +0.195 C 
ATOM      6  C   UNL     1       9.713  -0.675  24.669  0.00  0.00    +0.153 C 
ATOM      7  O   UNL     1       9.565   1.407  22.971  0.00  0.00    -0.274 OA
ENDROOT
BRANCH   3   8
ATOM      8  C   UNL     1       6.731   0.584  26.256  0.00  0.00    +0.234 C 
ATOM      9  N   UNL     1       6.260   1.298  27.341  0.00  0.00    -0.299 N 
ATOM     10  H   UNL     1       6.929   1.741  27.961  0.00  0.00    +0.150 HD
ATOM     11  O   UNL     1       5.981   0.121  25.401  0.00  0.00    -0.274 OA
BRANCH   9  12
ATOM     12  C   UNL     1       4.844   1.541  27.607  0.00  0.00    +0.119 C 
ATOM     13  C   UNL     1       4.089   2.551  26.734  0.00  0.00    +0.046 C 
ATOM     14  C   UNL     1       4.518   2.949  28.115  0.00  0.00    +0.046 C 
BRANCH  12  15
ATOM     15  C   UNL     1       4.020   0.406  28.221  0.00  0.00    +0.256 C 
ATOM     16  N   UNL     1       3.974  -0.779  27.500  0.00  0.00    -0.188 N 
ATOM     17  H   UNL     1       4.471  -0.881  26.612  0.00  0.00    +0.176 HD
ATOM     18  O   UNL     1       3.403   0.583  29.260  0.00  0.00    -0.272 OA
BRANCH  16  19
ATOM     19  S   UNL     1       3.099  -2.110  27.908  0.00  0.00    +0.048 S 
ATOM     20  O   UNL     1       1.711  -1.831  27.653  0.00  0.00    -0.155 OA
ATOM     21  O   UNL     1       3.581  -2.513  29.216  0.00  0.00    -0.155 OA
BRANCH  19  22
ATOM     22  C   UNL     1       3.543  -3.397  26.727  0.00  0.00    +0.151 C 
ATOM     23  C   UNL     1       3.814  -2.923  25.328  0.00  0.00    +0.030 C 
ATOM     24  C   UNL     1       2.523  -3.628  25.648  0.00  0.00    +0.030 C 
ENDBRANCH  19  22
ENDBRANCH  16  19
ENDBRANCH  12  15
BRANCH  13  25
ATOM     25  C   UNL     1       2.652   2.370  26.482  0.00  0.00    -0.028 C 
ATOM     26  C   UNL     1       1.907   3.103  25.645  0.00  0.00    +0.004 C 
ENDBRANCH  13  25
ENDBRANCH   9  12
ENDBRANCH   3   8
BRANCH   1  27
ATOM     27  C   UNL     1       7.861   2.722  24.157  0.00  0.00    +0.168 C 
BRANCH  27  29
ATOM     28  C   UNL     1       5.415   3.213  23.525  0.00  0.00    +0.013 C 
ATOM     29  C   UNL     1       6.840   2.915  22.983  0.00  0.00    -0.011 C 
ATOM     30  C   UNL     1       7.222   4.156  22.143  0.00  0.00    +0.013 C 
ATOM     31  C   UNL     1       6.799   1.684  22.071  0.00  0.00    +0.013 C 
ENDBRANCH  27  29
BRANCH  27  32
ATOM     32  N   UNL     1       8.501   3.966  24.637  0.00  0.00    -0.269 N 
ATOM     33  H   UNL     1       9.341   4.292  24.178  0.00  0.00    +0.153 HD
ATOM     34  C   UNL     1       8.225   4.533  25.850  0.00  0.00    +0.401 C 
ATOM     35  O   UNL     1       7.339   4.150  26.593  0.00  0.00    -0.226 OA
BRANCH  34  36
ATOM     36  O   UNL     1       8.990   5.643  26.047  0.00  0.00    -0.445 OA
BRANCH  36  37
ATOM     37  C   UNL     1       9.715   6.213  24.912  0.00  0.00    +0.107 C 
ATOM     38  C   UNL     1      10.392   5.107  24.088  0.00  0.00    +0.055 C 
ATOM     39  C   UNL     1      10.832   7.106  25.483  0.00  0.00    +0.055 C 
ATOM     40  C   UNL     1       8.805   7.102  24.054  0.00  0.00    +0.055 C 
ENDBRANCH  36  37
ENDBRANCH  34  36
ENDBRANCH  27  32
ENDBRANCH   1  27
BRANCH   5  41
ATOM     41  O   UNL     1       8.050  -2.370  24.804  0.00  0.00    -0.471 OA
BRANCH  41  42
ATOM     42  C   UNL     1       7.568  -3.546  25.341  0.00  0.00    +0.223 A 
ATOM     43  C   UNL     1       6.902  -4.441  24.487  0.00  0.00    +0.049 A 
ATOM     44  C   UNL     1       6.870  -4.306  23.078  0.00  0.00    +0.034 A 
ATOM     45  C   UNL     1       6.135  -5.194  22.293  0.00  0.00    +0.042 A 
ATOM     46 CL   UNL     1       6.089  -5.003  20.583  0.00  0.00    -0.084 Cl
ATOM     47  C   UNL     1       5.416  -6.222  22.889  0.00  0.00    +0.021 A 
ATOM     48  C   UNL     1       5.462  -6.385  24.275  0.00  0.00    +0.014 A 
ATOM     49  C   UNL     1       6.204  -5.509  25.101  0.00  0.00    +0.030 A 
ATOM     50  C   UNL     1       6.231  -5.630  26.509  0.00  0.00    +0.146 A 
ATOM     51  C   UNL     1       6.990  -4.716  27.225  0.00  0.00    +0.160 A 
ATOM     52  N   UNL     1       7.666  -3.692  26.678  0.00  0.00    -0.217 NA
BRANCH  50  53
ATOM     53  O   UNL     1       5.503  -6.642  27.082  0.00  0.00    -0.493 OA
ATOM     54  C   UNL     1       5.620  -6.785  28.494  0.00  0.00    +0.277 C 
ENDBRANCH  50  53
ENDBRANCH  41  42
ENDBRANCH   5  41
TORSDOF 14
ENDMDL
MODEL 7
REMARK VINA RESULT:      -5.4      2.399      3.394
REMARK  Name = 
REMARK  21 active torsions:
REMARK  status: ('A' for Active; 'I' for Inactive)
REMARK    1  A    between atoms: C_1  and  C_2
REMARK    2  A    between atoms: C_2  and  C_3
REMARK    3  A    between atoms: C_2  and  C_4
REMARK    4  A    between atoms: C_2  and  C_5
REMARK    5  A    between atoms: C_5  and  C_6
REMARK    6  A    between atoms: C_5  and  N_44
REMARK    7  A    between atoms: C_10  and  O_30
REMARK    8  A    between atoms: C_12  and  C_13
REMARK    9  A    between atoms: N_15  and  C_16
REMARK   10  A    between atoms: C_16  and  C_21
REMARK   11  A    between atoms: C_18  and  C_19
REMARK   12  A    between atoms: N_23  and  S_24
REMARK   13  A    between atoms: S_24  and  C_27
REMARK   14  A    between atoms: O_30  and  C_31
REMARK   15  A    between atoms: C_34  and  O_42
REMARK   16  A    between atoms: O_42  and  C_43
REMARK   17  A    between atoms: C_45  and  O_47
REMARK   18  A    between atoms: O_47  and  C_48
REMARK   19  A    between atoms: C_48  and  C_49
REMARK   20  A    between atoms: C_48  and  C_50
REMARK   21  A    between atoms: C_48  and  C_51
REMARK                            x       y       z     vdW  Elec       q    Type
REMARK                         _______ _______ _______ _____ _____    ______ ____
ROOT
ATOM      1  C   UNL     1       9.134   1.025  24.259  0.00  0.00    +0.237 C 
ATOM      2  N   UNL     1       8.725   0.155  25.249  0.00  0.00    -0.285 N 
ATOM      3  C   UNL     1       7.802   0.392  26.350  0.00  0.00    +0.166 C 
ATOM      4  C   UNL     1       7.836  -0.900  27.177  0.00  0.00    +0.078 C 
ATOM      5  C   UNL     1       8.491  -1.952  26.261  0.00  0.00    +0.195 C 
ATOM      6  C   UNL     1       9.451  -1.092  25.452  0.00  0.00    +0.153 C 
ATOM      7  O   UNL     1      10.064   0.682  23.522  0.00  0.00    -0.274 OA
ENDROOT
BRANCH   3   8
ATOM      8  C   UNL     1       6.362   0.706  25.932  0.00  0.00    +0.234 C 
ATOM      9  N   UNL     1       5.785   1.759  26.613  0.00  0.00    -0.299 N 
ATOM     10  H   UNL     1       6.358   2.302  27.250  0.00  0.00    +0.150 HD
ATOM     11  O   UNL     1       5.762   0.081  25.062  0.00  0.00    -0.274 OA
BRANCH   9  12
ATOM     12  C   UNL     1       4.410   2.211  26.407  0.00  0.00    +0.119 C 
ATOM     13  C   UNL     1       3.555   2.563  27.629  0.00  0.00    +0.046 C 
ATOM     14  C   UNL     1       3.334   1.255  26.930  0.00  0.00    +0.046 C 
BRANCH  12  15
ATOM     15  C   UNL     1       4.078   2.933  25.098  0.00  0.00    +0.256 C 
ATOM     16  N   UNL     1       4.523   4.243  24.989  0.00  0.00    -0.188 N 
ATOM     17  H   UNL     1       5.050   4.690  25.744  0.00  0.00    +0.176 HD
ATOM     18  O   UNL     1       3.407   2.380  24.241  0.00  0.00    -0.272 OA
BRANCH  16  19
ATOM     19  S   UNL     1       4.228   5.249  23.723  0.00  0.00    +0.048 S 
ATOM     20  O   UNL     1       3.905   4.443  22.575  0.00  0.00    -0.155 OA
ATOM     21  O   UNL     1       5.319   6.205  23.716  0.00  0.00    -0.155 OA
BRANCH  19  22
ATOM     22  C   UNL     1       2.708   6.135  24.116  0.00  0.00    +0.151 C 
ATOM     23  C   UNL     1       1.480   5.282  24.251  0.00  0.00    +0.030 C 
ATOM     24  C   UNL     1       1.682   6.124  23.019  0.00  0.00    +0.030 C 
ENDBRANCH  19  22
ENDBRANCH  16  19
ENDBRANCH  12  15
BRANCH  13  25
ATOM     25  C   UNL     1       2.509   3.591  27.519  0.00  0.00    -0.028 C 
ATOM     26  C   UNL     1       2.525   4.790  28.114  0.00  0.00    +0.004 C 
ENDBRANCH  13  25
ENDBRANCH   9  12
ENDBRANCH   3   8
BRANCH   1  27
ATOM     27  C   UNL     1       8.309   2.339  23.982  0.00  0.00    +0.168 C 
BRANCH  27  29
ATOM     28  C   UNL     1       6.346   1.837  22.395  0.00  0.00    +0.013 C 
ATOM     29  C   UNL     1       7.756   2.475  22.521  0.00  0.00    -0.011 C 
ATOM     30  C   UNL     1       7.560   3.967  22.164  0.00  0.00    +0.013 C 
ATOM     31  C   UNL     1       8.707   1.837  21.503  0.00  0.00    +0.013 C 
ENDBRANCH  27  29
BRANCH  27  32
ATOM     32  N   UNL     1       8.924   3.566  24.533  0.00  0.00    -0.269 N 
ATOM     33  H   UNL     1       9.914   3.720  24.395  0.00  0.00    +0.153 HD
ATOM     34  C   UNL     1       8.324   4.347  25.482  0.00  0.00    +0.401 C 
ATOM     35  O   UNL     1       7.180   4.187  25.868  0.00  0.00    -0.226 OA
BRANCH  34  36
ATOM     36  O   UNL     1       9.135   5.383  25.834  0.00  0.00    -0.445 OA
BRANCH  36  37
ATOM     37  C   UNL     1       9.767   6.176  24.781  0.00  0.00    +0.107 C 
ATOM     38  C   UNL     1      10.544   5.273  23.811  0.00  0.00    +0.055 C 
ATOM     39  C   UNL     1      10.791   7.106  25.459  0.00  0.00    +0.055 C 
ATOM     40  C   UNL     1       8.746   7.063  24.056  0.00  0.00    +0.055 C 
ENDBRANCH  36  37
ENDBRANCH  34  36
ENDBRANCH  27  32
ENDBRANCH   1  27
BRANCH   5  41
ATOM     41  O   UNL     1       7.589  -2.566  25.327  0.00  0.00    -0.471 OA
BRANCH  41  42
ATOM     42  C   UNL     1       6.985  -3.719  25.782  0.00  0.00    +0.223 A 
ATOM     43  C   UNL     1       6.409  -4.584  24.837  0.00  0.00    +0.049 A 
ATOM     44  C   UNL     1       6.583  -4.449  23.439  0.00  0.00    +0.034 A 
ATOM     45  C   UNL     1       5.929  -5.303  22.552  0.00  0.00    +0.042 A 
ATOM     46 CL   UNL     1       6.135  -5.110  20.853  0.00  0.00    -0.084 Cl
ATOM     47  C   UNL     1       5.089  -6.299  23.033  0.00  0.00    +0.021 A 
ATOM     48  C   UNL     1       4.930  -6.464  24.411  0.00  0.00    +0.014 A 
ATOM     49  C   UNL     1       5.585  -5.621  25.339  0.00  0.00    +0.030 A 
ATOM     50  C   UNL     1       5.406  -5.743  26.736  0.00  0.00    +0.146 A 
ATOM     51  C   UNL     1       6.095  -4.863  27.558  0.00  0.00    +0.160 A 
ATOM     52  N   UNL     1       6.885  -3.869  27.119  0.00  0.00    -0.217 NA
BRANCH  50  53
ATOM     53  O   UNL     1       4.561  -6.722  27.194  0.00  0.00    -0.493 OA
ATOM     54  C   UNL     1       4.570  -6.961  28.597  0.00  0.00    +0.277 C 
ENDBRANCH  50  53
ENDBRANCH  41  42
ENDBRANCH   5  41
TORSDOF 14
ENDMDL
MODEL 8
REMARK VINA RESULT:      -5.3      2.491      3.731
REMARK  Name = 
REMARK  21 active torsions:
REMARK  status: ('A' for Active; 'I' for Inactive)
REMARK    1  A    between atoms: C_1  and  C_2
REMARK    2  A    between atoms: C_2  and  C_3
REMARK    3  A    between atoms: C_2  and  C_4
REMARK    4  A    between atoms: C_2  and  C_5
REMARK    5  A    between atoms: C_5  and  C_6
REMARK    6  A    between atoms: C_5  and  N_44
REMARK    7  A    between atoms: C_10  and  O_30
REMARK    8  A    between atoms: C_12  and  C_13
REMARK    9  A    between atoms: N_15  and  C_16
REMARK   10  A    between atoms: C_16  and  C_21
REMARK   11  A    between atoms: C_18  and  C_19
REMARK   12  A    between atoms: N_23  and  S_24
REMARK   13  A    between atoms: S_24  and  C_27
REMARK   14  A    between atoms: O_30  and  C_31
REMARK   15  A    between atoms: C_34  and  O_42
REMARK   16  A    between atoms: O_42  and  C_43
REMARK   17  A    between atoms: C_45  and  O_47
REMARK   18  A    between atoms: O_47  and  C_48
REMARK   19  A    between atoms: C_48  and  C_49
REMARK   20  A    between atoms: C_48  and  C_50
REMARK   21  A    between atoms: C_48  and  C_51
REMARK                            x       y       z     vdW  Elec       q    Type
REMARK                         _______ _______ _______ _____ _____    ______ ____
ROOT
ATOM      1  C   UNL     1       9.451  -2.080  23.747  0.00  0.00    +0.237 C 
ATOM      2  N   UNL     1       9.164  -2.723  24.935  0.00  0.00    -0.285 N 
ATOM      3  C   UNL     1       8.646  -2.164  26.175  0.00  0.00    +0.166 C 
ATOM      4  C   UNL     1       8.647  -3.336  27.166  0.00  0.00    +0.078 C 
ATOM      5  C   UNL     1       8.802  -4.601  26.299  0.00  0.00    +0.195 C 
ATOM      6  C   UNL     1       9.654  -4.078  25.152  0.00  0.00    +0.153 C 
ATOM      7  O   UNL     1      10.054  -2.706  22.871  0.00  0.00    -0.274 OA
ENDROOT
BRANCH   3   8
ATOM      8  C   UNL     1       7.240  -1.566  26.078  0.00  0.00    +0.234 C 
ATOM      9  N   UNL     1       7.026  -0.470  26.891  0.00  0.00    -0.299 N 
ATOM     10  H   UNL     1       7.810  -0.084  27.407  0.00  0.00    +0.150 HD
ATOM     11  O   UNL     1       6.366  -2.012  25.338  0.00  0.00    -0.274 OA
BRANCH   9  12
ATOM     12  C   UNL     1       5.751   0.239  26.990  0.00  0.00    +0.119 C 
ATOM     13  C   UNL     1       5.135   0.465  28.376  0.00  0.00    +0.046 C 
ATOM     14  C   UNL     1       4.581  -0.612  27.492  0.00  0.00    +0.046 C 
BRANCH  12  15
ATOM     15  C   UNL     1       5.411   1.265  25.906  0.00  0.00    +0.256 C 
ATOM     16  N   UNL     1       6.025   2.504  26.019  0.00  0.00    -0.188 N 
ATOM     17  H   UNL     1       6.673   2.709  26.784  0.00  0.00    +0.176 HD
ATOM     18  O   UNL     1       4.597   0.997  25.037  0.00  0.00    -0.272 OA
BRANCH  16  19
ATOM     19  S   UNL     1       5.764   3.791  25.030  0.00  0.00    +0.048 S 
ATOM     20  O   UNL     1       4.361   4.107  25.064  0.00  0.00    -0.155 OA
ATOM     21  O   UNL     1       6.460   3.486  23.794  0.00  0.00    -0.155 OA
BRANCH  19  22
ATOM     22  C   UNL     1       6.581   5.202  25.799  0.00  0.00    +0.151 C 
ATOM     23  C   UNL     1       7.312   4.907  27.077  0.00  0.00    +0.030 C 
ATOM     24  C   UNL     1       5.987   5.623  27.113  0.00  0.00    +0.030 C 
ENDBRANCH  19  22
ENDBRANCH  16  19
ENDBRANCH  12  15
BRANCH  13  25
ATOM     25  C   UNL     1       4.305   1.652  28.623  0.00  0.00    -0.028 C 
ATOM     26  C   UNL     1       3.013   1.645  28.975  0.00  0.00    +0.004 C 
ENDBRANCH  13  25
ENDBRANCH   9  12
ENDBRANCH   3   8
BRANCH   1  27
ATOM     27  C   UNL     1       8.860  -0.645  23.474  0.00  0.00    +0.168 C 
BRANCH  27  29
ATOM     28  C   UNL     1       7.065  -1.844  22.073  0.00  0.00    +0.013 C 
ATOM     29  C   UNL     1       7.907  -0.549  22.233  0.00  0.00    -0.011 C 
ATOM     30  C   UNL     1       6.875   0.584  22.440  0.00  0.00    +0.013 C 
ATOM     31  C   UNL     1       8.694  -0.281  20.945  0.00  0.00    +0.013 C 
ENDBRANCH  27  29
BRANCH  27  32
ATOM     32  N   UNL     1       9.852   0.447  23.584  0.00  0.00    -0.269 N 
ATOM     33  H   UNL     1      10.745   0.345  23.120  0.00  0.00    +0.153 HD
ATOM     34  C   UNL     1       9.777   1.439  24.522  0.00  0.00    +0.401 C 
ATOM     35  O   UNL     1       8.827   1.597  25.267  0.00  0.00    -0.226 OA
BRANCH  34  36
ATOM     36  O   UNL     1      10.843   2.280  24.419  0.00  0.00    -0.445 OA
BRANCH  36  37
ATOM     37  C   UNL     1      10.810   3.345  23.417  0.00  0.00    +0.107 C 
ATOM     38  C   UNL     1      12.132   4.128  23.413  0.00  0.00    +0.055 C 
ATOM     39  C   UNL     1       9.698   4.327  23.829  0.00  0.00    +0.055 C 
ATOM     40  C   UNL     1      10.454   2.799  22.028  0.00  0.00    +0.055 C 
ENDBRANCH  36  37
ENDBRANCH  34  36
ENDBRANCH  27  32
ENDBRANCH   1  27
BRANCH   5  41
ATOM     41  O   UNL     1       7.574  -5.078  25.726  0.00  0.00    -0.471 OA
BRANCH  41  42
ATOM     42  C   UNL     1       6.768  -5.783  26.596  0.00  0.00    +0.223 A 
ATOM     43  C   UNL     1       5.461  -6.094  26.185  0.00  0.00    +0.049 A 
ATOM     44  C   UNL     1       4.986  -5.906  24.865  0.00  0.00    +0.034 A 
ATOM     45  C   UNL     1       3.657  -6.173  24.539  0.00  0.00    +0.042 A 
ATOM     46 CL   UNL     1       3.091  -5.918  22.934  0.00  0.00    -0.084 Cl
ATOM     47  C   UNL     1       2.777  -6.625  25.514  0.00  0.00    +0.021 A 
ATOM     48  C   UNL     1       3.238  -6.843  26.815  0.00  0.00    +0.014 A 
ATOM     49  C   UNL     1       4.581  -6.590  27.177  0.00  0.00    +0.030 A 
ATOM     50  C   UNL     1       5.059  -6.764  28.496  0.00  0.00    +0.146 A 
ATOM     51  C   UNL     1       6.395  -6.486  28.745  0.00  0.00    +0.160 A 
ATOM     52  N   UNL     1       7.259  -6.016  27.830  0.00  0.00    -0.217 NA
BRANCH  50  53
ATOM     53  O   UNL     1       4.173  -7.196  29.450  0.00  0.00    -0.493 OA
ATOM     54  C   UNL     1       3.630  -6.198  30.309  0.00  0.00    +0.277 C 
ENDBRANCH  50  53
ENDBRANCH  41  42
ENDBRANCH   5  41
TORSDOF 14
ENDMDL
MODEL 9
REMARK VINA RESULT:      -5.3      1.757      2.343
REMARK  Name = 
REMARK  21 active torsions:
REMARK  status: ('A' for Active; 'I' for Inactive)
REMARK    1  A    between atoms: C_1  and  C_2
REMARK    2  A    between atoms: C_2  and  C_3
REMARK    3  A    between atoms: C_2  and  C_4
REMARK    4  A    between atoms: C_2  and  C_5
REMARK    5  A    between atoms: C_5  and  C_6
REMARK    6  A    between atoms: C_5  and  N_44
REMARK    7  A    between atoms: C_10  and  O_30
REMARK    8  A    between atoms: C_12  and  C_13
REMARK    9  A    between atoms: N_15  and  C_16
REMARK   10  A    between atoms: C_16  and  C_21
REMARK   11  A    between atoms: C_18  and  C_19
REMARK   12  A    between atoms: N_23  and  S_24
REMARK   13  A    between atoms: S_24  and  C_27
REMARK   14  A    between atoms: O_30  and  C_31
REMARK   15  A    between atoms: C_34  and  O_42
REMARK   16  A    between atoms: O_42  and  C_43
REMARK   17  A    between atoms: C_45  and  O_47
REMARK   18  A    between atoms: O_47  and  C_48
REMARK   19  A    between atoms: C_48  and  C_49
REMARK   20  A    between atoms: C_48  and  C_50
REMARK   21  A    between atoms: C_48  and  C_51
REMARK                            x       y       z     vdW  Elec       q    Type
REMARK                         _______ _______ _______ _____ _____    ______ ____
ROOT
ATOM      1  C   UNL     1       8.306   1.909  22.620  0.00  0.00    +0.237 C 
ATOM      2  N   UNL     1       8.538   0.861  23.489  0.00  0.00    -0.285 N 
ATOM      3  C   UNL     1       8.883   0.904  24.902  0.00  0.00    +0.166 C 
ATOM      4  C   UNL     1       9.129  -0.560  25.292  0.00  0.00    +0.078 C 
ATOM      5  C   UNL     1       8.517  -1.393  24.149  0.00  0.00    +0.195 C 
ATOM      6  C   UNL     1       8.744  -0.479  22.954  0.00  0.00    +0.153 C 
ATOM      7  O   UNL     1       8.205   1.662  21.415  0.00  0.00    -0.274 OA
ENDROOT
BRANCH   3   8
ATOM      8  C   UNL     1       7.811   1.512  25.812  0.00  0.00    +0.234 C 
ATOM      9  N   UNL     1       6.902   0.601  26.314  0.00  0.00    -0.299 N 
ATOM     10  H   UNL     1       7.053  -0.387  26.140  0.00  0.00    +0.150 HD
ATOM     11  O   UNL     1       7.756   2.709  26.081  0.00  0.00    -0.274 OA
BRANCH   9  12
ATOM     12  C   UNL     1       5.774   0.960  27.172  0.00  0.00    +0.119 C 
ATOM     13  C   UNL     1       6.047   1.717  28.477  0.00  0.00    +0.046 C 
ATOM     14  C   UNL     1       5.747   0.249  28.528  0.00  0.00    +0.046 C 
BRANCH  12  15
ATOM     15  C   UNL     1       4.411   1.187  26.513  0.00  0.00    +0.256 C 
ATOM     16  N   UNL     1       4.048   2.507  26.291  0.00  0.00    -0.188 N 
ATOM     17  H   UNL     1       4.667   3.280  26.551  0.00  0.00    +0.176 HD
ATOM     18  O   UNL     1       3.682   0.240  26.261  0.00  0.00    -0.272 OA
BRANCH  16  19
ATOM     19  S   UNL     1       2.611   3.011  25.672  0.00  0.00    +0.048 S 
ATOM     20  O   UNL     1       1.557   2.490  26.502  0.00  0.00    -0.155 OA
ATOM     21  O   UNL     1       2.679   2.742  24.248  0.00  0.00    -0.155 OA
BRANCH  19  22
ATOM     22  C   UNL     1       2.550   4.797  25.904  0.00  0.00    +0.151 C 
ATOM     23  C   UNL     1       3.555   5.357  26.868  0.00  0.00    +0.030 C 
ATOM     24  C   UNL     1       2.111   5.231  27.273  0.00  0.00    +0.030 C 
ENDBRANCH  19  22
ENDBRANCH  16  19
ENDBRANCH  12  15
BRANCH  13  25
ATOM     25  C   UNL     1       5.041   2.648  29.008  0.00  0.00    -0.028 C 
ATOM     26  C   UNL     1       5.257   3.587  29.937  0.00  0.00    +0.004 C 
ENDBRANCH  13  25
ENDBRANCH   9  12
ENDBRANCH   3   8
BRANCH   1  27
ATOM     27  C   UNL     1       8.006   3.346  23.194  0.00  0.00    +0.168 C 
BRANCH  27  29
ATOM     28  C   UNL     1       5.576   2.645  22.717  0.00  0.00    +0.013 C 
ATOM     29  C   UNL     1       6.529   3.837  23.005  0.00  0.00    -0.011 C 
ATOM     30  C   UNL     1       6.006   4.467  24.318  0.00  0.00    +0.013 C 
ATOM     31  C   UNL     1       6.424   4.869  21.877  0.00  0.00    +0.013 C 
ENDBRANCH  27  29
BRANCH  27  32
ATOM     32  N   UNL     1       9.043   4.351  22.874  0.00  0.00    -0.269 N 
ATOM     33  H   UNL     1       9.548   4.271  22.002  0.00  0.00    +0.153 HD
ATOM     34  C   UNL     1       9.587   5.192  23.805  0.00  0.00    +0.401 C 
ATOM     35  O   UNL     1       9.185   5.288  24.950  0.00  0.00    -0.226 OA
BRANCH  34  36
ATOM     36  O   UNL     1      10.546   5.978  23.240  0.00  0.00    -0.445 OA
BRANCH  36  37
ATOM     37  C   UNL     1      11.953   5.645  23.458  0.00  0.00    +0.107 C 
ATOM     38  C   UNL     1      12.796   6.016  22.229  0.00  0.00    +0.055 C 
ATOM     39  C   UNL     1      12.041   4.116  23.628  0.00  0.00    +0.055 C 
ATOM     40  C   UNL     1      12.489   6.285  24.746  0.00  0.00    +0.055 C 
ENDBRANCH  36  37
ENDBRANCH  34  36
ENDBRANCH  27  32
ENDBRANCH   1  27
BRANCH   5  41
ATOM     41  O   UNL     1       7.099  -1.596  24.259  0.00  0.00    -0.471 OA
BRANCH  41  42
ATOM     42  C   UNL     1       6.730  -2.664  25.050  0.00  0.00    +0.223 A 
ATOM     43  C   UNL     1       6.336  -3.854  24.415  0.00  0.00    +0.049 A 
ATOM     44  C   UNL     1       6.486  -4.091  23.027  0.00  0.00    +0.034 A 
ATOM     45  C   UNL     1       6.013  -5.270  22.449  0.00  0.00    +0.042 A 
ATOM     46 CL   UNL     1       6.184  -5.532  20.756  0.00  0.00    -0.084 Cl
ATOM     47  C   UNL     1       5.382  -6.227  23.232  0.00  0.00    +0.021 A 
ATOM     48  C   UNL     1       5.253  -6.020  24.608  0.00  0.00    +0.014 A 
ATOM     49  C   UNL     1       5.728  -4.841  25.228  0.00  0.00    +0.030 A 
ATOM     50  C   UNL     1       5.571  -4.592  26.611  0.00  0.00    +0.146 A 
ATOM     51  C   UNL     1       6.072  -3.402  27.118  0.00  0.00    +0.160 A 
ATOM     52  N   UNL     1       6.656  -2.445  26.378  0.00  0.00    -0.217 NA
BRANCH  50  53
ATOM     53  O   UNL     1       4.931  -5.541  27.367  0.00  0.00    -0.493 OA
ATOM     54  C   UNL     1       5.550  -5.892  28.600  0.00  0.00    +0.277 C 
ENDBRANCH  50  53
ENDBRANCH  41  42
ENDBRANCH   5  41
TORSDOF 14
ENDMDL
