MODEL 1
REMARK VINA RESULT:      -5.4      0.000      0.000
REMARK  Name = 
REMARK  3 active torsions:
REMARK  status: ('A' for Active; 'I' for Inactive)
REMARK    1  A    between atoms: C_2  and  N_10
REMARK    2  A    between atoms: C_5  and  C_8
REMARK    3  A    between atoms: C_8  and  O_9
REMARK                            x       y       z     vdW  Elec       q    Type
REMARK                         _______ _______ _______ _____ _____    ______ ____
ROOT
ATOM      1  N   UNL     1       9.512  -1.203  23.637  0.00  0.00    -0.272 N 
ATOM      2  C   UNL     1       9.984  -0.036  24.266  0.00  0.00    +0.352 A 
ATOM      3  O   UNL     1      10.231  -0.014  25.469  0.00  0.00    -0.244 OA
ATOM      4  N   UNL     1      10.152   1.096  23.504  0.00  0.00    -0.178 NA
ATOM      5  C   UNL     1       9.961   1.054  22.225  0.00  0.00    +0.123 A 
ATOM      6  N   UNL     1      10.099   2.222  21.532  0.00  0.00    -0.343 N 
ATOM      7  H   UNL     1      10.542   2.955  22.076  0.00  0.00    +0.144 HD
ATOM      8  H   UNL     1      10.406   2.178  20.569  0.00  0.00    +0.144 HD
ATOM      9  C   UNL     1       9.612  -0.182  21.506  0.00  0.00    +0.061 A 
ATOM     10  C   UNL     1       9.389  -1.254  22.264  0.00  0.00    +0.096 A 
ENDROOT
BRANCH   1  15
ATOM     11  C   UNL     1       8.679  -3.639  23.895  0.00  0.00    +0.126 C 
ATOM     12  S   UNL     1       6.917  -3.327  23.630  0.00  0.00    -0.123 S 
ATOM     13  C   UNL     1       6.885  -2.089  24.951  0.00  0.00    +0.203 C 
ATOM     14  O   UNL     1       8.211  -1.927  25.484  0.00  0.00    -0.340 OA
ATOM     15  C   UNL     1       9.201  -2.336  24.516  0.00  0.00    +0.235 C 
BRANCH  13  16
ATOM     16  C   UNL     1       6.354  -0.719  24.504  0.00  0.00    +0.198 C 
BRANCH  16  17
ATOM     17  O   UNL     1       6.170  -0.710  23.084  0.00  0.00    -0.392 OA
ATOM     18  H   UNL     1       5.834   0.182  22.859  0.00  0.00    +0.210 HD
ENDBRANCH  16  17
ENDBRANCH  13  16
ENDBRANCH   1  15
TORSDOF 3
ENDMDL
MODEL 2
REMARK VINA RESULT:      -5.3      1.897      2.478
REMARK  Name = 
REMARK  3 active torsions:
REMARK  status: ('A' for Active; 'I' for Inactive)
REMARK    1  A    between atoms: C_2  and  N_10
REMARK    2  A    between atoms: C_5  and  C_8
REMARK    3  A    between atoms: C_8  and  O_9
REMARK                            x       y       z     vdW  Elec       q    Type
REMARK                         _______ _______ _______ _____ _____    ______ ____
ROOT
ATOM      1  N   UNL     1       8.443  -1.424  23.164  0.00  0.00    -0.272 N 
ATOM      2  C   UNL     1       9.727  -1.303  22.602  0.00  0.00    +0.352 A 
ATOM      3  O   UNL     1      10.519  -2.242  22.613  0.00  0.00    -0.244 OA
ATOM      4  N   UNL     1      10.090  -0.098  22.048  0.00  0.00    -0.178 NA
ATOM      5  C   UNL     1       9.230   0.867  21.972  0.00  0.00    +0.123 A 
ATOM      6  N   UNL     1       9.666   2.053  21.454  0.00  0.00    -0.343 N 
ATOM      7  H   UNL     1      10.566   1.977  20.992  0.00  0.00    +0.144 HD
ATOM      8  H   UNL     1       8.999   2.640  20.969  0.00  0.00    +0.144 HD
ATOM      9  C   UNL     1       7.833   0.734  22.412  0.00  0.00    +0.061 A 
ATOM     10  C   UNL     1       7.515  -0.416  23.005  0.00  0.00    +0.096 A 
ENDROOT
BRANCH   1  15
ATOM     11  C   UNL     1       6.725  -2.956  24.344  0.00  0.00    +0.126 C 
ATOM     12  S   UNL     1       6.562  -2.011  25.877  0.00  0.00    -0.123 S 
ATOM     13  C   UNL     1       8.350  -2.068  26.162  0.00  0.00    +0.203 C 
ATOM     14  O   UNL     1       8.985  -2.741  25.061  0.00  0.00    -0.340 OA
ATOM     15  C   UNL     1       8.159  -2.673  23.879  0.00  0.00    +0.235 C 
BRANCH  13  16
ATOM     16  C   UNL     1       8.992  -0.685  26.344  0.00  0.00    +0.198 C 
BRANCH  16  17
ATOM     17  O   UNL     1       9.151  -0.403  27.739  0.00  0.00    -0.392 OA
ATOM     18  H   UNL     1       8.788   0.495  27.878  0.00  0.00    +0.210 HD
ENDBRANCH  16  17
ENDBRANCH  13  16
ENDBRANCH   1  15
TORSDOF 3
ENDMDL
MODEL 3
REMARK VINA RESULT:      -5.3      2.456      3.574
REMARK  Name = 
REMARK  3 active torsions:
REMARK  status: ('A' for Active; 'I' for Inactive)
REMARK    1  A    between atoms: C_2  and  N_10
REMARK    2  A    between atoms: C_5  and  C_8
REMARK    3  A    between atoms: C_8  and  O_9
REMARK                            x       y       z     vdW  Elec       q    Type
REMARK                         _______ _______ _______ _____ _____    ______ ____
ROOT
ATOM      1  N   UNL     1       8.290  -2.267  23.857  0.00  0.00    -0.272 N 
ATOM      2  C   UNL     1       9.351  -1.788  23.067  0.00  0.00    +0.352 A 
ATOM      3  O   UNL     1       9.564  -2.236  21.943  0.00  0.00    -0.244 OA
ATOM      4  N   UNL     1      10.166  -0.810  23.588  0.00  0.00    -0.178 NA
ATOM      5  C   UNL     1       9.898  -0.287  24.741  0.00  0.00    +0.123 A 
ATOM      6  N   UNL     1      10.771   0.645  25.223  0.00  0.00    -0.343 N 
ATOM      7  H   UNL     1      11.424   0.977  24.520  0.00  0.00    +0.144 HD
ATOM      8  H   UNL     1      10.413   1.371  25.831  0.00  0.00    +0.144 HD
ATOM      9  C   UNL     1       8.714  -0.653  25.533  0.00  0.00    +0.061 A 
ATOM     10  C   UNL     1       7.972  -1.647  25.047  0.00  0.00    +0.096 A 
ENDROOT
BRANCH   1  15
ATOM     11  C   UNL     1       6.177  -3.758  23.920  0.00  0.00    +0.126 C 
ATOM     12  S   UNL     1       6.568  -4.677  25.428  0.00  0.00    -0.123 S 
ATOM     13  C   UNL     1       8.167  -5.197  24.757  0.00  0.00    +0.203 C 
ATOM     14  O   UNL     1       8.354  -4.605  23.460  0.00  0.00    -0.340 OA
ATOM     15  C   UNL     1       7.548  -3.415  23.324  0.00  0.00    +0.235 C 
BRANCH  13  16
ATOM     16  C   UNL     1       9.361  -4.834  25.652  0.00  0.00    +0.198 C 
BRANCH  16  17
ATOM     17  O   UNL     1      10.580  -5.264  25.035  0.00  0.00    -0.392 OA
ATOM     18  H   UNL     1      10.564  -6.242  25.054  0.00  0.00    +0.210 HD
ENDBRANCH  16  17
ENDBRANCH  13  16
ENDBRANCH   1  15
TORSDOF 3
ENDMDL
MODEL 4
REMARK VINA RESULT:      -5.2      2.734      4.452
REMARK  Name = 
REMARK  3 active torsions:
REMARK  status: ('A' for Active; 'I' for Inactive)
REMARK    1  A    between atoms: C_2  and  N_10
REMARK    2  A    between atoms: C_5  and  C_8
REMARK    3  A    between atoms: C_8  and  O_9
REMARK                            x       y       z     vdW  Elec       q    Type
REMARK                         _______ _______ _______ _____ _____    ______ ____
ROOT
ATOM      1  N   UNL     1       8.183  -1.991  24.093  0.00  0.00    -0.272 N 
ATOM      2  C   UNL     1       8.617  -3.304  23.837  0.00  0.00    +0.352 A 
ATOM      3  O   UNL     1       9.683  -3.723  24.281  0.00  0.00    -0.244 OA
ATOM      4  N   UNL     1       7.825  -4.116  23.060  0.00  0.00    -0.178 NA
ATOM      5  C   UNL     1       6.668  -3.700  22.653  0.00  0.00    +0.123 A 
ATOM      6  N   UNL     1       5.951  -4.536  21.847  0.00  0.00    -0.343 N 
ATOM      7  H   UNL     1       6.320  -5.482  21.828  0.00  0.00    +0.144 HD
ATOM      8  H   UNL     1       4.941  -4.486  21.879  0.00  0.00    +0.144 HD
ATOM      9  C   UNL     1       6.112  -2.390  23.023  0.00  0.00    +0.061 A 
ATOM     10  C   UNL     1       6.917  -1.590  23.720  0.00  0.00    +0.096 A 
ENDROOT
BRANCH   1  15
ATOM     11  C   UNL     1       8.654   0.256  25.285  0.00  0.00    +0.126 C 
ATOM     12  S   UNL     1       8.731   1.305  23.814  0.00  0.00    -0.123 S 
ATOM     13  C   UNL     1      10.004   0.256  23.069  0.00  0.00    +0.203 C 
ATOM     14  O   UNL     1      10.264  -0.863  23.934  0.00  0.00    -0.340 OA
ATOM     15  C   UNL     1       9.131  -1.116  24.792  0.00  0.00    +0.235 C 
BRANCH  13  16
ATOM     16  C   UNL     1       9.638  -0.265  21.672  0.00  0.00    +0.198 C 
BRANCH  16  17
ATOM     17  O   UNL     1      10.284  -1.522  21.436  0.00  0.00    -0.392 OA
ATOM     18  H   UNL     1      11.225  -1.392  21.670  0.00  0.00    +0.210 HD
ENDBRANCH  16  17
ENDBRANCH  13  16
ENDBRANCH   1  15
TORSDOF 3
ENDMDL
MODEL 5
REMARK VINA RESULT:      -5.1      2.043      2.902
REMARK  Name = 
REMARK  3 active torsions:
REMARK  status: ('A' for Active; 'I' for Inactive)
REMARK    1  A    between atoms: C_2  and  N_10
REMARK    2  A    between atoms: C_5  and  C_8
REMARK    3  A    between atoms: C_8  and  O_9
REMARK                            x       y       z     vdW  Elec       q    Type
REMARK                         _______ _______ _______ _____ _____    ______ ____
ROOT
ATOM      1  N   UNL     1       8.830   0.449  24.301  0.00  0.00    -0.272 N 
ATOM      2  C   UNL     1       8.189   1.570  23.743  0.00  0.00    +0.352 A 
ATOM      3  O   UNL     1       6.967   1.619  23.633  0.00  0.00    -0.244 OA
ATOM      4  N   UNL     1       8.966   2.617  23.304  0.00  0.00    -0.178 NA
ATOM      5  C   UNL     1      10.247   2.597  23.486  0.00  0.00    +0.123 A 
ATOM      6  N   UNL     1      10.966   3.644  22.985  0.00  0.00    -0.343 N 
ATOM      7  H   UNL     1      10.384   4.428  22.707  0.00  0.00    +0.144 HD
ATOM      8  H   UNL     1      11.821   3.910  23.457  0.00  0.00    +0.144 HD
ATOM      9  C   UNL     1      10.940   1.512  24.198  0.00  0.00    +0.061 A 
ATOM     10  C   UNL     1      10.185   0.477  24.559  0.00  0.00    +0.096 A 
ENDROOT
BRANCH   1  15
ATOM     11  C   UNL     1       8.572  -1.890  25.377  0.00  0.00    +0.126 C 
ATOM     12  S   UNL     1       9.443  -2.842  24.110  0.00  0.00    -0.123 S 
ATOM     13  C   UNL     1       8.366  -2.191  22.808  0.00  0.00    +0.203 C 
ATOM     14  O   UNL     1       7.447  -1.245  23.380  0.00  0.00    -0.340 OA
ATOM     15  C   UNL     1       7.975  -0.703  24.610  0.00  0.00    +0.235 C 
BRANCH  13  16
ATOM     16  C   UNL     1       9.125  -1.518  21.655  0.00  0.00    +0.198 C 
BRANCH  16  17
ATOM     17  O   UNL     1      10.537  -1.651  21.860  0.00  0.00    -0.392 OA
ATOM     18  H   UNL     1      10.674  -1.636  22.829  0.00  0.00    +0.210 HD
ENDBRANCH  16  17
ENDBRANCH  13  16
ENDBRANCH   1  15
TORSDOF 3
ENDMDL
MODEL 6
REMARK VINA RESULT:      -5.1      2.807      5.013
REMARK  Name = 
REMARK  3 active torsions:
REMARK  status: ('A' for Active; 'I' for Inactive)
REMARK    1  A    between atoms: C_2  and  N_10
REMARK    2  A    between atoms: C_5  and  C_8
REMARK    3  A    between atoms: C_8  and  O_9
REMARK                            x       y       z     vdW  Elec       q    Type
REMARK                         _______ _______ _______ _____ _____    ______ ____
ROOT
ATOM      1  N   UNL     1       8.330  -3.270  23.855  0.00  0.00    -0.272 N 
ATOM      2  C   UNL     1       7.095  -3.872  24.160  0.00  0.00    +0.352 A 
ATOM      3  O   UNL     1       6.084  -3.622  23.509  0.00  0.00    -0.244 OA
ATOM      4  N   UNL     1       7.036  -4.744  25.222  0.00  0.00    -0.178 NA
ATOM      5  C   UNL     1       8.115  -5.063  25.862  0.00  0.00    +0.123 A 
ATOM      6  N   UNL     1       7.982  -5.896  26.936  0.00  0.00    -0.343 N 
ATOM      7  H   UNL     1       7.070  -6.340  26.983  0.00  0.00    +0.144 HD
ATOM      8  H   UNL     1       8.753  -6.509  27.168  0.00  0.00    +0.144 HD
ATOM      9  C   UNL     1       9.449  -4.573  25.482  0.00  0.00    +0.061 A 
ATOM     10  C   UNL     1       9.481  -3.680  24.495  0.00  0.00    +0.096 A 
ENDROOT
BRANCH   1  15
ATOM     11  C   UNL     1       9.641  -1.687  22.285  0.00  0.00    +0.126 C 
ATOM     12  S   UNL     1      10.149  -0.473  23.526  0.00  0.00    -0.123 S 
ATOM     13  C   UNL     1       8.433  -0.210  24.044  0.00  0.00    +0.203 C 
ATOM     14  O   UNL     1       7.572  -1.091  23.303  0.00  0.00    -0.340 OA
ATOM     15  C   UNL     1       8.310  -2.233  22.818  0.00  0.00    +0.235 C 
BRANCH  13  16
ATOM     16  C   UNL     1       8.200  -0.428  25.547  0.00  0.00    +0.198 C 
BRANCH  16  17
ATOM     17  O   UNL     1       9.420  -0.209  26.264  0.00  0.00    -0.392 OA
ATOM     18  H   UNL     1       9.160   0.032  27.176  0.00  0.00    +0.210 HD
ENDBRANCH  16  17
ENDBRANCH  13  16
ENDBRANCH   1  15
TORSDOF 3
ENDMDL
MODEL 7
REMARK VINA RESULT:      -5.0      4.063      5.463
REMARK  Name = 
REMARK  3 active torsions:
REMARK  status: ('A' for Active; 'I' for Inactive)
REMARK    1  A    between atoms: C_2  and  N_10
REMARK    2  A    between atoms: C_5  and  C_8
REMARK    3  A    between atoms: C_8  and  O_9
REMARK                            x       y       z     vdW  Elec       q    Type
REMARK                         _______ _______ _______ _____ _____    ______ ____
ROOT
ATOM      1  N   UNL     1       6.762  -3.755  24.554  0.00  0.00    -0.272 N 
ATOM      2  C   UNL     1       7.894  -3.754  23.718  0.00  0.00    +0.352 A 
ATOM      3  O   UNL     1       7.889  -3.172  22.637  0.00  0.00    -0.244 OA
ATOM      4  N   UNL     1       9.015  -4.436  24.131  0.00  0.00    -0.178 NA
ATOM      5  C   UNL     1       9.045  -4.987  25.302  0.00  0.00    +0.123 A 
ATOM      6  N   UNL     1      10.169  -5.689  25.634  0.00  0.00    -0.343 N 
ATOM      7  H   UNL     1      10.943  -5.521  24.999  0.00  0.00    +0.144 HD
ATOM      8  H   UNL     1      10.435  -5.737  26.609  0.00  0.00    +0.144 HD
ATOM      9  C   UNL     1       7.939  -4.885  26.266  0.00  0.00    +0.061 A 
ATOM     10  C   UNL     1       6.837  -4.279  25.827  0.00  0.00    +0.096 A 
ENDROOT
BRANCH   1  15
ATOM     11  C   UNL     1       4.323  -2.971  24.913  0.00  0.00    +0.126 C 
ATOM     12  S   UNL     1       3.539  -4.601  24.924  0.00  0.00    -0.123 S 
ATOM     13  C   UNL     1       4.255  -5.012  23.312  0.00  0.00    +0.203 C 
ATOM     14  O   UNL     1       5.095  -3.931  22.875  0.00  0.00    -0.340 OA
ATOM     15  C   UNL     1       5.545  -3.149  24.003  0.00  0.00    +0.235 C 
BRANCH  13  16
ATOM     16  C   UNL     1       5.070  -6.314  23.310  0.00  0.00    +0.198 C 
BRANCH  16  17
ATOM     17  O   UNL     1       5.801  -6.428  22.084  0.00  0.00    -0.392 OA
ATOM     18  H   UNL     1       5.808  -7.380  21.859  0.00  0.00    +0.210 HD
ENDBRANCH  16  17
ENDBRANCH  13  16
ENDBRANCH   1  15
TORSDOF 3
ENDMDL
MODEL 8
REMARK VINA RESULT:      -4.9      4.540      6.711
REMARK  Name = 
REMARK  3 active torsions:
REMARK  status: ('A' for Active; 'I' for Inactive)
REMARK    1  A    between atoms: C_2  and  N_10
REMARK    2  A    between atoms: C_5  and  C_8
REMARK    3  A    between atoms: C_8  and  O_9
REMARK                            x       y       z     vdW  Elec       q    Type
REMARK                         _______ _______ _______ _____ _____    ______ ____
ROOT
ATOM      1  N   UNL     1       6.226  -4.644  25.145  0.00  0.00    -0.272 N 
ATOM      2  C   UNL     1       6.777  -5.584  26.035  0.00  0.00    +0.352 A 
ATOM      3  O   UNL     1       7.989  -5.654  26.222  0.00  0.00    -0.244 OA
ATOM      4  N   UNL     1       5.926  -6.445  26.688  0.00  0.00    -0.178 NA
ATOM      5  C   UNL     1       4.645  -6.324  26.548  0.00  0.00    +0.123 A 
ATOM      6  N   UNL     1       3.857  -7.238  27.185  0.00  0.00    -0.343 N 
ATOM      7  H   UNL     1       4.363  -7.788  27.872  0.00  0.00    +0.144 HD
ATOM      8  H   UNL     1       2.933  -6.952  27.484  0.00  0.00    +0.144 HD
ATOM      9  C   UNL     1       4.023  -5.260  25.745  0.00  0.00    +0.061 A 
ATOM     10  C   UNL     1       4.859  -4.476  25.067  0.00  0.00    +0.096 A 
ENDROOT
BRANCH   1  15
ATOM     11  C   UNL     1       6.664  -2.674  23.527  0.00  0.00    +0.126 C 
ATOM     12  S   UNL     1       6.014  -3.440  22.023  0.00  0.00    -0.123 S 
ATOM     13  C   UNL     1       7.110  -4.868  22.216  0.00  0.00    +0.203 C 
ATOM     14  O   UNL     1       7.865  -4.728  23.432  0.00  0.00    -0.340 OA
ATOM     15  C   UNL     1       7.180  -3.856  24.357  0.00  0.00    +0.235 C 
BRANCH  13  16
ATOM     16  C   UNL     1       6.373  -6.216  22.235  0.00  0.00    +0.198 C 
BRANCH  16  17
ATOM     17  O   UNL     1       4.992  -6.019  21.910  0.00  0.00    -0.392 OA
ATOM     18  H   UNL     1       4.597  -5.550  22.673  0.00  0.00    +0.210 HD
ENDBRANCH  16  17
ENDBRANCH  13  16
ENDBRANCH   1  15
TORSDOF 3
ENDMDL
MODEL 9
REMARK VINA RESULT:      -4.8      1.477      1.796
REMARK  Name = 
REMARK  3 active torsions:
REMARK  status: ('A' for Active; 'I' for Inactive)
REMARK    1  A    between atoms: C_2  and  N_10
REMARK    2  A    between atoms: C_5  and  C_8
REMARK    3  A    between atoms: C_8  and  O_9
REMARK                            x       y       z     vdW  Elec       q    Type
REMARK                         _______ _______ _______ _____ _____    ______ ____
ROOT
ATOM      1  N   UNL     1       9.566   0.309  23.096  0.00  0.00    -0.272 N 
ATOM      2  C   UNL     1      10.196   1.128  24.050  0.00  0.00    +0.352 A 
ATOM      3  O   UNL     1      10.946   0.657  24.901  0.00  0.00    -0.244 OA
ATOM      4  N   UNL     1       9.943   2.480  24.023  0.00  0.00    -0.178 NA
ATOM      5  C   UNL     1       9.211   2.985  23.082  0.00  0.00    +0.123 A 
ATOM      6  N   UNL     1       8.959   4.326  23.138  0.00  0.00    -0.343 N 
ATOM      7  H   UNL     1       9.553   4.813  23.801  0.00  0.00    +0.144 HD
ATOM      8  H   UNL     1       8.812   4.824  22.269  0.00  0.00    +0.144 HD
ATOM      9  C   UNL     1       8.656   2.185  21.980  0.00  0.00    +0.061 A 
ATOM     10  C   UNL     1       8.854   0.870  22.056  0.00  0.00    +0.096 A 
ENDROOT
BRANCH   1  15
ATOM     11  C   UNL     1       9.171  -2.085  22.199  0.00  0.00    +0.126 C 
ATOM     12  S   UNL     1       7.418  -2.223  22.625  0.00  0.00    -0.123 S 
ATOM     13  C   UNL     1       7.757  -1.823  24.359  0.00  0.00    +0.203 C 
ATOM     14  O   UNL     1       9.159  -1.546  24.518  0.00  0.00    -0.340 OA
ATOM     15  C   UNL     1       9.742  -1.138  23.262  0.00  0.00    +0.235 C 
BRANCH  13  16
ATOM     16  C   UNL     1       6.946  -0.631  24.889  0.00  0.00    +0.198 C 
BRANCH  16  17
ATOM     17  O   UNL     1       6.040  -0.172  23.879  0.00  0.00    -0.392 OA
ATOM     18  H   UNL     1       5.228  -0.709  23.977  0.00  0.00    +0.210 HD
ENDBRANCH  16  17
ENDBRANCH  13  16
ENDBRANCH   1  15
TORSDOF 3
ENDMDL
