MODEL 1
REMARK VINA RESULT:      -6.4      0.000      0.000
REMARK  Name = 
REMARK  5 active torsions:
REMARK  status: ('A' for Active; 'I' for Inactive)
REMARK    1  A    between atoms: C_1  and  C_2
REMARK    2  A    between atoms: N_4  and  C_10
REMARK    3  A    between atoms: C_14  and  O_21
REMARK    4  A    between atoms: C_16  and  C_19
REMARK    5  A    between atoms: C_19  and  O_20
REMARK                            x       y       z     vdW  Elec       q    Type
REMARK                         _______ _______ _______ _____ _____    ______ ____
ROOT
ATOM      1  C   UNL     1       9.109  -2.619  24.129  0.00  0.00    +0.260 C 
ATOM      2  O   UNL     1       8.929  -1.223  24.431  0.00  0.00    -0.345 OA
ATOM      3  C   UNL     1       8.674  -0.529  23.185  0.00  0.00    +0.178 C 
ATOM      4  C   UNL     1       8.810  -1.555  22.053  0.00  0.00    +0.184 C 
ATOM      5  C   UNL     1       8.490  -2.857  22.752  0.00  0.00    +0.246 C 
ATOM      6  F   UNL     1       7.135  -2.974  22.836  0.00  0.00    -0.238 F 
ENDROOT
BRANCH   1  15
ATOM      7  C   UNL     1       5.571  -3.742  27.459  0.00  0.00    +0.051 C 
ATOM      8  C   UNL     1       6.870  -3.987  26.761  0.00  0.00    +0.030 A 
ATOM      9  C   UNL     1       7.630  -5.201  27.144  0.00  0.00    +0.257 A 
ATOM     10  O   UNL     1       7.222  -5.986  27.993  0.00  0.00    -0.267 OA
ATOM     11  N   UNL     1       8.806  -5.399  26.481  0.00  0.00    -0.275 N 
ATOM     12  H   UNL     1       9.321  -6.235  26.710  0.00  0.00    +0.173 HD
ATOM     13  C   UNL     1       9.298  -4.624  25.468  0.00  0.00    +0.331 A 
ATOM     14  O   UNL     1      10.309  -4.965  24.855  0.00  0.00    -0.246 OA
ATOM     15  N   UNL     1       8.582  -3.471  25.187  0.00  0.00    -0.271 N 
ATOM     16  C   UNL     1       7.385  -3.191  25.818  0.00  0.00    +0.102 A 
ENDBRANCH   1  15
BRANCH   4  17
ATOM     17  O   UNL     1      10.153  -1.568  21.557  0.00  0.00    -0.386 OA
ATOM     18  H   UNL     1      10.519  -2.461  21.691  0.00  0.00    +0.210 HD
ENDBRANCH   4  17
BRANCH   3  19
ATOM     19  C   UNL     1       7.267   0.082  23.236  0.00  0.00    +0.190 C 
BRANCH  19  20
ATOM     20  O   UNL     1       7.119   1.156  22.308  0.00  0.00    -0.392 OA
ATOM     21  H   UNL     1       7.929   1.205  21.772  0.00  0.00    +0.210 HD
ENDBRANCH  19  20
ENDBRANCH   3  19
TORSDOF 4
ENDMDL
MODEL 2
REMARK VINA RESULT:      -6.1      2.943      3.407
REMARK  Name = 
REMARK  5 active torsions:
REMARK  status: ('A' for Active; 'I' for Inactive)
REMARK    1  A    between atoms: C_1  and  C_2
REMARK    2  A    between atoms: N_4  and  C_10
REMARK    3  A    between atoms: C_14  and  O_21
REMARK    4  A    between atoms: C_16  and  C_19
REMARK    5  A    between atoms: C_19  and  O_20
REMARK                            x       y       z     vdW  Elec       q    Type
REMARK                         _______ _______ _______ _____ _____    ______ ____
ROOT
ATOM      1  C   UNL     1       7.960  -4.012  22.926  0.00  0.00    +0.260 C 
ATOM      2  O   UNL     1       8.946  -3.789  23.952  0.00  0.00    -0.345 OA
ATOM      3  C   UNL     1       9.374  -2.408  23.862  0.00  0.00    +0.178 C 
ATOM      4  C   UNL     1       8.677  -1.791  22.642  0.00  0.00    +0.184 C 
ATOM      5  C   UNL     1       7.432  -2.639  22.514  0.00  0.00    +0.246 C 
ATOM      6  F   UNL     1       6.509  -2.179  23.405  0.00  0.00    -0.238 F 
ENDROOT
BRANCH   1  15
ATOM      7  C   UNL     1       5.157  -6.046  26.515  0.00  0.00    +0.051 C 
ATOM      8  C   UNL     1       5.603  -5.896  25.095  0.00  0.00    +0.030 A 
ATOM      9  C   UNL     1       4.914  -6.723  24.076  0.00  0.00    +0.257 A 
ATOM     10  O   UNL     1       4.010  -7.499  24.366  0.00  0.00    -0.267 OA
ATOM     11  N   UNL     1       5.338  -6.555  22.790  0.00  0.00    -0.275 N 
ATOM     12  H   UNL     1       4.861  -7.089  22.081  0.00  0.00    +0.173 HD
ATOM     13  C   UNL     1       6.279  -5.658  22.365  0.00  0.00    +0.331 A 
ATOM     14  O   UNL     1       6.497  -5.504  21.164  0.00  0.00    -0.246 OA
ATOM     15  N   UNL     1       6.934  -4.951  23.361  0.00  0.00    -0.271 N 
ATOM     16  C   UNL     1       6.571  -5.068  24.690  0.00  0.00    +0.102 A 
ENDBRANCH   1  15
BRANCH   4  17
ATOM     17  O   UNL     1       9.502  -1.928  21.481  0.00  0.00    -0.386 OA
ATOM     18  H   UNL     1       8.947  -2.259  20.751  0.00  0.00    +0.210 HD
ENDBRANCH   4  17
BRANCH   3  19
ATOM     19  C   UNL     1       8.996  -1.686  25.163  0.00  0.00    +0.190 C 
BRANCH  19  20
ATOM     20  O   UNL     1       8.602  -2.601  26.184  0.00  0.00    -0.392 OA
ATOM     21  H   UNL     1       9.405  -2.927  26.624  0.00  0.00    +0.210 HD
ENDBRANCH  19  20
ENDBRANCH   3  19
TORSDOF 4
ENDMDL
MODEL 3
REMARK VINA RESULT:      -6.0      2.631      3.378
REMARK  Name = 
REMARK  5 active torsions:
REMARK  status: ('A' for Active; 'I' for Inactive)
REMARK    1  A    between atoms: C_1  and  C_2
REMARK    2  A    between atoms: N_4  and  C_10
REMARK    3  A    between atoms: C_14  and  O_21
REMARK    4  A    between atoms: C_16  and  C_19
REMARK    5  A    between atoms: C_19  and  O_20
REMARK                            x       y       z     vdW  Elec       q    Type
REMARK                         _______ _______ _______ _____ _____    ______ ____
ROOT
ATOM      1  C   UNL     1       8.893  -1.420  24.087  0.00  0.00    +0.260 C 
ATOM      2  O   UNL     1       8.076  -0.277  23.770  0.00  0.00    -0.345 OA
ATOM      3  C   UNL     1       8.962   0.830  23.471  0.00  0.00    +0.178 C 
ATOM      4  C   UNL     1      10.397   0.350  23.724  0.00  0.00    +0.184 C 
ATOM      5  C   UNL     1      10.283  -1.143  23.518  0.00  0.00    +0.246 C 
ATOM      6  F   UNL     1      10.324  -1.393  22.179  0.00  0.00    -0.238 F 
ENDROOT
BRANCH   1  15
ATOM      7  C   UNL     1       5.830  -3.892  21.026  0.00  0.00    +0.051 C 
ATOM      8  C   UNL     1       6.821  -3.815  22.143  0.00  0.00    +0.030 A 
ATOM      9  C   UNL     1       7.236  -5.090  22.773  0.00  0.00    +0.257 A 
ATOM     10  O   UNL     1       6.799  -6.175  22.403  0.00  0.00    -0.267 OA
ATOM     11  N   UNL     1       8.148  -4.985  23.782  0.00  0.00    -0.275 N 
ATOM     12  H   UNL     1       8.463  -5.846  24.202  0.00  0.00    +0.173 HD
ATOM     13  C   UNL     1       8.748  -3.831  24.206  0.00  0.00    +0.331 A 
ATOM     14  O   UNL     1       9.650  -3.866  25.041  0.00  0.00    -0.246 OA
ATOM     15  N   UNL     1       8.284  -2.661  23.626  0.00  0.00    -0.271 N 
ATOM     16  C   UNL     1       7.355  -2.679  22.603  0.00  0.00    +0.102 A 
ENDBRANCH   1  15
BRANCH   4  17
ATOM     17  O   UNL     1      10.785   0.644  25.070  0.00  0.00    -0.386 OA
ATOM     18  H   UNL     1      10.024   1.049  25.525  0.00  0.00    +0.210 HD
ENDBRANCH   4  17
BRANCH   3  19
ATOM     19  C   UNL     1       8.750   1.255  22.011  0.00  0.00    +0.190 C 
BRANCH  19  20
ATOM     20  O   UNL     1       9.857   2.004  21.509  0.00  0.00    -0.392 OA
ATOM     21  H   UNL     1      10.000   2.763  22.099  0.00  0.00    +0.210 HD
ENDBRANCH  19  20
ENDBRANCH   3  19
TORSDOF 4
ENDMDL
MODEL 4
REMARK VINA RESULT:      -6.0      2.231      5.271
REMARK  Name = 
REMARK  5 active torsions:
REMARK  status: ('A' for Active; 'I' for Inactive)
REMARK    1  A    between atoms: C_1  and  C_2
REMARK    2  A    between atoms: N_4  and  C_10
REMARK    3  A    between atoms: C_14  and  O_21
REMARK    4  A    between atoms: C_16  and  C_19
REMARK    5  A    between atoms: C_19  and  O_20
REMARK                            x       y       z     vdW  Elec       q    Type
REMARK                         _______ _______ _______ _____ _____    ______ ____
ROOT
ATOM      1  C   UNL     1       8.982  -3.129  25.244  0.00  0.00    +0.260 C 
ATOM      2  O   UNL     1       9.220  -4.024  24.141  0.00  0.00    -0.345 OA
ATOM      3  C   UNL     1       8.302  -5.137  24.267  0.00  0.00    +0.178 C 
ATOM      4  C   UNL     1       7.535  -4.951  25.583  0.00  0.00    +0.184 C 
ATOM      5  C   UNL     1       7.591  -3.454  25.785  0.00  0.00    +0.246 C 
ATOM      6  F   UNL     1       6.620  -2.884  25.017  0.00  0.00    -0.238 F 
ENDROOT
BRANCH   1  15
ATOM      7  C   UNL     1       9.572   0.382  21.752  0.00  0.00    +0.051 C 
ATOM      8  C   UNL     1       9.444  -0.082  23.168  0.00  0.00    +0.030 A 
ATOM      9  C   UNL     1       9.464   0.955  24.227  0.00  0.00    +0.257 A 
ATOM     10  O   UNL     1       9.575   2.149  23.971  0.00  0.00    -0.267 OA
ATOM     11  N   UNL     1       9.335   0.499  25.506  0.00  0.00    -0.275 N 
ATOM     12  H   UNL     1       9.318   1.194  26.237  0.00  0.00    +0.173 HD
ATOM     13  C   UNL     1       9.126  -0.800  25.879  0.00  0.00    +0.331 A 
ATOM     14  O   UNL     1       8.900  -1.084  27.055  0.00  0.00    -0.246 OA
ATOM     15  N   UNL     1       9.174  -1.737  24.859  0.00  0.00    -0.271 N 
ATOM     16  C   UNL     1       9.309  -1.360  23.536  0.00  0.00    +0.102 A 
ENDBRANCH   1  15
BRANCH   4  17
ATOM     17  O   UNL     1       8.212  -5.628  26.648  0.00  0.00    -0.386 OA
ATOM     18  H   UNL     1       7.623  -6.327  26.986  0.00  0.00    +0.210 HD
ENDBRANCH   4  17
BRANCH   3  19
ATOM     19  C   UNL     1       7.361  -5.145  23.054  0.00  0.00    +0.190 C 
BRANCH  19  20
ATOM     20  O   UNL     1       7.570  -4.013  22.211  0.00  0.00    -0.392 OA
ATOM     21  H   UNL     1       8.503  -3.751  22.283  0.00  0.00    +0.210 HD
ENDBRANCH  19  20
ENDBRANCH   3  19
TORSDOF 4
ENDMDL
MODEL 5
REMARK VINA RESULT:      -5.9      2.453      3.155
REMARK  Name = 
REMARK  5 active torsions:
REMARK  status: ('A' for Active; 'I' for Inactive)
REMARK    1  A    between atoms: C_1  and  C_2
REMARK    2  A    between atoms: N_4  and  C_10
REMARK    3  A    between atoms: C_14  and  O_21
REMARK    4  A    between atoms: C_16  and  C_19
REMARK    5  A    between atoms: C_19  and  O_20
REMARK                            x       y       z     vdW  Elec       q    Type
REMARK                         _______ _______ _______ _____ _____    ______ ____
ROOT
ATOM      1  C   UNL     1       9.777   0.177  23.568  0.00  0.00    +0.260 C 
ATOM      2  O   UNL     1       9.956   1.208  24.557  0.00  0.00    -0.345 OA
ATOM      3  C   UNL     1       9.557   2.467  23.961  0.00  0.00    +0.178 C 
ATOM      4  C   UNL     1       9.213   2.190  22.491  0.00  0.00    +0.184 C 
ATOM      5  C   UNL     1       8.815   0.732  22.518  0.00  0.00    +0.246 C 
ATOM      6  F   UNL     1       7.523   0.651  22.944  0.00  0.00    -0.238 F 
ENDROOT
BRANCH   1  15
ATOM      7  C   UNL     1       6.916  -2.383  26.750  0.00  0.00    +0.051 C 
ATOM      8  C   UNL     1       7.968  -2.277  25.694  0.00  0.00    +0.030 A 
ATOM      9  C   UNL     1       8.573  -3.539  25.208  0.00  0.00    +0.257 A 
ATOM     10  O   UNL     1       8.232  -4.636  25.639  0.00  0.00    -0.267 OA
ATOM     11  N   UNL     1       9.523  -3.407  24.237  0.00  0.00    -0.275 N 
ATOM     12  H   UNL     1       9.925  -4.258  23.875  0.00  0.00    +0.173 HD
ATOM     13  C   UNL     1       9.907  -2.237  23.642  0.00  0.00    +0.331 A 
ATOM     14  O   UNL     1      10.685  -2.247  22.689  0.00  0.00    -0.246 OA
ATOM     15  N   UNL     1       9.356  -1.081  24.172  0.00  0.00    -0.271 N 
ATOM     16  C   UNL     1       8.392  -1.126  25.161  0.00  0.00    +0.102 A 
ENDBRANCH   1  15
BRANCH   4  17
ATOM     17  O   UNL     1      10.370   2.380  21.670  0.00  0.00    -0.386 OA
ATOM     18  H   UNL     1      10.076   2.469  20.745  0.00  0.00    +0.210 HD
ENDBRANCH   4  17
BRANCH   3  19
ATOM     19  C   UNL     1       8.353   3.023  24.734  0.00  0.00    +0.190 C 
BRANCH  19  20
ATOM     20  O   UNL     1       8.112   2.296  25.939  0.00  0.00    -0.392 OA
ATOM     21  H   UNL     1       8.837   2.489  26.557  0.00  0.00    +0.210 HD
ENDBRANCH  19  20
ENDBRANCH   3  19
TORSDOF 4
ENDMDL
MODEL 6
REMARK VINA RESULT:      -5.8      3.021      4.189
REMARK  Name = 
REMARK  5 active torsions:
REMARK  status: ('A' for Active; 'I' for Inactive)
REMARK    1  A    between atoms: C_1  and  C_2
REMARK    2  A    between atoms: N_4  and  C_10
REMARK    3  A    between atoms: C_14  and  O_21
REMARK    4  A    between atoms: C_16  and  C_19
REMARK    5  A    between atoms: C_19  and  O_20
REMARK                            x       y       z     vdW  Elec       q    Type
REMARK                         _______ _______ _______ _____ _____    ______ ____
ROOT
ATOM      1  C   UNL     1       7.436  -1.351  24.030  0.00  0.00    +0.260 C 
ATOM      2  O   UNL     1       8.124  -0.742  22.920  0.00  0.00    -0.345 OA
ATOM      3  C   UNL     1       9.427  -0.315  23.387  0.00  0.00    +0.178 C 
ATOM      4  C   UNL     1       9.487  -0.592  24.896  0.00  0.00    +0.184 C 
ATOM      5  C   UNL     1       8.502  -1.727  25.058  0.00  0.00    +0.246 C 
ATOM      6  F   UNL     1       9.128  -2.888  24.715  0.00  0.00    -0.238 F 
ENDROOT
BRANCH   1  15
ATOM      7  C   UNL     1       6.747  -5.540  21.415  0.00  0.00    +0.051 C 
ATOM      8  C   UNL     1       6.296  -4.461  22.346  0.00  0.00    +0.030 A 
ATOM      9  C   UNL     1       4.923  -4.566  22.895  0.00  0.00    +0.257 A 
ATOM     10  O   UNL     1       4.175  -5.496  22.610  0.00  0.00    -0.267 OA
ATOM     11  N   UNL     1       4.547  -3.571  23.749  0.00  0.00    -0.275 N 
ATOM     12  H   UNL     1       3.626  -3.642  24.153  0.00  0.00    +0.173 HD
ATOM     13  C   UNL     1       5.338  -2.543  24.184  0.00  0.00    +0.331 A 
ATOM     14  O   UNL     1       4.936  -1.770  25.052  0.00  0.00    -0.246 OA
ATOM     15  N   UNL     1       6.592  -2.457  23.598  0.00  0.00    -0.271 N 
ATOM     16  C   UNL     1       7.048  -3.419  22.718  0.00  0.00    +0.102 A 
ENDBRANCH   1  15
BRANCH   4  17
ATOM     17  O   UNL     1       9.052   0.560  25.626  0.00  0.00    -0.386 OA
ATOM     18  H   UNL     1       8.588   0.255  26.427  0.00  0.00    +0.210 HD
ENDBRANCH   4  17
BRANCH   3  19
ATOM     19  C   UNL     1      10.508  -1.090  22.621  0.00  0.00    +0.190 C 
BRANCH  19  20
ATOM     20  O   UNL     1      10.005  -1.642  21.405  0.00  0.00    -0.392 OA
ATOM     21  H   UNL     1      10.039  -2.611  21.477  0.00  0.00    +0.210 HD
ENDBRANCH  19  20
ENDBRANCH   3  19
TORSDOF 4
ENDMDL
MODEL 7
REMARK VINA RESULT:      -5.7      2.209      2.929
REMARK  Name = 
REMARK  5 active torsions:
REMARK  status: ('A' for Active; 'I' for Inactive)
REMARK    1  A    between atoms: C_1  and  C_2
REMARK    2  A    between atoms: N_4  and  C_10
REMARK    3  A    between atoms: C_14  and  O_21
REMARK    4  A    between atoms: C_16  and  C_19
REMARK    5  A    between atoms: C_19  and  O_20
REMARK                            x       y       z     vdW  Elec       q    Type
REMARK                         _______ _______ _______ _____ _____    ______ ____
ROOT
ATOM      1  C   UNL     1       8.696  -1.810  22.713  0.00  0.00    +0.260 C 
ATOM      2  O   UNL     1      10.053  -1.611  23.150  0.00  0.00    -0.345 OA
ATOM      3  C   UNL     1      10.324  -0.188  23.122  0.00  0.00    +0.178 C 
ATOM      4  C   UNL     1       9.086   0.502  22.534  0.00  0.00    +0.184 C 
ATOM      5  C   UNL     1       7.979  -0.470  22.872  0.00  0.00    +0.246 C 
ATOM      6  F   UNL     1       7.609  -0.261  24.167  0.00  0.00    -0.238 F 
ENDROOT
BRANCH   1  15
ATOM      7  C   UNL     1       8.291  -4.796  26.686  0.00  0.00    +0.051 C 
ATOM      8  C   UNL     1       7.888  -4.326  25.325  0.00  0.00    +0.030 A 
ATOM      9  C   UNL     1       6.742  -5.011  24.682  0.00  0.00    +0.257 A 
ATOM     10  O   UNL     1       6.134  -5.924  25.231  0.00  0.00    -0.267 OA
ATOM     11  N   UNL     1       6.394  -4.552  23.445  0.00  0.00    -0.275 N 
ATOM     12  H   UNL     1       5.599  -4.989  23.005  0.00  0.00    +0.173 HD
ATOM     13  C   UNL     1       6.960  -3.491  22.793  0.00  0.00    +0.331 A 
ATOM     14  O   UNL     1       6.486  -3.085  21.733  0.00  0.00    -0.246 OA
ATOM     15  N   UNL     1       8.064  -2.923  23.409  0.00  0.00    -0.271 N 
ATOM     16  C   UNL     1       8.487  -3.333  24.659  0.00  0.00    +0.102 A 
ENDBRANCH   1  15
BRANCH   4  17
ATOM     17  O   UNL     1       9.223   0.635  21.115  0.00  0.00    -0.386 OA
ATOM     18  H   UNL     1       9.104   1.575  20.885  0.00  0.00    +0.210 HD
ENDBRANCH   4  17
BRANCH   3  19
ATOM     19  C   UNL     1      10.621   0.290  24.550  0.00  0.00    +0.190 C 
BRANCH  19  20
ATOM     20  O   UNL     1      10.056   1.575  24.810  0.00  0.00    -0.392 OA
ATOM     21  H   UNL     1       9.338   1.464  25.455  0.00  0.00    +0.210 HD
ENDBRANCH  19  20
ENDBRANCH   3  19
TORSDOF 4
ENDMDL
MODEL 8
REMARK VINA RESULT:      -5.7      2.091      5.769
REMARK  Name = 
REMARK  5 active torsions:
REMARK  status: ('A' for Active; 'I' for Inactive)
REMARK    1  A    between atoms: C_1  and  C_2
REMARK    2  A    between atoms: N_4  and  C_10
REMARK    3  A    between atoms: C_14  and  O_21
REMARK    4  A    between atoms: C_16  and  C_19
REMARK    5  A    between atoms: C_19  and  O_20
REMARK                            x       y       z     vdW  Elec       q    Type
REMARK                         _______ _______ _______ _____ _____    ______ ____
ROOT
ATOM      1  C   UNL     1       7.120  -2.840  25.261  0.00  0.00    +0.260 C 
ATOM      2  O   UNL     1       8.289  -3.016  26.083  0.00  0.00    -0.345 OA
ATOM      3  C   UNL     1       8.495  -4.439  26.260  0.00  0.00    +0.178 C 
ATOM      4  C   UNL     1       7.319  -5.160  25.589  0.00  0.00    +0.184 C 
ATOM      5  C   UNL     1       6.883  -4.164  24.537  0.00  0.00    +0.246 C 
ATOM      6  F   UNL     1       7.710  -4.291  23.462  0.00  0.00    -0.238 F 
ENDROOT
BRANCH   1  15
ATOM      7  C   UNL     1       9.615  -0.248  21.808  0.00  0.00    +0.051 C 
ATOM      8  C   UNL     1       8.458  -0.473  22.727  0.00  0.00    +0.030 A 
ATOM      9  C   UNL     1       7.360   0.522  22.695  0.00  0.00    +0.257 A 
ATOM     10  O   UNL     1       7.381   1.494  21.947  0.00  0.00    -0.267 OA
ATOM     11  N   UNL     1       6.316   0.282  23.539  0.00  0.00    -0.275 N 
ATOM     12  H   UNL     1       5.548   0.935  23.509  0.00  0.00    +0.173 HD
ATOM     13  C   UNL     1       6.170  -0.813  24.346  0.00  0.00    +0.331 A 
ATOM     14  O   UNL     1       5.128  -0.990  24.976  0.00  0.00    -0.246 OA
ATOM     15  N   UNL     1       7.248  -1.683  24.384  0.00  0.00    -0.271 N 
ATOM     16  C   UNL     1       8.348  -1.509  23.567  0.00  0.00    +0.102 A 
ENDBRANCH   1  15
BRANCH   4  17
ATOM     17  O   UNL     1       6.270  -5.381  26.537  0.00  0.00    -0.386 OA
ATOM     18  H   UNL     1       6.393  -4.760  27.278  0.00  0.00    +0.210 HD
ENDBRANCH   4  17
BRANCH   3  19
ATOM     19  C   UNL     1       9.839  -4.829  25.629  0.00  0.00    +0.190 C 
BRANCH  19  20
ATOM     20  O   UNL     1       9.791  -6.123  25.031  0.00  0.00    -0.392 OA
ATOM     21  H   UNL     1      10.650  -6.554  25.174  0.00  0.00    +0.210 HD
ENDBRANCH  19  20
ENDBRANCH   3  19
TORSDOF 4
ENDMDL
MODEL 9
REMARK VINA RESULT:      -5.7      2.313      5.275
REMARK  Name = 
REMARK  5 active torsions:
REMARK  status: ('A' for Active; 'I' for Inactive)
REMARK    1  A    between atoms: C_1  and  C_2
REMARK    2  A    between atoms: N_4  and  C_10
REMARK    3  A    between atoms: C_14  and  O_21
REMARK    4  A    between atoms: C_16  and  C_19
REMARK    5  A    between atoms: C_19  and  O_20
REMARK                            x       y       z     vdW  Elec       q    Type
REMARK                         _______ _______ _______ _____ _____    ______ ____
ROOT
ATOM      1  C   UNL     1       8.777  -3.081  23.473  0.00  0.00    +0.260 C 
ATOM      2  O   UNL     1       7.505  -3.747  23.360  0.00  0.00    -0.345 OA
ATOM      3  C   UNL     1       7.408  -4.703  24.444  0.00  0.00    +0.178 C 
ATOM      4  C   UNL     1       8.746  -4.684  25.194  0.00  0.00    +0.184 C 
ATOM      5  C   UNL     1       9.260  -3.291  24.907  0.00  0.00    +0.246 C 
ATOM      6  F   UNL     1       8.648  -2.425  25.764  0.00  0.00    -0.238 F 
ENDROOT
BRANCH   1  15
ATOM      7  C   UNL     1       6.399   1.301  23.388  0.00  0.00    +0.051 C 
ATOM      8  C   UNL     1       7.539   0.396  23.044  0.00  0.00    +0.030 A 
ATOM      9  C   UNL     1       8.665   0.982  22.280  0.00  0.00    +0.257 A 
ATOM     10  O   UNL     1       8.682   2.160  21.939  0.00  0.00    -0.267 OA
ATOM     11  N   UNL     1       9.692   0.131  21.991  0.00  0.00    -0.275 N 
ATOM     12  H   UNL     1      10.480   0.521  21.496  0.00  0.00    +0.173 HD
ATOM     13  C   UNL     1       9.797  -1.171  22.398  0.00  0.00    +0.331 A 
ATOM     14  O   UNL     1      10.826  -1.811  22.185  0.00  0.00    -0.246 OA
ATOM     15  N   UNL     1       8.693  -1.687  23.058  0.00  0.00    -0.271 N 
ATOM     16  C   UNL     1       7.608  -0.896  23.383  0.00  0.00    +0.102 A 
ENDBRANCH   1  15
BRANCH   4  17
ATOM     17  O   UNL     1       9.631  -5.668  24.650  0.00  0.00    -0.386 OA
ATOM     18  H   UNL     1      10.297  -5.887  25.328  0.00  0.00    +0.210 HD
ENDBRANCH   4  17
BRANCH   3  19
ATOM     19  C   UNL     1       6.237  -4.306  25.353  0.00  0.00    +0.190 C 
BRANCH  19  20
ATOM     20  O   UNL     1       5.435  -3.280  24.770  0.00  0.00    -0.392 OA
ATOM     21  H   UNL     1       5.982  -2.799  24.127  0.00  0.00    +0.210 HD
ENDBRANCH  19  20
ENDBRANCH   3  19
TORSDOF 4
ENDMDL
