MODEL 1
REMARK VINA RESULT:      -7.5      0.000      0.000
REMARK  Name = 
REMARK  7 active torsions:
REMARK  status: ('A' for Active; 'I' for Inactive)
REMARK    1  A    between atoms: C_1  and  N_2
REMARK    2  A    between atoms: C_3  and  C_8
REMARK    3  A    between atoms: C_8  and  N_9
REMARK    4  A    between atoms: C_12  and  C_26
REMARK    5  A    between atoms: C_13  and  O_16
REMARK    6  A    between atoms: O_16  and  C_17
REMARK    7  A    between atoms: C_21  and  C_23
REMARK                            x       y       z     vdW  Elec       q    Type
REMARK                         _______ _______ _______ _____ _____    ______ ____
ROOT
ATOM      1  N   UNL     1       6.740  -1.475  23.322  0.00  0.00    -0.305 N 
ATOM      2  C   UNL     1       5.674  -2.293  23.693  0.00  0.00    +0.295 A 
ATOM      3  O   UNL     1       4.890  -1.992  24.593  0.00  0.00    -0.264 OA
ATOM      4  C   UNL     1       5.522  -3.579  22.914  0.00  0.00    +0.204 A 
ATOM      5  C   UNL     1       6.639  -4.087  22.350  0.00  0.00    +0.104 A 
ATOM      6  C   UNL     1       7.846  -3.275  22.263  0.00  0.00    +0.034 A 
ATOM      7  C   UNL     1       7.832  -1.998  22.659  0.00  0.00    +0.090 A 
ENDROOT
BRANCH   5   8
ATOM      8  C   UNL     1       6.682  -5.464  21.749  0.00  0.00    +0.421 C 
ATOM      9  F   UNL     1       6.470  -6.434  22.666  0.00  0.00    -0.166 F 
ATOM     10  F   UNL     1       7.885  -5.715  21.166  0.00  0.00    -0.166 F 
ATOM     11  F   UNL     1       5.749  -5.639  20.774  0.00  0.00    -0.166 F 
ENDBRANCH   5   8
BRANCH   1  12
ATOM     12  C   UNL     1       6.766  -0.087  23.793  0.00  0.00    +0.201 C 
BRANCH  12  20
ATOM     13  C   UNL     1       8.666   1.909  22.234  0.00  0.00    +0.155 C 
ATOM     14  N   UNL     1       8.934   1.185  23.456  0.00  0.00    -0.281 N 
ATOM     15  C   UNL     1      10.074   1.406  24.188  0.00  0.00    +0.344 A 
ATOM     16  O   UNL     1      11.017   2.131  23.923  0.00  0.00    -0.245 OA
ATOM     17  N   UNL     1       9.914   0.657  25.345  0.00  0.00    -0.227 N 
ATOM     18  H   UNL     1      10.544   0.663  26.138  0.00  0.00    +0.194 HD
ATOM     19  N   UNL     1       8.705   0.022  25.346  0.00  0.00    -0.155 NA
ATOM     20  C   UNL     1       8.165   0.361  24.204  0.00  0.00    +0.154 A 
ENDBRANCH  12  20
ENDBRANCH   1  12
BRANCH   4  21
ATOM     21  O   UNL     1       4.328  -4.299  22.890  0.00  0.00    -0.450 OA
BRANCH  21  22
ATOM     22  C   UNL     1       4.002  -5.301  23.782  0.00  0.00    +0.131 A 
ATOM     23  C   UNL     1       4.496  -5.490  25.075  0.00  0.00    +0.065 A 
ATOM     24  C   UNL     1       4.172  -6.640  25.813  0.00  0.00    +0.057 A 
ATOM     25  C   UNL     1       3.253  -7.558  25.306  0.00  0.00    +0.039 A 
ATOM     26  C   UNL     1       2.685  -7.327  24.058  0.00  0.00    +0.046 A 
ATOM     27 CL   UNL     1       1.512  -8.428  23.446  0.00  0.00    -0.083 Cl
ATOM     28  C   UNL     1       3.064  -6.219  23.294  0.00  0.00    +0.066 A 
BRANCH  24  29
ATOM     29  C   UNL     1       4.824  -6.886  27.067  0.00  0.00    +0.099 C 
ATOM     30  N   UNL     1       5.361  -7.111  28.070  0.00  0.00    -0.191 NA
ENDBRANCH  24  29
ENDBRANCH  21  22
ENDBRANCH   4  21
TORSDOF 6
ENDMDL
MODEL 2
REMARK VINA RESULT:      -7.3      3.201      4.554
REMARK  Name = 
REMARK  7 active torsions:
REMARK  status: ('A' for Active; 'I' for Inactive)
REMARK    1  A    between atoms: C_1  and  N_2
REMARK    2  A    between atoms: C_3  and  C_8
REMARK    3  A    between atoms: C_8  and  N_9
REMARK    4  A    between atoms: C_12  and  C_26
REMARK    5  A    between atoms: C_13  and  O_16
REMARK    6  A    between atoms: O_16  and  C_17
REMARK    7  A    between atoms: C_21  and  C_23
REMARK                            x       y       z     vdW  Elec       q    Type
REMARK                         _______ _______ _______ _____ _____    ______ ____
ROOT
ATOM      1  N   UNL     1       8.743   2.008  24.434  0.00  0.00    -0.305 N 
ATOM      2  C   UNL     1       7.776   1.010  24.319  0.00  0.00    +0.295 A 
ATOM      3  O   UNL     1       6.690   1.071  24.897  0.00  0.00    -0.264 OA
ATOM      4  C   UNL     1       8.129  -0.157  23.427  0.00  0.00    +0.204 A 
ATOM      5  C   UNL     1       9.442  -0.425  23.263  0.00  0.00    +0.104 A 
ATOM      6  C   UNL     1      10.443   0.544  23.692  0.00  0.00    +0.034 A 
ATOM      7  C   UNL     1      10.070   1.737  24.169  0.00  0.00    +0.090 A 
ENDROOT
BRANCH   5   8
ATOM      8  C   UNL     1       9.930  -1.681  22.599  0.00  0.00    +0.421 C 
ATOM      9  F   UNL     1       9.762  -2.774  23.375  0.00  0.00    -0.166 F 
ATOM     10  F   UNL     1      11.254  -1.601  22.294  0.00  0.00    -0.166 F 
ATOM     11  F   UNL     1       9.290  -1.935  21.424  0.00  0.00    -0.166 F 
ENDBRANCH   5   8
BRANCH   1  12
ATOM     12  C   UNL     1       8.361   3.304  25.005  0.00  0.00    +0.201 C 
BRANCH  12  20
ATOM     13  C   UNL     1       6.160   4.089  22.869  0.00  0.00    +0.155 C 
ATOM     14  N   UNL     1       7.466   4.676  23.070  0.00  0.00    -0.281 N 
ATOM     15  C   UNL     1       7.860   5.801  22.391  0.00  0.00    +0.344 A 
ATOM     16  O   UNL     1       7.265   6.410  21.518  0.00  0.00    -0.245 OA
ATOM     17  N   UNL     1       9.084   6.149  22.944  0.00  0.00    -0.227 N 
ATOM     18  H   UNL     1       9.611   6.986  22.722  0.00  0.00    +0.194 HD
ATOM     19  N   UNL     1       9.420   5.290  23.951  0.00  0.00    -0.155 NA
ATOM     20  C   UNL     1       8.433   4.433  23.983  0.00  0.00    +0.154 A 
ENDBRANCH  12  20
ENDBRANCH   1  12
BRANCH   4  21
ATOM     21  O   UNL     1       7.162  -1.017  22.908  0.00  0.00    -0.450 OA
BRANCH  21  22
ATOM     22  C   UNL     1       6.851  -2.253  23.437  0.00  0.00    +0.131 A 
ATOM     23  C   UNL     1       6.843  -2.631  24.782  0.00  0.00    +0.065 A 
ATOM     24  C   UNL     1       6.640  -3.969  25.157  0.00  0.00    +0.057 A 
ATOM     25  C   UNL     1       6.325  -4.924  24.191  0.00  0.00    +0.039 A 
ATOM     26  C   UNL     1       6.238  -4.535  22.859  0.00  0.00    +0.046 A 
ATOM     27 CL   UNL     1       5.801  -5.695  21.666  0.00  0.00    -0.083 Cl
ATOM     28  C   UNL     1       6.513  -3.218  22.480  0.00  0.00    +0.066 A 
BRANCH  24  29
ATOM     29  C   UNL     1       6.802  -4.354  26.529  0.00  0.00    +0.099 C 
ATOM     30  N   UNL     1       6.931  -4.695  27.631  0.00  0.00    -0.191 NA
ENDBRANCH  24  29
ENDBRANCH  21  22
ENDBRANCH   4  21
TORSDOF 6
ENDMDL
MODEL 3
REMARK VINA RESULT:      -7.3      2.080      2.560
REMARK  Name = 
REMARK  7 active torsions:
REMARK  status: ('A' for Active; 'I' for Inactive)
REMARK    1  A    between atoms: C_1  and  N_2
REMARK    2  A    between atoms: C_3  and  C_8
REMARK    3  A    between atoms: C_8  and  N_9
REMARK    4  A    between atoms: C_12  and  C_26
REMARK    5  A    between atoms: C_13  and  O_16
REMARK    6  A    between atoms: O_16  and  C_17
REMARK    7  A    between atoms: C_21  and  C_23
REMARK                            x       y       z     vdW  Elec       q    Type
REMARK                         _______ _______ _______ _____ _____    ______ ____
ROOT
ATOM      1  N   UNL     1       7.689  -1.370  23.521  0.00  0.00    -0.305 N 
ATOM      2  C   UNL     1       6.826  -2.464  23.571  0.00  0.00    +0.295 A 
ATOM      3  O   UNL     1       5.610  -2.356  23.413  0.00  0.00    -0.264 OA
ATOM      4  C   UNL     1       7.471  -3.808  23.819  0.00  0.00    +0.204 A 
ATOM      5  C   UNL     1       8.649  -3.807  24.479  0.00  0.00    +0.104 A 
ATOM      6  C   UNL     1       9.376  -2.558  24.671  0.00  0.00    +0.034 A 
ATOM      7  C   UNL     1       8.930  -1.424  24.122  0.00  0.00    +0.090 A 
ENDROOT
BRANCH   5   8
ATOM      8  C   UNL     1       9.284  -5.067  24.994  0.00  0.00    +0.421 C 
ATOM      9  F   UNL     1      10.605  -4.918  25.236  0.00  0.00    -0.166 F 
ATOM     10  F   UNL     1       9.149  -6.091  24.108  0.00  0.00    -0.166 F 
ATOM     11  F   UNL     1       8.721  -5.501  26.156  0.00  0.00    -0.166 F 
ENDBRANCH   5   8
BRANCH   1  12
ATOM     12  C   UNL     1       7.196  -0.103  22.970  0.00  0.00    +0.201 C 
BRANCH  12  20
ATOM     13  C   UNL     1       8.463   2.086  24.875  0.00  0.00    +0.155 C 
ATOM     14  N   UNL     1       8.782   1.804  23.494  0.00  0.00    -0.281 N 
ATOM     15  C   UNL     1       9.836   2.415  22.861  0.00  0.00    +0.344 A 
ATOM     16  O   UNL     1      10.578   3.284  23.287  0.00  0.00    -0.245 OA
ATOM     17  N   UNL     1       9.925   1.797  21.622  0.00  0.00    -0.227 N 
ATOM     18  H   UNL     1      10.653   1.958  20.937  0.00  0.00    +0.194 HD
ATOM     19  N   UNL     1       8.982   0.815  21.504  0.00  0.00    -0.155 NA
ATOM     20  C   UNL     1       8.327   0.864  22.636  0.00  0.00    +0.154 A 
ENDBRANCH  12  20
ENDBRANCH   1  12
BRANCH   4  21
ATOM     21  O   UNL     1       6.829  -5.009  23.520  0.00  0.00    -0.450 OA
BRANCH  21  22
ATOM     22  C   UNL     1       5.824  -5.568  24.282  0.00  0.00    +0.131 A 
ATOM     23  C   UNL     1       5.818  -5.791  25.662  0.00  0.00    +0.065 A 
ATOM     24  C   UNL     1       4.773  -6.499  26.276  0.00  0.00    +0.057 A 
ATOM     25  C   UNL     1       3.662  -6.890  25.531  0.00  0.00    +0.039 A 
ATOM     26  C   UNL     1       3.618  -6.588  24.174  0.00  0.00    +0.046 A 
ATOM     27 CL   UNL     1       2.229  -7.022  23.255  0.00  0.00    -0.083 Cl
ATOM     28  C   UNL     1       4.692  -5.947  23.549  0.00  0.00    +0.066 A 
BRANCH  24  29
ATOM     29  C   UNL     1       4.876  -6.856  27.662  0.00  0.00    +0.099 C 
ATOM     30  N   UNL     1       4.984  -7.126  28.785  0.00  0.00    -0.191 NA
ENDBRANCH  24  29
ENDBRANCH  21  22
ENDBRANCH   4  21
TORSDOF 6
ENDMDL
MODEL 4
REMARK VINA RESULT:      -7.2      2.821      3.549
REMARK  Name = 
REMARK  7 active torsions:
REMARK  status: ('A' for Active; 'I' for Inactive)
REMARK    1  A    between atoms: C_1  and  N_2
REMARK    2  A    between atoms: C_3  and  C_8
REMARK    3  A    between atoms: C_8  and  N_9
REMARK    4  A    between atoms: C_12  and  C_26
REMARK    5  A    between atoms: C_13  and  O_16
REMARK    6  A    between atoms: O_16  and  C_17
REMARK    7  A    between atoms: C_21  and  C_23
REMARK                            x       y       z     vdW  Elec       q    Type
REMARK                         _______ _______ _______ _____ _____    ______ ____
ROOT
ATOM      1  N   UNL     1       7.978  -1.094  23.631  0.00  0.00    -0.305 N 
ATOM      2  C   UNL     1       7.404  -1.370  24.872  0.00  0.00    +0.295 A 
ATOM      3  O   UNL     1       6.718  -0.550  25.482  0.00  0.00    -0.264 OA
ATOM      4  C   UNL     1       7.661  -2.751  25.429  0.00  0.00    +0.204 A 
ATOM      5  C   UNL     1       8.784  -3.377  25.015  0.00  0.00    +0.104 A 
ATOM      6  C   UNL     1       9.531  -2.857  23.877  0.00  0.00    +0.034 A 
ATOM      7  C   UNL     1       9.068  -1.811  23.184  0.00  0.00    +0.090 A 
ENDROOT
BRANCH   5   8
ATOM      8  C   UNL     1       9.282  -4.643  25.654  0.00  0.00    +0.421 C 
ATOM      9  F   UNL     1       9.350  -4.548  27.001  0.00  0.00    -0.166 F 
ATOM     10  F   UNL     1      10.525  -4.970  25.209  0.00  0.00    -0.166 F 
ATOM     11  F   UNL     1       8.490  -5.715  25.379  0.00  0.00    -0.166 F 
ENDBRANCH   5   8
BRANCH   1  12
ATOM     12  C   UNL     1       7.517   0.080  22.883  0.00  0.00    +0.201 C 
BRANCH  12  20
ATOM     13  C   UNL     1       8.751   2.140  24.947  0.00  0.00    +0.155 C 
ATOM     14  N   UNL     1       9.079   1.962  23.550  0.00  0.00    -0.281 N 
ATOM     15  C   UNL     1      10.129   2.628  22.968  0.00  0.00    +0.344 A 
ATOM     16  O   UNL     1      10.859   3.472  23.460  0.00  0.00    -0.245 OA
ATOM     17  N   UNL     1      10.230   2.102  21.689  0.00  0.00    -0.227 N 
ATOM     18  H   UNL     1      10.959   2.321  21.021  0.00  0.00    +0.194 HD
ATOM     19  N   UNL     1       9.298   1.121  21.496  0.00  0.00    -0.155 NA
ATOM     20  C   UNL     1       8.639   1.081  22.625  0.00  0.00    +0.154 A 
ENDBRANCH  12  20
ENDBRANCH   1  12
BRANCH   4  21
ATOM     21  O   UNL     1       6.870  -3.309  26.434  0.00  0.00    -0.450 OA
BRANCH  21  22
ATOM     22  C   UNL     1       5.895  -4.261  26.221  0.00  0.00    +0.131 A 
ATOM     23  C   UNL     1       5.177  -4.504  25.047  0.00  0.00    +0.065 A 
ATOM     24  C   UNL     1       4.112  -5.419  25.026  0.00  0.00    +0.057 A 
ATOM     25  C   UNL     1       3.832  -6.190  26.154  0.00  0.00    +0.039 A 
ATOM     26  C   UNL     1       4.605  -6.020  27.297  0.00  0.00    +0.046 A 
ATOM     27 CL   UNL     1       4.300  -7.001  28.678  0.00  0.00    -0.083 Cl
ATOM     28  C   UNL     1       5.617  -5.056  27.340  0.00  0.00    +0.066 A 
BRANCH  24  29
ATOM     29  C   UNL     1       3.290  -5.525  23.855  0.00  0.00    +0.099 C 
ATOM     30  N   UNL     1       2.601  -5.611  22.926  0.00  0.00    -0.191 NA
ENDBRANCH  24  29
ENDBRANCH  21  22
ENDBRANCH   4  21
TORSDOF 6
ENDMDL
MODEL 5
REMARK VINA RESULT:      -7.2      4.319      7.092
REMARK  Name = 
REMARK  7 active torsions:
REMARK  status: ('A' for Active; 'I' for Inactive)
REMARK    1  A    between atoms: C_1  and  N_2
REMARK    2  A    between atoms: C_3  and  C_8
REMARK    3  A    between atoms: C_8  and  N_9
REMARK    4  A    between atoms: C_12  and  C_26
REMARK    5  A    between atoms: C_13  and  O_16
REMARK    6  A    between atoms: O_16  and  C_17
REMARK    7  A    between atoms: C_21  and  C_23
REMARK                            x       y       z     vdW  Elec       q    Type
REMARK                         _______ _______ _______ _____ _____    ______ ____
ROOT
ATOM      1  N   UNL     1       8.423  -2.421  22.812  0.00  0.00    -0.305 N 
ATOM      2  C   UNL     1       7.331  -1.556  22.761  0.00  0.00    +0.295 A 
ATOM      3  O   UNL     1       6.175  -1.955  22.622  0.00  0.00    -0.264 OA
ATOM      4  C   UNL     1       7.643  -0.084  22.902  0.00  0.00    +0.204 A 
ATOM      5  C   UNL     1       8.879   0.316  22.531  0.00  0.00    +0.104 A 
ATOM      6  C   UNL     1       9.923  -0.672  22.292  0.00  0.00    +0.034 A 
ATOM      7  C   UNL     1       9.694  -1.969  22.521  0.00  0.00    +0.090 A 
ENDROOT
BRANCH   5   8
ATOM      8  C   UNL     1       9.249   1.766  22.398  0.00  0.00    +0.421 C 
ATOM      9  F   UNL     1       9.390   2.374  23.598  0.00  0.00    -0.166 F 
ATOM     10  F   UNL     1       8.308   2.459  21.702  0.00  0.00    -0.166 F 
ATOM     11  F   UNL     1      10.421   1.948  21.729  0.00  0.00    -0.166 F 
ENDBRANCH   5   8
BRANCH   1  12
ATOM     12  C   UNL     1       8.183  -3.855  23.009  0.00  0.00    +0.201 C 
BRANCH  12  20
ATOM     13  C   UNL     1       6.110  -4.235  25.371  0.00  0.00    +0.155 C 
ATOM     14  N   UNL     1       7.546  -4.397  25.402  0.00  0.00    -0.281 N 
ATOM     15  C   UNL     1       8.189  -4.897  26.507  0.00  0.00    +0.344 A 
ATOM     16  O   UNL     1       7.717  -5.194  27.591  0.00  0.00    -0.245 OA
ATOM     17  N   UNL     1       9.513  -5.047  26.120  0.00  0.00    -0.227 N 
ATOM     18  H   UNL     1      10.242  -5.473  26.679  0.00  0.00    +0.194 HD
ATOM     19  N   UNL     1       9.678  -4.686  24.813  0.00  0.00    -0.155 NA
ATOM     20  C   UNL     1       8.486  -4.303  24.435  0.00  0.00    +0.154 A 
ENDBRANCH  12  20
ENDBRANCH   1  12
BRANCH   4  21
ATOM     21  O   UNL     1       6.673   0.854  23.254  0.00  0.00    -0.450 OA
BRANCH  21  22
ATOM     22  C   UNL     1       6.339   1.183  24.552  0.00  0.00    +0.131 A 
ATOM     23  C   UNL     1       6.692   2.334  25.261  0.00  0.00    +0.065 A 
ATOM     24  C   UNL     1       6.392   2.463  26.626  0.00  0.00    +0.057 A 
ATOM     25  C   UNL     1       5.631   1.489  27.269  0.00  0.00    +0.039 A 
ATOM     26  C   UNL     1       5.196   0.385  26.544  0.00  0.00    +0.046 A 
ATOM     27 CL   UNL     1       4.213  -0.799  27.316  0.00  0.00    -0.083 Cl
ATOM     28  C   UNL     1       5.557   0.222  25.204  0.00  0.00    +0.066 A 
BRANCH  24  29
ATOM     29  C   UNL     1       6.911   3.580  27.364  0.00  0.00    +0.099 C 
ATOM     30  N   UNL     1       7.353   4.485  27.940  0.00  0.00    -0.191 NA
ENDBRANCH  24  29
ENDBRANCH  21  22
ENDBRANCH   4  21
TORSDOF 6
ENDMDL
MODEL 6
REMARK VINA RESULT:      -7.2      5.020      8.057
REMARK  Name = 
REMARK  7 active torsions:
REMARK  status: ('A' for Active; 'I' for Inactive)
REMARK    1  A    between atoms: C_1  and  N_2
REMARK    2  A    between atoms: C_3  and  C_8
REMARK    3  A    between atoms: C_8  and  N_9
REMARK    4  A    between atoms: C_12  and  C_26
REMARK    5  A    between atoms: C_13  and  O_16
REMARK    6  A    between atoms: O_16  and  C_17
REMARK    7  A    between atoms: C_21  and  C_23
REMARK                            x       y       z     vdW  Elec       q    Type
REMARK                         _______ _______ _______ _____ _____    ______ ____
ROOT
ATOM      1  N   UNL     1       8.311  -2.204  23.021  0.00  0.00    -0.305 N 
ATOM      2  C   UNL     1       7.776  -1.253  23.889  0.00  0.00    +0.295 A 
ATOM      3  O   UNL     1       6.779  -1.470  24.577  0.00  0.00    -0.264 OA
ATOM      4  C   UNL     1       8.502   0.071  23.952  0.00  0.00    +0.204 A 
ATOM      5  C   UNL     1       9.211   0.431  22.860  0.00  0.00    +0.104 A 
ATOM      6  C   UNL     1       9.485  -0.547  21.814  0.00  0.00    +0.034 A 
ATOM      7  C   UNL     1       9.113  -1.822  21.965  0.00  0.00    +0.090 A 
ENDROOT
BRANCH   5   8
ATOM      8  C   UNL     1       9.787   1.808  22.693  0.00  0.00    +0.421 C 
ATOM      9  F   UNL     1      10.537   2.186  23.752  0.00  0.00    -0.166 F 
ATOM     10  F   UNL     1       8.810   2.741  22.536  0.00  0.00    -0.166 F 
ATOM     11  F   UNL     1      10.585   1.913  21.594  0.00  0.00    -0.166 F 
ENDBRANCH   5   8
BRANCH   1  12
ATOM     12  C   UNL     1       7.872  -3.598  23.140  0.00  0.00    +0.201 C 
BRANCH  12  20
ATOM     13  C   UNL     1       5.991  -4.735  25.418  0.00  0.00    +0.155 C 
ATOM     14  N   UNL     1       7.434  -4.653  25.403  0.00  0.00    -0.281 N 
ATOM     15  C   UNL     1       8.196  -5.222  26.393  0.00  0.00    +0.344 A 
ATOM     16  O   UNL     1       7.825  -5.781  27.411  0.00  0.00    -0.245 OA
ATOM     17  N   UNL     1       9.509  -5.075  25.970  0.00  0.00    -0.227 N 
ATOM     18  H   UNL     1      10.321  -5.462  26.435  0.00  0.00    +0.194 HD
ATOM     19  N   UNL     1       9.558  -4.467  24.748  0.00  0.00    -0.155 NA
ATOM     20  C   UNL     1       8.304  -4.232  24.458  0.00  0.00    +0.154 A 
ENDBRANCH  12  20
ENDBRANCH   1  12
BRANCH   4  21
ATOM     21  O   UNL     1       8.342   0.959  25.015  0.00  0.00    -0.450 OA
BRANCH  21  22
ATOM     22  C   UNL     1       7.388   1.955  25.064  0.00  0.00    +0.131 A 
ATOM     23  C   UNL     1       6.075   1.907  24.587  0.00  0.00    +0.065 A 
ATOM     24  C   UNL     1       5.264   3.054  24.584  0.00  0.00    +0.057 A 
ATOM     25  C   UNL     1       5.721   4.233  25.168  0.00  0.00    +0.039 A 
ATOM     26  C   UNL     1       6.993   4.260  25.730  0.00  0.00    +0.046 A 
ATOM     27 CL   UNL     1       7.548   5.697  26.499  0.00  0.00    -0.083 Cl
ATOM     28  C   UNL     1       7.826   3.140  25.667  0.00  0.00    +0.066 A 
BRANCH  24  29
ATOM     29  C   UNL     1       3.984   3.015  23.937  0.00  0.00    +0.099 C 
ATOM     30  N   UNL     1       2.953   2.955  23.408  0.00  0.00    -0.191 NA
ENDBRANCH  24  29
ENDBRANCH  21  22
ENDBRANCH   4  21
TORSDOF 6
ENDMDL
MODEL 7
REMARK VINA RESULT:      -7.2      4.739      8.766
REMARK  Name = 
REMARK  7 active torsions:
REMARK  status: ('A' for Active; 'I' for Inactive)
REMARK    1  A    between atoms: C_1  and  N_2
REMARK    2  A    between atoms: C_3  and  C_8
REMARK    3  A    between atoms: C_8  and  N_9
REMARK    4  A    between atoms: C_12  and  C_26
REMARK    5  A    between atoms: C_13  and  O_16
REMARK    6  A    between atoms: O_16  and  C_17
REMARK    7  A    between atoms: C_21  and  C_23
REMARK                            x       y       z     vdW  Elec       q    Type
REMARK                         _______ _______ _______ _____ _____    ______ ____
ROOT
ATOM      1  N   UNL     1       8.607  -1.156  25.352  0.00  0.00    -0.305 N 
ATOM      2  C   UNL     1       7.741  -0.113  25.023  0.00  0.00    +0.295 A 
ATOM      3  O   UNL     1       6.733   0.143  25.682  0.00  0.00    -0.264 OA
ATOM      4  C   UNL     1       8.116   0.704  23.809  0.00  0.00    +0.204 A 
ATOM      5  C   UNL     1       8.873   0.092  22.872  0.00  0.00    +0.104 A 
ATOM      6  C   UNL     1       9.521  -1.178  23.173  0.00  0.00    +0.034 A 
ATOM      7  C   UNL     1       9.443  -1.703  24.400  0.00  0.00    +0.090 A 
ENDROOT
BRANCH   5   8
ATOM      8  C   UNL     1       9.125   0.699  21.521  0.00  0.00    +0.421 C 
ATOM      9  F   UNL     1       9.356  -0.235  20.571  0.00  0.00    -0.166 F 
ATOM     10  F   UNL     1      10.203   1.529  21.540  0.00  0.00    -0.166 F 
ATOM     11  F   UNL     1       8.080   1.452  21.081  0.00  0.00    -0.166 F 
ENDBRANCH   5   8
BRANCH   1  12
ATOM     12  C   UNL     1       8.498  -1.778  26.675  0.00  0.00    +0.201 C 
BRANCH  12  20
ATOM     13  C   UNL     1       5.767  -3.189  25.917  0.00  0.00    +0.155 C 
ATOM     14  N   UNL     1       7.017  -3.802  26.305  0.00  0.00    -0.281 N 
ATOM     15  C   UNL     1       7.198  -5.162  26.253  0.00  0.00    +0.344 A 
ATOM     16  O   UNL     1       6.385  -6.026  25.970  0.00  0.00    -0.245 OA
ATOM     17  N   UNL     1       8.539  -5.363  26.546  0.00  0.00    -0.227 N 
ATOM     18  H   UNL     1       9.020  -6.253  26.510  0.00  0.00    +0.194 HD
ATOM     19  N   UNL     1       9.174  -4.169  26.740  0.00  0.00    -0.155 NA
ATOM     20  C   UNL     1       8.229  -3.277  26.592  0.00  0.00    +0.154 A 
ENDBRANCH  12  20
ENDBRANCH   1  12
BRANCH   4  21
ATOM     21  O   UNL     1       7.595   1.976  23.577  0.00  0.00    -0.450 OA
BRANCH  21  22
ATOM     22  C   UNL     1       8.170   3.149  24.024  0.00  0.00    +0.131 A 
ATOM     23  C   UNL     1       9.326   3.772  23.547  0.00  0.00    +0.065 A 
ATOM     24  C   UNL     1       9.865   4.893  24.199  0.00  0.00    +0.057 A 
ATOM     25  C   UNL     1       9.185   5.473  25.268  0.00  0.00    +0.039 A 
ATOM     26  C   UNL     1       7.983   4.912  25.688  0.00  0.00    +0.046 A 
ATOM     27 CL   UNL     1       7.111   5.650  26.975  0.00  0.00    -0.083 Cl
ATOM     28  C   UNL     1       7.486   3.754  25.085  0.00  0.00    +0.066 A 
BRANCH  24  29
ATOM     29  C   UNL     1      11.139   5.408  23.786  0.00  0.00    +0.099 C 
ATOM     30  N   UNL     1      12.176   5.798  23.441  0.00  0.00    -0.191 NA
ENDBRANCH  24  29
ENDBRANCH  21  22
ENDBRANCH   4  21
TORSDOF 6
ENDMDL
MODEL 8
REMARK VINA RESULT:      -7.2      2.597      3.158
REMARK  Name = 
REMARK  7 active torsions:
REMARK  status: ('A' for Active; 'I' for Inactive)
REMARK    1  A    between atoms: C_1  and  N_2
REMARK    2  A    between atoms: C_3  and  C_8
REMARK    3  A    between atoms: C_8  and  N_9
REMARK    4  A    between atoms: C_12  and  C_26
REMARK    5  A    between atoms: C_13  and  O_16
REMARK    6  A    between atoms: O_16  and  C_17
REMARK    7  A    between atoms: C_21  and  C_23
REMARK                            x       y       z     vdW  Elec       q    Type
REMARK                         _______ _______ _______ _____ _____    ______ ____
ROOT
ATOM      1  N   UNL     1       8.074  -1.222  23.477  0.00  0.00    -0.305 N 
ATOM      2  C   UNL     1       7.255  -1.741  24.479  0.00  0.00    +0.295 A 
ATOM      3  O   UNL     1       6.278  -1.134  24.916  0.00  0.00    -0.264 OA
ATOM      4  C   UNL     1       7.627  -3.111  24.996  0.00  0.00    +0.204 A 
ATOM      5  C   UNL     1       8.923  -3.475  24.884  0.00  0.00    +0.104 A 
ATOM      6  C   UNL     1       9.828  -2.698  24.047  0.00  0.00    +0.034 A 
ATOM      7  C   UNL     1       9.368  -1.676  23.318  0.00  0.00    +0.090 A 
ENDROOT
BRANCH   5   8
ATOM      8  C   UNL     1       9.476  -4.699  25.557  0.00  0.00    +0.421 C 
ATOM      9  F   UNL     1       9.514  -4.576  26.903  0.00  0.00    -0.166 F 
ATOM     10  F   UNL     1      10.742  -4.968  25.140  0.00  0.00    -0.166 F 
ATOM     11  F   UNL     1       8.748  -5.818  25.289  0.00  0.00    -0.166 F 
ENDBRANCH   5   8
BRANCH   1  12
ATOM     12  C   UNL     1       7.605  -0.067  22.705  0.00  0.00    +0.201 C 
BRANCH  12  20
ATOM     13  C   UNL     1       8.746   1.896  24.911  0.00  0.00    +0.155 C 
ATOM     14  N   UNL     1       9.090   1.824  23.509  0.00  0.00    -0.281 N 
ATOM     15  C   UNL     1      10.117   2.566  22.982  0.00  0.00    +0.344 A 
ATOM     16  O   UNL     1      10.811   3.403  23.535  0.00  0.00    -0.245 OA
ATOM     17  N   UNL     1      10.246   2.130  21.671  0.00  0.00    -0.227 N 
ATOM     18  H   UNL     1      10.970   2.420  21.026  0.00  0.00    +0.194 HD
ATOM     19  N   UNL     1       9.354   1.130  21.406  0.00  0.00    -0.155 NA
ATOM     20  C   UNL     1       8.689   0.990  22.523  0.00  0.00    +0.154 A 
ENDBRANCH  12  20
ENDBRANCH   1  12
BRANCH   4  21
ATOM     21  O   UNL     1       6.725  -3.916  25.691  0.00  0.00    -0.450 OA
BRANCH  21  22
ATOM     22  C   UNL     1       5.809  -4.758  25.095  0.00  0.00    +0.131 A 
ATOM     23  C   UNL     1       4.682  -5.346  25.675  0.00  0.00    +0.065 A 
ATOM     24  C   UNL     1       3.920  -6.296  24.976  0.00  0.00    +0.057 A 
ATOM     25  C   UNL     1       4.212  -6.581  23.643  0.00  0.00    +0.039 A 
ATOM     26  C   UNL     1       5.277  -5.928  23.031  0.00  0.00    +0.046 A 
ATOM     27 CL   UNL     1       5.614  -6.235  21.371  0.00  0.00    -0.083 Cl
ATOM     28  C   UNL     1       6.078  -5.038  23.750  0.00  0.00    +0.066 A 
BRANCH  24  29
ATOM     29  C   UNL     1       2.870  -7.002  25.654  0.00  0.00    +0.099 C 
ATOM     30  N   UNL     1       2.041  -7.577  26.225  0.00  0.00    -0.191 NA
ENDBRANCH  24  29
ENDBRANCH  21  22
ENDBRANCH   4  21
TORSDOF 6
ENDMDL
MODEL 9
REMARK VINA RESULT:      -7.1      4.750      8.183
REMARK  Name = 
REMARK  7 active torsions:
REMARK  status: ('A' for Active; 'I' for Inactive)
REMARK    1  A    between atoms: C_1  and  N_2
REMARK    2  A    between atoms: C_3  and  C_8
REMARK    3  A    between atoms: C_8  and  N_9
REMARK    4  A    between atoms: C_12  and  C_26
REMARK    5  A    between atoms: C_13  and  O_16
REMARK    6  A    between atoms: O_16  and  C_17
REMARK    7  A    between atoms: C_21  and  C_23
REMARK                            x       y       z     vdW  Elec       q    Type
REMARK                         _______ _______ _______ _____ _____    ______ ____
ROOT
ATOM      1  N   UNL     1       8.745  -1.389  25.376  0.00  0.00    -0.305 N 
ATOM      2  C   UNL     1       8.358  -0.051  25.325  0.00  0.00    +0.295 A 
ATOM      3  O   UNL     1       7.728   0.491  26.233  0.00  0.00    -0.264 OA
ATOM      4  C   UNL     1       8.768   0.713  24.087  0.00  0.00    +0.204 A 
ATOM      5  C   UNL     1       8.965  -0.009  22.962  0.00  0.00    +0.104 A 
ATOM      6  C   UNL     1       9.057  -1.461  23.035  0.00  0.00    +0.034 A 
ATOM      7  C   UNL     1       9.035  -2.083  24.218  0.00  0.00    +0.090 A 
ENDROOT
BRANCH   5   8
ATOM      8  C   UNL     1       9.148   0.634  21.617  0.00  0.00    +0.421 C 
ATOM      9  F   UNL     1       8.046   1.304  21.210  0.00  0.00    -0.166 F 
ATOM     10  F   UNL     1       9.436  -0.288  20.659  0.00  0.00    -0.166 F 
ATOM     11  F   UNL     1      10.176   1.527  21.598  0.00  0.00    -0.166 F 
ENDBRANCH   5   8
BRANCH   1  12
ATOM     12  C   UNL     1       8.675  -2.100  26.657  0.00  0.00    +0.201 C 
BRANCH  12  20
ATOM     13  C   UNL     1       5.765  -3.099  25.911  0.00  0.00    +0.155 C 
ATOM     14  N   UNL     1       6.934  -3.890  26.220  0.00  0.00    -0.281 N 
ATOM     15  C   UNL     1       6.935  -5.256  26.082  0.00  0.00    +0.344 A 
ATOM     16  O   UNL     1       6.009  -5.989  25.777  0.00  0.00    -0.245 OA
ATOM     17  N   UNL     1       8.245  -5.645  26.317  0.00  0.00    -0.227 N 
ATOM     18  H   UNL     1       8.605  -6.586  26.214  0.00  0.00    +0.194 HD
ATOM     19  N   UNL     1       9.036  -4.557  26.558  0.00  0.00    -0.155 NA
ATOM     20  C   UNL     1       8.212  -3.544  26.495  0.00  0.00    +0.154 A 
ENDBRANCH  12  20
ENDBRANCH   1  12
BRANCH   4  21
ATOM     21  O   UNL     1       8.804   2.106  24.049  0.00  0.00    -0.450 OA
BRANCH  21  22
ATOM     22  C   UNL     1       7.725   2.907  23.737  0.00  0.00    +0.131 A 
ATOM     23  C   UNL     1       6.372   2.652  23.977  0.00  0.00    +0.065 A 
ATOM     24  C   UNL     1       5.374   3.503  23.475  0.00  0.00    +0.057 A 
ATOM     25  C   UNL     1       5.728   4.685  22.826  0.00  0.00    +0.039 A 
ATOM     26  C   UNL     1       7.075   4.992  22.667  0.00  0.00    +0.046 A 
ATOM     27 CL   UNL     1       7.521   6.473  21.912  0.00  0.00    -0.083 Cl
ATOM     28  C   UNL     1       8.065   4.108  23.103  0.00  0.00    +0.066 A 
BRANCH  24  29
ATOM     29  C   UNL     1       3.995   3.128  23.595  0.00  0.00    +0.099 C 
ATOM     30  N   UNL     1       2.872   2.848  23.675  0.00  0.00    -0.191 NA
ENDBRANCH  24  29
ENDBRANCH  21  22
ENDBRANCH   4  21
TORSDOF 6
ENDMDL
