MODEL 1
REMARK VINA RESULT:      -6.7      0.000      0.000
REMARK  Name = 
REMARK  13 active torsions:
REMARK  status: ('A' for Active; 'I' for Inactive)
REMARK    1  A    between atoms: C_1  and  C_2
REMARK    2  A    between atoms: C_2  and  C_3
REMARK    3  A    between atoms: C_2  and  C_4
REMARK    4  A    between atoms: C_4  and  C_6
REMARK    5  A    between atoms: C_4  and  N_26
REMARK    6  A    between atoms: C_6  and  O_8
REMARK    7  A    between atoms: O_8  and  C_9
REMARK    8  A    between atoms: C_9  and  C_10
REMARK    9  A    between atoms: C_10  and  C_11
REMARK   10  A    between atoms: C_10  and  O_13
REMARK   11  A    between atoms: C_11  and  O_12
REMARK   12  A    between atoms: O_13  and  C_14
REMARK   13  A    between atoms: C_14  and  N_15
REMARK                            x       y       z     vdW  Elec       q    Type
REMARK                         _______ _______ _______ _____ _____    ______ ____
ROOT
ATOM      1  O   UNL     1       6.743  -1.587  22.681  0.00  0.00    -0.350 OA
ENDROOT
BRANCH   1   2
ATOM      2  C   UNL     1       8.011  -0.905  22.792  0.00  0.00    +0.183 C 
BRANCH   2   3
ATOM      3  C   UNL     1       8.477  -0.764  24.250  0.00  0.00    +0.266 C 
BRANCH   3   4
ATOM      4  O   UNL     1       8.709   0.625  24.557  0.00  0.00    -0.461 OA
BRANCH   4   5
ATOM      5  C   UNL     1       9.870   1.170  24.088  0.00  0.00    +0.324 C 
ATOM      6  O   UNL     1      10.988   0.728  24.323  0.00  0.00    -0.249 OA
BRANCH   5   7
ATOM      7  C   UNL     1       9.599   2.412  23.217  0.00  0.00    +0.163 C 
BRANCH   7   9
ATOM      8  C   UNL     1       9.222   4.892  23.692  0.00  0.00    +0.009 C 
ATOM      9  C   UNL     1      10.171   3.699  23.859  0.00  0.00    +0.010 C 
ATOM     10  C   UNL     1      11.534   4.071  23.258  0.00  0.00    +0.009 C 
ENDBRANCH   7   9
BRANCH   7  11
ATOM     11  N   UNL     1      10.152   2.216  21.853  0.00  0.00    -0.318 NA
ATOM     12  H   UNL     1      10.803   1.428  21.880  0.00  0.00    +0.119 HD
ATOM     13  H   UNL     1       9.402   1.931  21.224  0.00  0.00    +0.119 HD
ENDBRANCH   7  11
ENDBRANCH   5   7
ENDBRANCH   4   5
ENDBRANCH   3   4
ENDBRANCH   2   3
BRANCH   2  14
ATOM     14  C   UNL     1       9.038  -1.720  21.988  0.00  0.00    +0.190 C 
BRANCH  14  15
ATOM     15  O   UNL     1       9.868  -0.852  21.219  0.00  0.00    -0.392 OA
ATOM     16  H   UNL     1      10.516  -0.471  21.842  0.00  0.00    +0.210 HD
ENDBRANCH  14  15
ENDBRANCH   2  14
ENDBRANCH   1   2
BRANCH   1  17
ATOM     17  C   UNL     1       6.873  -3.000  22.498  0.00  0.00    +0.288 C 
BRANCH  17  18
ATOM     18  N   UNL     1       6.411  -3.688  23.688  0.00  0.00    -0.291 N 
ATOM     19  C   UNL     1       7.192  -4.366  24.583  0.00  0.00    +0.171 A 
ATOM     20  N   UNL     1       8.541  -4.505  24.549  0.00  0.00    -0.196 NA
ATOM     21  C   UNL     1       9.006  -5.235  25.527  0.00  0.00    +0.195 A 
ATOM     22  N   UNL     1      10.337  -5.485  25.621  0.00  0.00    -0.329 N 
ATOM     23  H   UNL     1      10.728  -5.629  26.542  0.00  0.00    +0.145 HD
ATOM     24  H   UNL     1      10.902  -4.886  25.029  0.00  0.00    +0.145 HD
ATOM     25  N   UNL     1       8.220  -5.791  26.516  0.00  0.00    -0.293 N 
ATOM     26  H   UNL     1       8.630  -6.369  27.230  0.00  0.00    +0.172 HD
ATOM     27  C   UNL     1       6.839  -5.684  26.579  0.00  0.00    +0.280 A 
ATOM     28  O   UNL     1       6.187  -6.222  27.469  0.00  0.00    -0.265 OA
ATOM     29  C   UNL     1       6.304  -4.892  25.496  0.00  0.00    +0.172 A 
ATOM     30  N   UNL     1       5.006  -4.590  25.170  0.00  0.00    -0.229 NA
ATOM     31  C   UNL     1       5.105  -3.876  24.066  0.00  0.00    +0.203 A 
ENDBRANCH  17  18
ENDBRANCH   1  17
TORSDOF 11
ENDMDL
MODEL 2
REMARK VINA RESULT:      -6.5      1.497      1.813
REMARK  Name = 
REMARK  13 active torsions:
REMARK  status: ('A' for Active; 'I' for Inactive)
REMARK    1  A    between atoms: C_1  and  C_2
REMARK    2  A    between atoms: C_2  and  C_3
REMARK    3  A    between atoms: C_2  and  C_4
REMARK    4  A    between atoms: C_4  and  C_6
REMARK    5  A    between atoms: C_4  and  N_26
REMARK    6  A    between atoms: C_6  and  O_8
REMARK    7  A    between atoms: O_8  and  C_9
REMARK    8  A    between atoms: C_9  and  C_10
REMARK    9  A    between atoms: C_10  and  C_11
REMARK   10  A    between atoms: C_10  and  O_13
REMARK   11  A    between atoms: C_11  and  O_12
REMARK   12  A    between atoms: O_13  and  C_14
REMARK   13  A    between atoms: C_14  and  N_15
REMARK                            x       y       z     vdW  Elec       q    Type
REMARK                         _______ _______ _______ _____ _____    ______ ____
ROOT
ATOM      1  O   UNL     1       7.866  -1.793  22.632  0.00  0.00    -0.350 OA
ENDROOT
BRANCH   1   2
ATOM      2  C   UNL     1       9.127  -1.558  21.970  0.00  0.00    +0.183 C 
BRANCH   2   3
ATOM      3  C   UNL     1       9.270  -0.109  21.475  0.00  0.00    +0.266 C 
BRANCH   3   4
ATOM      4  O   UNL     1       8.804   0.802  22.490  0.00  0.00    -0.461 OA
BRANCH   4   5
ATOM      5  C   UNL     1       9.670   1.784  22.876  0.00  0.00    +0.324 C 
ATOM      6  O   UNL     1      10.566   2.234  22.173  0.00  0.00    -0.249 OA
BRANCH   5   7
ATOM      7  C   UNL     1       9.375   2.265  24.310  0.00  0.00    +0.163 C 
BRANCH   7   9
ATOM      8  C   UNL     1       8.229   4.438  23.616  0.00  0.00    +0.009 C 
ATOM      9  C   UNL     1       8.084   3.115  24.377  0.00  0.00    +0.010 C 
ATOM     10  C   UNL     1       7.689   3.426  25.827  0.00  0.00    +0.009 C 
ENDBRANCH   7   9
BRANCH   7  11
ATOM     11  N   UNL     1       9.290   1.107  25.235  0.00  0.00    -0.318 NA
ATOM     12  H   UNL     1       8.917   0.309  24.717  0.00  0.00    +0.119 HD
ATOM     13  H   UNL     1      10.230   0.835  25.520  0.00  0.00    +0.119 HD
ENDBRANCH   7  11
ENDBRANCH   5   7
ENDBRANCH   4   5
ENDBRANCH   3   4
ENDBRANCH   2   3
BRANCH   2  14
ATOM     14  C   UNL     1      10.240  -1.880  22.982  0.00  0.00    +0.190 C 
BRANCH  14  15
ATOM     15  O   UNL     1       9.781  -1.651  24.313  0.00  0.00    -0.392 OA
ATOM     16  H   UNL     1      10.478  -1.130  24.755  0.00  0.00    +0.210 HD
ENDBRANCH  14  15
ENDBRANCH   2  14
ENDBRANCH   1   2
BRANCH   1  17
ATOM     17  C   UNL     1       7.237  -3.016  22.235  0.00  0.00    +0.288 C 
BRANCH  17  18
ATOM     18  N   UNL     1       6.658  -3.663  23.396  0.00  0.00    -0.291 N 
ATOM     19  C   UNL     1       7.339  -4.371  24.349  0.00  0.00    +0.171 A 
ATOM     20  N   UNL     1       8.678  -4.582  24.408  0.00  0.00    -0.196 NA
ATOM     21  C   UNL     1       9.036  -5.323  25.423  0.00  0.00    +0.195 A 
ATOM     22  N   UNL     1      10.341  -5.642  25.610  0.00  0.00    -0.329 N 
ATOM     23  H   UNL     1      10.661  -5.794  26.557  0.00  0.00    +0.145 HD
ATOM     24  H   UNL     1      10.977  -5.081  25.053  0.00  0.00    +0.145 HD
ATOM     25  N   UNL     1       8.155  -5.824  26.360  0.00  0.00    -0.293 N 
ATOM     26  H   UNL     1       8.484  -6.413  27.107  0.00  0.00    +0.172 HD
ATOM     27  C   UNL     1       6.781  -5.642  26.328  0.00  0.00    +0.280 A 
ATOM     28  O   UNL     1       6.041  -6.134  27.176  0.00  0.00    -0.265 OA
ATOM     29  C   UNL     1       6.364  -4.837  25.203  0.00  0.00    +0.172 A 
ATOM     30  N   UNL     1       5.109  -4.471  24.786  0.00  0.00    -0.229 NA
ATOM     31  C   UNL     1       5.322  -3.777  23.685  0.00  0.00    +0.203 A 
ENDBRANCH  17  18
ENDBRANCH   1  17
TORSDOF 11
ENDMDL
MODEL 3
REMARK VINA RESULT:      -6.5      2.585      3.743
REMARK  Name = 
REMARK  13 active torsions:
REMARK  status: ('A' for Active; 'I' for Inactive)
REMARK    1  A    between atoms: C_1  and  C_2
REMARK    2  A    between atoms: C_2  and  C_3
REMARK    3  A    between atoms: C_2  and  C_4
REMARK    4  A    between atoms: C_4  and  C_6
REMARK    5  A    between atoms: C_4  and  N_26
REMARK    6  A    between atoms: C_6  and  O_8
REMARK    7  A    between atoms: O_8  and  C_9
REMARK    8  A    between atoms: C_9  and  C_10
REMARK    9  A    between atoms: C_10  and  C_11
REMARK   10  A    between atoms: C_10  and  O_13
REMARK   11  A    between atoms: C_11  and  O_12
REMARK   12  A    between atoms: O_13  and  C_14
REMARK   13  A    between atoms: C_14  and  N_15
REMARK                            x       y       z     vdW  Elec       q    Type
REMARK                         _______ _______ _______ _____ _____    ______ ____
ROOT
ATOM      1  O   UNL     1       4.895  -4.559  22.647  0.00  0.00    -0.350 OA
ENDROOT
BRANCH   1   2
ATOM      2  C   UNL     1       6.007  -4.197  21.800  0.00  0.00    +0.183 C 
BRANCH   2   3
ATOM      3  C   UNL     1       6.716  -2.918  22.275  0.00  0.00    +0.266 C 
BRANCH   3   4
ATOM      4  O   UNL     1       8.144  -3.110  22.243  0.00  0.00    -0.461 OA
BRANCH   4   5
ATOM      5  C   UNL     1       8.915  -1.985  22.303  0.00  0.00    +0.324 C 
ATOM      6  O   UNL     1       8.933  -1.110  21.447  0.00  0.00    -0.249 OA
BRANCH   5   7
ATOM      7  C   UNL     1       9.759  -1.948  23.592  0.00  0.00    +0.163 C 
BRANCH   7   9
ATOM      8  C   UNL     1      10.321   0.130  24.964  0.00  0.00    +0.009 C 
ATOM      9  C   UNL     1       9.237  -0.887  24.590  0.00  0.00    +0.010 C 
ATOM     10  C   UNL     1       8.711  -1.536  25.878  0.00  0.00    +0.009 C 
ENDBRANCH   7   9
BRANCH   7  11
ATOM     11  N   UNL     1       9.794  -3.291  24.224  0.00  0.00    -0.318 NA
ATOM     12  H   UNL     1       8.874  -3.481  24.627  0.00  0.00    +0.119 HD
ATOM     13  H   UNL     1       9.930  -3.998  23.503  0.00  0.00    +0.119 HD
ENDBRANCH   7  11
ENDBRANCH   5   7
ENDBRANCH   4   5
ENDBRANCH   3   4
ENDBRANCH   2   3
BRANCH   2  14
ATOM     14  C   UNL     1       6.991  -5.379  21.810  0.00  0.00    +0.190 C 
BRANCH  14  15
ATOM     15  O   UNL     1       6.281  -6.615  21.842  0.00  0.00    -0.392 OA
ATOM     16  H   UNL     1       5.377  -6.418  21.530  0.00  0.00    +0.210 HD
ENDBRANCH  14  15
ENDBRANCH   2  14
ENDBRANCH   1   2
BRANCH   1  17
ATOM     17  C   UNL     1       4.797  -3.755  23.827  0.00  0.00    +0.288 C 
BRANCH  17  18
ATOM     18  N   UNL     1       4.685  -4.613  24.991  0.00  0.00    -0.291 N 
ATOM     19  C   UNL     1       5.714  -5.026  25.792  0.00  0.00    +0.171 A 
ATOM     20  N   UNL     1       7.024  -4.697  25.672  0.00  0.00    -0.196 NA
ATOM     21  C   UNL     1       7.781  -5.269  26.571  0.00  0.00    +0.195 A 
ATOM     22  N   UNL     1       9.121  -5.056  26.572  0.00  0.00    -0.329 N 
ATOM     23  H   UNL     1       9.607  -5.100  27.457  0.00  0.00    +0.145 HD
ATOM     24  H   UNL     1       9.406  -4.273  25.992  0.00  0.00    +0.145 HD
ATOM     25  N   UNL     1       7.305  -6.104  27.561  0.00  0.00    -0.293 N 
ATOM     26  H   UNL     1       7.939  -6.540  28.209  0.00  0.00    +0.172 HD
ATOM     27  C   UNL     1       5.977  -6.475  27.709  0.00  0.00    +0.280 A 
ATOM     28  O   UNL     1       5.614  -7.244  28.594  0.00  0.00    -0.265 OA
ATOM     29  C   UNL     1       5.127  -5.864  26.714  0.00  0.00    +0.172 A 
ATOM     30  N   UNL     1       3.781  -6.006  26.483  0.00  0.00    -0.229 NA
ATOM     31  C   UNL     1       3.551  -5.251  25.427  0.00  0.00    +0.203 A 
ENDBRANCH  17  18
ENDBRANCH   1  17
TORSDOF 11
ENDMDL
MODEL 4
REMARK VINA RESULT:      -6.3      1.611      2.802
REMARK  Name = 
REMARK  13 active torsions:
REMARK  status: ('A' for Active; 'I' for Inactive)
REMARK    1  A    between atoms: C_1  and  C_2
REMARK    2  A    between atoms: C_2  and  C_3
REMARK    3  A    between atoms: C_2  and  C_4
REMARK    4  A    between atoms: C_4  and  C_6
REMARK    5  A    between atoms: C_4  and  N_26
REMARK    6  A    between atoms: C_6  and  O_8
REMARK    7  A    between atoms: O_8  and  C_9
REMARK    8  A    between atoms: C_9  and  C_10
REMARK    9  A    between atoms: C_10  and  C_11
REMARK   10  A    between atoms: C_10  and  O_13
REMARK   11  A    between atoms: C_11  and  O_12
REMARK   12  A    between atoms: O_13  and  C_14
REMARK   13  A    between atoms: C_14  and  N_15
REMARK                            x       y       z     vdW  Elec       q    Type
REMARK                         _______ _______ _______ _____ _____    ______ ____
ROOT
ATOM      1  O   UNL     1       8.849  -2.640  24.526  0.00  0.00    -0.350 OA
ENDROOT
BRANCH   1   2
ATOM      2  C   UNL     1       8.642  -2.142  23.187  0.00  0.00    +0.183 C 
BRANCH   2   3
ATOM      3  C   UNL     1       7.566  -1.045  23.129  0.00  0.00    +0.266 C 
BRANCH   3   4
ATOM      4  O   UNL     1       8.071   0.098  22.410  0.00  0.00    -0.461 OA
BRANCH   4   5
ATOM      5  C   UNL     1       7.847   1.322  22.971  0.00  0.00    +0.324 C 
ATOM      6  O   UNL     1       6.888   1.593  23.684  0.00  0.00    -0.249 OA
BRANCH   5   7
ATOM      7  C   UNL     1       8.957   2.325  22.601  0.00  0.00    +0.163 C 
BRANCH   7   9
ATOM      8  C   UNL     1      11.045   3.545  23.417  0.00  0.00    +0.009 C 
ATOM      9  C   UNL     1       9.867   2.646  23.810  0.00  0.00    +0.010 C 
ATOM     10  C   UNL     1      10.423   1.366  24.452  0.00  0.00    +0.009 C 
ENDBRANCH   7   9
BRANCH   7  11
ATOM     11  N   UNL     1       9.758   1.810  21.462  0.00  0.00    -0.318 NA
ATOM     12  H   UNL     1       9.203   1.104  20.972  0.00  0.00    +0.119 HD
ATOM     13  H   UNL     1       9.906   2.560  20.788  0.00  0.00    +0.119 HD
ENDBRANCH   7  11
ENDBRANCH   5   7
ENDBRANCH   4   5
ENDBRANCH   3   4
ENDBRANCH   2   3
BRANCH   2  14
ATOM     14  C   UNL     1       9.988  -1.584  22.695  0.00  0.00    +0.190 C 
BRANCH  14  15
ATOM     15  O   UNL     1       9.981  -1.452  21.275  0.00  0.00    -0.392 OA
ATOM     16  H   UNL     1       9.410  -0.686  21.075  0.00  0.00    +0.210 HD
ENDBRANCH  14  15
ENDBRANCH   2  14
ENDBRANCH   1   2
BRANCH   1  17
ATOM     17  C   UNL     1       9.175  -4.033  24.568  0.00  0.00    +0.288 C 
BRANCH  17  18
ATOM     18  N   UNL     1       8.254  -4.721  25.452  0.00  0.00    -0.291 N 
ATOM     19  C   UNL     1       7.065  -5.295  25.091  0.00  0.00    +0.171 A 
ATOM     20  N   UNL     1       6.533  -5.355  23.846  0.00  0.00    -0.196 NA
ATOM     21  C   UNL     1       5.366  -5.943  23.815  0.00  0.00    +0.195 A 
ATOM     22  N   UNL     1       4.693  -6.065  22.643  0.00  0.00    -0.329 N 
ATOM     23  H   UNL     1       4.077  -6.859  22.530  0.00  0.00    +0.145 HD
ATOM     24  H   UNL     1       5.266  -5.878  21.827  0.00  0.00    +0.145 HD
ATOM     25  N   UNL     1       4.741  -6.475  24.925  0.00  0.00    -0.293 N 
ATOM     26  H   UNL     1       3.829  -6.892  24.846  0.00  0.00    +0.172 HD
ATOM     27  C   UNL     1       5.246  -6.422  26.215  0.00  0.00    +0.280 A 
ATOM     28  O   UNL     1       4.633  -6.890  27.170  0.00  0.00    -0.265 OA
ATOM     29  C   UNL     1       6.529  -5.761  26.271  0.00  0.00    +0.172 A 
ATOM     30  N   UNL     1       7.330  -5.461  27.344  0.00  0.00    -0.229 NA
ATOM     31  C   UNL     1       8.354  -4.820  26.817  0.00  0.00    +0.203 A 
ENDBRANCH  17  18
ENDBRANCH   1  17
TORSDOF 11
ENDMDL
MODEL 5
REMARK VINA RESULT:      -6.3      1.937      2.882
REMARK  Name = 
REMARK  13 active torsions:
REMARK  status: ('A' for Active; 'I' for Inactive)
REMARK    1  A    between atoms: C_1  and  C_2
REMARK    2  A    between atoms: C_2  and  C_3
REMARK    3  A    between atoms: C_2  and  C_4
REMARK    4  A    between atoms: C_4  and  C_6
REMARK    5  A    between atoms: C_4  and  N_26
REMARK    6  A    between atoms: C_6  and  O_8
REMARK    7  A    between atoms: O_8  and  C_9
REMARK    8  A    between atoms: C_9  and  C_10
REMARK    9  A    between atoms: C_10  and  C_11
REMARK   10  A    between atoms: C_10  and  O_13
REMARK   11  A    between atoms: C_11  and  O_12
REMARK   12  A    between atoms: O_13  and  C_14
REMARK   13  A    between atoms: C_14  and  N_15
REMARK                            x       y       z     vdW  Elec       q    Type
REMARK                         _______ _______ _______ _____ _____    ______ ____
ROOT
ATOM      1  O   UNL     1       8.165  -2.499  25.649  0.00  0.00    -0.350 OA
ENDROOT
BRANCH   1   2
ATOM      2  C   UNL     1       8.446  -1.510  24.635  0.00  0.00    +0.183 C 
BRANCH   2   3
ATOM      3  C   UNL     1       9.787  -1.761  23.926  0.00  0.00    +0.266 C 
BRANCH   3   4
ATOM      4  O   UNL     1      10.057  -0.691  22.999  0.00  0.00    -0.461 OA
BRANCH   4   5
ATOM      5  C   UNL     1      10.388   0.518  23.539  0.00  0.00    +0.324 C 
ATOM      6  O   UNL     1      11.263   0.686  24.379  0.00  0.00    -0.249 OA
BRANCH   5   7
ATOM      7  C   UNL     1       9.525   1.653  22.954  0.00  0.00    +0.163 C 
BRANCH   7   9
ATOM      8  C   UNL     1       8.288   2.215  25.115  0.00  0.00    +0.009 C 
ATOM      9  C   UNL     1       9.213   2.739  24.011  0.00  0.00    +0.010 C 
ATOM     10  C   UNL     1       8.561   3.975  23.373  0.00  0.00    +0.009 C 
ENDBRANCH   7   9
BRANCH   7  11
ATOM     11  N   UNL     1      10.191   2.249  21.769  0.00  0.00    -0.318 NA
ATOM     12  H   UNL     1      10.862   2.947  22.094  0.00  0.00    +0.119 HD
ATOM     13  H   UNL     1      10.744   1.533  21.299  0.00  0.00    +0.119 HD
ENDBRANCH   7  11
ENDBRANCH   5   7
ENDBRANCH   4   5
ENDBRANCH   3   4
ENDBRANCH   2   3
BRANCH   2  14
ATOM     14  C   UNL     1       7.294  -1.560  23.617  0.00  0.00    +0.190 C 
BRANCH  14  15
ATOM     15  O   UNL     1       7.738  -2.149  22.396  0.00  0.00    -0.392 OA
ATOM     16  H   UNL     1       7.217  -1.728  21.686  0.00  0.00    +0.210 HD
ENDBRANCH  14  15
ENDBRANCH   2  14
ENDBRANCH   1   2
BRANCH   1  17
ATOM     17  C   UNL     1       8.637  -3.807  25.311  0.00  0.00    +0.288 C 
BRANCH  17  18
ATOM     18  N   UNL     1       7.552  -4.761  25.434  0.00  0.00    -0.291 N 
ATOM     19  C   UNL     1       6.832  -5.302  24.404  0.00  0.00    +0.171 A 
ATOM     20  N   UNL     1       7.007  -5.076  23.079  0.00  0.00    -0.196 NA
ATOM     21  C   UNL     1       6.146  -5.714  22.331  0.00  0.00    +0.195 A 
ATOM     22  N   UNL     1       6.177  -5.575  20.982  0.00  0.00    -0.329 N 
ATOM     23  H   UNL     1       5.864  -6.354  20.418  0.00  0.00    +0.145 HD
ATOM     24  H   UNL     1       7.030  -5.145  20.640  0.00  0.00    +0.145 HD
ATOM     25  N   UNL     1       5.171  -6.557  22.826  0.00  0.00    -0.293 N 
ATOM     26  H   UNL     1       4.517  -7.001  22.204  0.00  0.00    +0.172 HD
ATOM     27  C   UNL     1       4.952  -6.804  24.173  0.00  0.00    +0.280 A 
ATOM     28  O   UNL     1       4.051  -7.544  24.558  0.00  0.00    -0.265 OA
ATOM     29  C   UNL     1       5.885  -6.094  25.016  0.00  0.00    +0.172 A 
ATOM     30  N   UNL     1       5.977  -6.026  26.384  0.00  0.00    -0.229 NA
ATOM     31  C   UNL     1       6.982  -5.202  26.602  0.00  0.00    +0.203 A 
ENDBRANCH  17  18
ENDBRANCH   1  17
TORSDOF 11
ENDMDL
MODEL 6
REMARK VINA RESULT:      -6.2      2.481      8.560
REMARK  Name = 
REMARK  13 active torsions:
REMARK  status: ('A' for Active; 'I' for Inactive)
REMARK    1  A    between atoms: C_1  and  C_2
REMARK    2  A    between atoms: C_2  and  C_3
REMARK    3  A    between atoms: C_2  and  C_4
REMARK    4  A    between atoms: C_4  and  C_6
REMARK    5  A    between atoms: C_4  and  N_26
REMARK    6  A    between atoms: C_6  and  O_8
REMARK    7  A    between atoms: O_8  and  C_9
REMARK    8  A    between atoms: C_9  and  C_10
REMARK    9  A    between atoms: C_10  and  C_11
REMARK   10  A    between atoms: C_10  and  O_13
REMARK   11  A    between atoms: C_11  and  O_12
REMARK   12  A    between atoms: O_13  and  C_14
REMARK   13  A    between atoms: C_14  and  N_15
REMARK                            x       y       z     vdW  Elec       q    Type
REMARK                         _______ _______ _______ _____ _____    ______ ____
ROOT
ATOM      1  O   UNL     1       9.765  -0.030  24.695  0.00  0.00    -0.350 OA
ENDROOT
BRANCH   1   2
ATOM      2  C   UNL     1       9.728  -1.314  24.035  0.00  0.00    +0.183 C 
BRANCH   2   3
ATOM      3  C   UNL     1       8.715  -2.275  24.679  0.00  0.00    +0.266 C 
BRANCH   3   4
ATOM      4  O   UNL     1       9.402  -3.430  25.201  0.00  0.00    -0.461 OA
BRANCH   4   5
ATOM      5  C   UNL     1       8.786  -4.637  25.034  0.00  0.00    +0.324 C 
ATOM      6  O   UNL     1       9.109  -5.471  24.197  0.00  0.00    -0.249 OA
BRANCH   5   7
ATOM      7  C   UNL     1       7.630  -4.824  26.037  0.00  0.00    +0.163 C 
BRANCH   7   9
ATOM      8  C   UNL     1       5.619  -4.434  24.513  0.00  0.00    +0.009 C 
ATOM      9  C   UNL     1       6.385  -5.452  25.366  0.00  0.00    +0.010 C 
ATOM     10  C   UNL     1       5.422  -6.041  26.407  0.00  0.00    +0.009 C 
ENDBRANCH   7   9
BRANCH   7  11
ATOM     11  N   UNL     1       8.076  -5.645  27.190  0.00  0.00    -0.318 NA
ATOM     12  H   UNL     1       8.762  -6.325  26.855  0.00  0.00    +0.119 HD
ATOM     13  H   UNL     1       8.577  -5.052  27.851  0.00  0.00    +0.119 HD
ENDBRANCH   7  11
ENDBRANCH   5   7
ENDBRANCH   4   5
ENDBRANCH   3   4
ENDBRANCH   2   3
BRANCH   2  14
ATOM     14  C   UNL     1       9.353  -1.061  22.565  0.00  0.00    +0.190 C 
BRANCH  14  15
ATOM     15  O   UNL     1      10.322  -1.650  21.699  0.00  0.00    -0.392 OA
ATOM     16  H   UNL     1       9.822  -2.201  21.067  0.00  0.00    +0.210 HD
ENDBRANCH  14  15
ENDBRANCH   2  14
ENDBRANCH   1   2
BRANCH   1  17
ATOM     17  C   UNL     1      10.608   0.921  24.036  0.00  0.00    +0.288 C 
BRANCH  17  18
ATOM     18  N   UNL     1       9.929   2.200  23.960  0.00  0.00    -0.291 N 
ATOM     19  C   UNL     1      10.514   3.410  23.700  0.00  0.00    +0.171 A 
ATOM     20  N   UNL     1      11.824   3.644  23.440  0.00  0.00    -0.196 NA
ATOM     21  C   UNL     1      12.093   4.910  23.258  0.00  0.00    +0.195 A 
ATOM     22  N   UNL     1      13.365   5.310  23.008  0.00  0.00    -0.329 N 
ATOM     23  H   UNL     1      13.499   6.140  22.446  0.00  0.00    +0.145 HD
ATOM     24  H   UNL     1      13.986   4.547  22.759  0.00  0.00    +0.145 HD
ATOM     25  N   UNL     1      11.145   5.912  23.299  0.00  0.00    -0.293 N 
ATOM     26  H   UNL     1      11.414   6.874  23.179  0.00  0.00    +0.172 HD
ATOM     27  C   UNL     1       9.800   5.716  23.574  0.00  0.00    +0.280 A 
ATOM     28  O   UNL     1       9.005   6.650  23.623  0.00  0.00    -0.265 OA
ATOM     29  C   UNL     1       9.487   4.323  23.793  0.00  0.00    +0.172 A 
ATOM     30  N   UNL     1       8.303   3.719  24.136  0.00  0.00    -0.229 NA
ATOM     31  C   UNL     1       8.609   2.441  24.245  0.00  0.00    +0.203 A 
ENDBRANCH  17  18
ENDBRANCH   1  17
TORSDOF 11
ENDMDL
MODEL 7
REMARK VINA RESULT:      -6.1      1.628      2.147
REMARK  Name = 
REMARK  13 active torsions:
REMARK  status: ('A' for Active; 'I' for Inactive)
REMARK    1  A    between atoms: C_1  and  C_2
REMARK    2  A    between atoms: C_2  and  C_3
REMARK    3  A    between atoms: C_2  and  C_4
REMARK    4  A    between atoms: C_4  and  C_6
REMARK    5  A    between atoms: C_4  and  N_26
REMARK    6  A    between atoms: C_6  and  O_8
REMARK    7  A    between atoms: O_8  and  C_9
REMARK    8  A    between atoms: C_9  and  C_10
REMARK    9  A    between atoms: C_10  and  C_11
REMARK   10  A    between atoms: C_10  and  O_13
REMARK   11  A    between atoms: C_11  and  O_12
REMARK   12  A    between atoms: O_13  and  C_14
REMARK   13  A    between atoms: C_14  and  N_15
REMARK                            x       y       z     vdW  Elec       q    Type
REMARK                         _______ _______ _______ _____ _____    ______ ____
ROOT
ATOM      1  O   UNL     1       9.474  -1.068  23.364  0.00  0.00    -0.350 OA
ENDROOT
BRANCH   1   2
ATOM      2  C   UNL     1       9.415   0.360  23.157  0.00  0.00    +0.183 C 
BRANCH   2   3
ATOM      3  C   UNL     1      10.366   1.128  24.090  0.00  0.00    +0.266 C 
BRANCH   3   4
ATOM      4  O   UNL     1      10.020   2.528  24.096  0.00  0.00    -0.461 OA
BRANCH   4   5
ATOM      5  C   UNL     1       8.840   2.864  24.696  0.00  0.00    +0.324 C 
ATOM      6  O   UNL     1       8.260   2.171  25.522  0.00  0.00    -0.249 OA
BRANCH   5   7
ATOM      7  C   UNL     1       8.329   4.233  24.206  0.00  0.00    +0.163 C 
BRANCH   7   9
ATOM      8  C   UNL     1       8.495   6.205  25.819  0.00  0.00    +0.009 C 
ATOM      9  C   UNL     1       9.207   5.394  24.730  0.00  0.00    +0.010 C 
ATOM     10  C   UNL     1       9.613   6.349  23.597  0.00  0.00    +0.009 C 
ENDBRANCH   7   9
BRANCH   7  11
ATOM     11  N   UNL     1       8.256   4.257  22.724  0.00  0.00    -0.318 NA
ATOM     12  H   UNL     1       8.884   4.988  22.382  0.00  0.00    +0.119 HD
ATOM     13  H   UNL     1       8.627   3.382  22.355  0.00  0.00    +0.119 HD
ENDBRANCH   7  11
ENDBRANCH   5   7
ENDBRANCH   4   5
ENDBRANCH   3   4
ENDBRANCH   2   3
BRANCH   2  14
ATOM     14  C   UNL     1       9.790   0.625  21.690  0.00  0.00    +0.190 C 
BRANCH  14  15
ATOM     15  O   UNL     1       9.763   2.025  21.416  0.00  0.00    -0.392 OA
ATOM     16  H   UNL     1       9.470   2.115  20.489  0.00  0.00    +0.210 HD
ENDBRANCH  14  15
ENDBRANCH   2  14
ENDBRANCH   1   2
BRANCH   1  17
ATOM     17  C   UNL     1       8.683  -1.808  22.429  0.00  0.00    +0.288 C 
BRANCH  17  18
ATOM     18  N   UNL     1       7.727  -2.630  23.147  0.00  0.00    -0.291 N 
ATOM     19  C   UNL     1       8.027  -3.636  24.024  0.00  0.00    +0.171 A 
ATOM     20  N   UNL     1       9.262  -4.042  24.411  0.00  0.00    -0.196 NA
ATOM     21  C   UNL     1       9.234  -5.050  25.241  0.00  0.00    +0.195 A 
ATOM     22  N   UNL     1      10.391  -5.586  25.705  0.00  0.00    -0.329 N 
ATOM     23  H   UNL     1      10.383  -6.007  26.624  0.00  0.00    +0.145 HD
ATOM     24  H   UNL     1      11.203  -5.002  25.534  0.00  0.00    +0.145 HD
ATOM     25  N   UNL     1       8.073  -5.634  25.706  0.00  0.00    -0.293 N 
ATOM     26  H   UNL     1       8.112  -6.427  26.324  0.00  0.00    +0.172 HD
ATOM     27  C   UNL     1       6.794  -5.258  25.325  0.00  0.00    +0.280 A 
ATOM     28  O   UNL     1       5.795  -5.831  25.752  0.00  0.00    -0.265 OA
ATOM     29  C   UNL     1       6.805  -4.153  24.394  0.00  0.00    +0.172 A 
ATOM     30  N   UNL     1       5.772  -3.523  23.747  0.00  0.00    -0.229 NA
ATOM     31  C   UNL     1       6.364  -2.620  22.991  0.00  0.00    +0.203 A 
ENDBRANCH  17  18
ENDBRANCH   1  17
TORSDOF 11
ENDMDL
MODEL 8
REMARK VINA RESULT:      -6.1      1.732      3.049
REMARK  Name = 
REMARK  13 active torsions:
REMARK  status: ('A' for Active; 'I' for Inactive)
REMARK    1  A    between atoms: C_1  and  C_2
REMARK    2  A    between atoms: C_2  and  C_3
REMARK    3  A    between atoms: C_2  and  C_4
REMARK    4  A    between atoms: C_4  and  C_6
REMARK    5  A    between atoms: C_4  and  N_26
REMARK    6  A    between atoms: C_6  and  O_8
REMARK    7  A    between atoms: O_8  and  C_9
REMARK    8  A    between atoms: C_9  and  C_10
REMARK    9  A    between atoms: C_10  and  C_11
REMARK   10  A    between atoms: C_10  and  O_13
REMARK   11  A    between atoms: C_11  and  O_12
REMARK   12  A    between atoms: O_13  and  C_14
REMARK   13  A    between atoms: C_14  and  N_15
REMARK                            x       y       z     vdW  Elec       q    Type
REMARK                         _______ _______ _______ _____ _____    ______ ____
ROOT
ATOM      1  O   UNL     1       9.745  -3.371  24.130  0.00  0.00    -0.350 OA
ENDROOT
BRANCH   1   2
ATOM      2  C   UNL     1      10.009  -2.014  23.713  0.00  0.00    +0.183 C 
BRANCH   2   3
ATOM      3  C   UNL     1       9.128  -1.582  22.529  0.00  0.00    +0.266 C 
BRANCH   3   4
ATOM      4  O   UNL     1       9.290  -0.170  22.289  0.00  0.00    -0.461 OA
BRANCH   4   5
ATOM      5  C   UNL     1       8.153   0.587  22.296  0.00  0.00    +0.324 C 
ATOM      6  O   UNL     1       7.047   0.174  22.621  0.00  0.00    -0.249 OA
BRANCH   5   7
ATOM      7  C   UNL     1       8.436   2.034  21.847  0.00  0.00    +0.163 C 
BRANCH   7   9
ATOM      8  C   UNL     1       7.295   4.281  22.255  0.00  0.00    +0.009 C 
ATOM      9  C   UNL     1       7.967   3.064  22.902  0.00  0.00    +0.010 C 
ATOM     10  C   UNL     1       9.136   3.554  23.768  0.00  0.00    +0.009 C 
ENDBRANCH   7   9
BRANCH   7  11
ATOM     11  N   UNL     1       9.879   2.208  21.548  0.00  0.00    -0.318 NA
ATOM     12  H   UNL     1       9.973   2.915  20.815  0.00  0.00    +0.119 HD
ATOM     13  H   UNL     1      10.347   2.597  22.366  0.00  0.00    +0.119 HD
ENDBRANCH   7  11
ENDBRANCH   5   7
ENDBRANCH   4   5
ENDBRANCH   3   4
ENDBRANCH   2   3
BRANCH   2  14
ATOM     14  C   UNL     1       9.745  -1.104  24.924  0.00  0.00    +0.190 C 
BRANCH  14  15
ATOM     15  O   UNL     1      10.557   0.066  24.852  0.00  0.00    -0.392 OA
ATOM     16  H   UNL     1      10.373   0.575  25.664  0.00  0.00    +0.210 HD
ENDBRANCH  14  15
ENDBRANCH   2  14
ENDBRANCH   1   2
BRANCH   1  17
ATOM     17  C   UNL     1       8.394  -3.782  23.898  0.00  0.00    +0.288 C 
BRANCH  17  18
ATOM     18  N   UNL     1       7.892  -4.479  25.066  0.00  0.00    -0.291 N 
ATOM     19  C   UNL     1       6.775  -5.268  25.117  0.00  0.00    +0.171 A 
ATOM     20  N   UNL     1       5.943  -5.572  24.091  0.00  0.00    -0.196 NA
ATOM     21  C   UNL     1       4.940  -6.328  24.450  0.00  0.00    +0.195 A 
ATOM     22  N   UNL     1       4.005  -6.703  23.540  0.00  0.00    -0.329 N 
ATOM     23  H   UNL     1       3.538  -7.589  23.678  0.00  0.00    +0.145 HD
ATOM     24  H   UNL     1       4.290  -6.540  22.580  0.00  0.00    +0.145 HD
ATOM     25  N   UNL     1       4.750  -6.798  25.734  0.00  0.00    -0.293 N 
ATOM     26  H   UNL     1       3.944  -7.355  25.960  0.00  0.00    +0.172 HD
ATOM     27  C   UNL     1       5.570  -6.500  26.812  0.00  0.00    +0.280 A 
ATOM     28  O   UNL     1       5.338  -6.926  27.940  0.00  0.00    -0.265 OA
ATOM     29  C   UNL     1       6.677  -5.651  26.437  0.00  0.00    +0.172 A 
ATOM     30  N   UNL     1       7.672  -5.095  27.200  0.00  0.00    -0.229 NA
ATOM     31  C   UNL     1       8.378  -4.381  26.346  0.00  0.00    +0.203 A 
ENDBRANCH  17  18
ENDBRANCH   1  17
TORSDOF 11
ENDMDL
MODEL 9
REMARK VINA RESULT:      -6.1      2.560      7.632
REMARK  Name = 
REMARK  13 active torsions:
REMARK  status: ('A' for Active; 'I' for Inactive)
REMARK    1  A    between atoms: C_1  and  C_2
REMARK    2  A    between atoms: C_2  and  C_3
REMARK    3  A    between atoms: C_2  and  C_4
REMARK    4  A    between atoms: C_4  and  C_6
REMARK    5  A    between atoms: C_4  and  N_26
REMARK    6  A    between atoms: C_6  and  O_8
REMARK    7  A    between atoms: O_8  and  C_9
REMARK    8  A    between atoms: C_9  and  C_10
REMARK    9  A    between atoms: C_10  and  C_11
REMARK   10  A    between atoms: C_10  and  O_13
REMARK   11  A    between atoms: C_11  and  O_12
REMARK   12  A    between atoms: O_13  and  C_14
REMARK   13  A    between atoms: C_14  and  N_15
REMARK                            x       y       z     vdW  Elec       q    Type
REMARK                         _______ _______ _______ _____ _____    ______ ____
ROOT
ATOM      1  O   UNL     1       7.240  -2.723  26.135  0.00  0.00    -0.350 OA
ENDROOT
BRANCH   1   2
ATOM      2  C   UNL     1       6.763  -3.950  26.727  0.00  0.00    +0.183 C 
BRANCH   2   3
ATOM      3  C   UNL     1       5.488  -4.475  26.046  0.00  0.00    +0.266 C 
BRANCH   3   4
ATOM      4  O   UNL     1       5.614  -5.890  25.799  0.00  0.00    -0.461 OA
BRANCH   4   5
ATOM      5  C   UNL     1       4.985  -6.376  24.689  0.00  0.00    +0.324 C 
ATOM      6  O   UNL     1       4.377  -7.438  24.645  0.00  0.00    -0.249 OA
BRANCH   5   7
ATOM      7  C   UNL     1       5.130  -5.415  23.492  0.00  0.00    +0.163 C 
BRANCH   7   9
ATOM      8  C   UNL     1       7.430  -4.616  22.724  0.00  0.00    +0.009 C 
ATOM      9  C   UNL     1       6.386  -5.737  22.647  0.00  0.00    +0.010 C 
ATOM     10  C   UNL     1       6.028  -5.971  21.172  0.00  0.00    +0.009 C 
ENDBRANCH   7   9
BRANCH   7  11
ATOM     11  N   UNL     1       3.908  -5.452  22.650  0.00  0.00    -0.318 NA
ATOM     12  H   UNL     1       3.378  -6.293  22.889  0.00  0.00    +0.119 HD
ATOM     13  H   UNL     1       3.306  -4.668  22.898  0.00  0.00    +0.119 HD
ENDBRANCH   7  11
ENDBRANCH   5   7
ENDBRANCH   4   5
ENDBRANCH   3   4
ENDBRANCH   2   3
BRANCH   2  14
ATOM     14  C   UNL     1       7.892  -4.987  26.601  0.00  0.00    +0.190 C 
BRANCH  14  15
ATOM     15  O   UNL     1       7.827  -5.923  27.676  0.00  0.00    -0.392 OA
ATOM     16  H   UNL     1       7.969  -6.803  27.278  0.00  0.00    +0.210 HD
ENDBRANCH  14  15
ENDBRANCH   2  14
ENDBRANCH   1   2
BRANCH   1  17
ATOM     17  C   UNL     1       8.654  -2.545  26.261  0.00  0.00    +0.288 C 
BRANCH  17  18
ATOM     18  N   UNL     1       9.164  -1.862  25.088  0.00  0.00    -0.291 N 
ATOM     19  C   UNL     1       9.064  -0.523  24.826  0.00  0.00    +0.171 A 
ATOM     20  N   UNL     1       8.497   0.423  25.616  0.00  0.00    -0.196 NA
ATOM     21  C   UNL     1       8.525   1.618  25.087  0.00  0.00    +0.195 A 
ATOM     22  N   UNL     1       7.979   2.670  25.746  0.00  0.00    -0.329 N 
ATOM     23  H   UNL     1       8.377   3.586  25.589  0.00  0.00    +0.145 HD
ATOM     24  H   UNL     1       7.782   2.477  26.722  0.00  0.00    +0.145 HD
ATOM     25  N   UNL     1       9.094   1.904  23.862  0.00  0.00    -0.293 N 
ATOM     26  H   UNL     1       9.061   2.839  23.491  0.00  0.00    +0.172 HD
ATOM     27  C   UNL     1       9.669   0.966  23.020  0.00  0.00    +0.280 A 
ATOM     28  O   UNL     1      10.138   1.274  21.928  0.00  0.00    -0.265 OA
ATOM     29  C   UNL     1       9.634  -0.365  23.582  0.00  0.00    +0.172 A 
ATOM     30  N   UNL     1      10.046  -1.565  23.059  0.00  0.00    -0.229 NA
ATOM     31  C   UNL     1       9.733  -2.449  23.986  0.00  0.00    +0.203 A 
ENDBRANCH  17  18
ENDBRANCH   1  17
TORSDOF 11
ENDMDL
