MODEL 1
REMARK VINA RESULT:      -7.3      0.000      0.000
REMARK  Name = 
REMARK  16 active torsions:
REMARK  status: ('A' for Active; 'I' for Inactive)
REMARK    1  A    between atoms: C_1  and  C_2
REMARK    2  A    between atoms: C_2  and  C_4
REMARK    3  A    between atoms: C_2  and  N_10
REMARK    4  A    between atoms: C_4  and  O_6
REMARK    5  A    between atoms: O_6  and  C_7
REMARK    6  A    between atoms: C_7  and  C_8
REMARK    7  A    between atoms: C_7  and  C_9
REMARK    8  A    between atoms: N_10  and  P_11
REMARK    9  A    between atoms: P_11  and  O_13
REMARK   10  A    between atoms: P_11  and  O_34
REMARK   11  A    between atoms: O_13  and  C_14
REMARK   12  A    between atoms: C_14  and  C_15
REMARK   13  A    between atoms: C_17  and  O_33
REMARK   14  A    between atoms: C_19  and  C_31
REMARK   15  A    between atoms: C_20  and  N_23
REMARK   16  A    between atoms: O_34  and  C_35
REMARK                            x       y       z     vdW  Elec       q    Type
REMARK                         _______ _______ _______ _____ _____    ______ ____
ROOT
ATOM      1  O   UNL     1       7.322  -1.805  22.838  0.00  0.00    -0.284 OA
ENDROOT
BRANCH   1   2
ATOM      2  P   UNL     1       7.706  -0.506  23.794  0.00  0.00    +0.462 P 
ATOM      3  O   UNL     1       8.247  -1.434  24.910  0.00  0.00    -0.228 OA
BRANCH   2   4
ATOM      4  N   UNL     1       9.275  -0.096  23.318  0.00  0.00    -0.199 NA
ATOM      5  H   UNL     1       9.860  -0.919  23.444  0.00  0.00    +0.135 HD
BRANCH   4   7
ATOM      6  C   UNL     1      11.241   0.666  24.707  0.00  0.00    +0.036 C 
ATOM      7  C   UNL     1       9.915   1.030  24.037  0.00  0.00    +0.171 C 
BRANCH   7   8
ATOM      8  C   UNL     1      10.204   2.176  23.064  0.00  0.00    +0.325 C 
ATOM      9  O   UNL     1      10.198   2.078  21.843  0.00  0.00    -0.249 OA
BRANCH   8  10
ATOM     10  O   UNL     1      10.547   3.299  23.766  0.00  0.00    -0.461 OA
BRANCH  10  11
ATOM     11  C   UNL     1       9.588   4.372  23.765  0.00  0.00    +0.170 C 
ATOM     12  C   UNL     1      10.370   5.681  23.785  0.00  0.00    +0.052 C 
ATOM     13  C   UNL     1       8.699   4.267  24.998  0.00  0.00    +0.052 C 
ENDBRANCH  10  11
ENDBRANCH   8  10
ENDBRANCH   7   8
ENDBRANCH   4   7
ENDBRANCH   2   4
BRANCH   2  14
ATOM     14  O   UNL     1       7.102   0.529  22.547  0.00  0.00    -0.413 OA
BRANCH  14  15
ATOM     15  C   UNL     1       6.464   1.687  22.932  0.00  0.00    +0.131 A 
ATOM     16  C   UNL     1       6.639   2.794  22.105  0.00  0.00    +0.046 A 
ATOM     17  C   UNL     1       6.038   4.012  22.432  0.00  0.00    +0.004 A 
ATOM     18  C   UNL     1       5.268   4.127  23.588  0.00  0.00    +0.000 A 
ATOM     19  C   UNL     1       5.095   3.023  24.418  0.00  0.00    +0.004 A 
ATOM     20  C   UNL     1       5.686   1.801  24.090  0.00  0.00    +0.046 A 
ENDBRANCH  14  15
ENDBRANCH   2  14
ENDBRANCH   1   2
BRANCH   1  21
ATOM     21  C   UNL     1       7.938  -3.047  23.195  0.00  0.00    +0.206 C 
BRANCH  21  22
ATOM     22  C   UNL     1       7.310  -4.319  22.571  0.00  0.00    +0.179 C 
ATOM     23  O   UNL     1       7.261  -5.366  23.549  0.00  0.00    -0.345 OA
ATOM     24  C   UNL     1       5.883  -5.717  23.807  0.00  0.00    +0.263 C 
ATOM     25  C   UNL     1       4.995  -4.647  23.142  0.00  0.00    +0.182 C 
ATOM     26  C   UNL     1       4.552  -3.504  24.046  0.00  0.00    +0.055 C 
ATOM     27  F   UNL     1       3.861  -5.197  22.625  0.00  0.00    -0.235 F 
ATOM     28  C   UNL     1       5.898  -4.169  22.004  0.00  0.00    +0.187 C 
BRANCH  24  29
ATOM     29  N   UNL     1       5.734  -5.936  25.253  0.00  0.00    -0.271 N 
ATOM     30  C   UNL     1       4.816  -6.892  25.672  0.00  0.00    +0.331 A 
ATOM     31  O   UNL     1       4.060  -7.500  24.923  0.00  0.00    -0.246 OA
ATOM     32  N   UNL     1       4.808  -7.159  27.016  0.00  0.00    -0.275 N 
ATOM     33  H   UNL     1       4.189  -7.893  27.318  0.00  0.00    +0.173 HD
ATOM     34  C   UNL     1       5.723  -6.713  27.925  0.00  0.00    +0.254 A 
ATOM     35  O   UNL     1       5.808  -7.149  29.065  0.00  0.00    -0.268 OA
ATOM     36  C   UNL     1       6.640  -5.676  27.437  0.00  0.00    +0.088 A 
ATOM     37  C   UNL     1       6.606  -5.343  26.151  0.00  0.00    +0.098 A 
ENDBRANCH  24  29
BRANCH  28  38
ATOM     38  O   UNL     1       5.778  -5.059  20.876  0.00  0.00    -0.386 OA
ATOM     39  H   UNL     1       6.223  -5.890  21.137  0.00  0.00    +0.210 HD
ENDBRANCH  28  38
ENDBRANCH  21  22
ENDBRANCH   1  21
TORSDOF 12
ENDMDL
MODEL 2
REMARK VINA RESULT:      -7.2      1.879      2.708
REMARK  Name = 
REMARK  16 active torsions:
REMARK  status: ('A' for Active; 'I' for Inactive)
REMARK    1  A    between atoms: C_1  and  C_2
REMARK    2  A    between atoms: C_2  and  C_4
REMARK    3  A    between atoms: C_2  and  N_10
REMARK    4  A    between atoms: C_4  and  O_6
REMARK    5  A    between atoms: O_6  and  C_7
REMARK    6  A    between atoms: C_7  and  C_8
REMARK    7  A    between atoms: C_7  and  C_9
REMARK    8  A    between atoms: N_10  and  P_11
REMARK    9  A    between atoms: P_11  and  O_13
REMARK   10  A    between atoms: P_11  and  O_34
REMARK   11  A    between atoms: O_13  and  C_14
REMARK   12  A    between atoms: C_14  and  C_15
REMARK   13  A    between atoms: C_17  and  O_33
REMARK   14  A    between atoms: C_19  and  C_31
REMARK   15  A    between atoms: C_20  and  N_23
REMARK   16  A    between atoms: O_34  and  C_35
REMARK                            x       y       z     vdW  Elec       q    Type
REMARK                         _______ _______ _______ _____ _____    ______ ____
ROOT
ATOM      1  O   UNL     1       9.029  -3.402  22.643  0.00  0.00    -0.284 OA
ENDROOT
BRANCH   1   2
ATOM      2  P   UNL     1       9.446  -2.102  23.582  0.00  0.00    +0.462 P 
ATOM      3  O   UNL     1      10.786  -1.931  22.824  0.00  0.00    -0.228 OA
BRANCH   2   4
ATOM      4  N   UNL     1       8.773  -0.779  22.773  0.00  0.00    -0.199 NA
ATOM      5  H   UNL     1       8.435  -1.109  21.872  0.00  0.00    +0.135 HD
BRANCH   4   7
ATOM      6  C   UNL     1       9.166   1.330  21.442  0.00  0.00    +0.036 C 
ATOM      7  C   UNL     1       9.667   0.376  22.528  0.00  0.00    +0.171 C 
BRANCH   7   8
ATOM      8  C   UNL     1       9.823   1.199  23.810  0.00  0.00    +0.325 C 
ATOM      9  O   UNL     1      10.820   1.207  24.521  0.00  0.00    -0.249 OA
BRANCH   8  10
ATOM     10  O   UNL     1       8.654   1.855  24.080  0.00  0.00    -0.461 OA
BRANCH  10  11
ATOM     11  C   UNL     1       8.771   3.113  24.768  0.00  0.00    +0.170 C 
ATOM     12  C   UNL     1       7.419   3.407  25.411  0.00  0.00    +0.052 C 
ATOM     13  C   UNL     1       9.135   4.210  23.775  0.00  0.00    +0.052 C 
ENDBRANCH  10  11
ENDBRANCH   8  10
ENDBRANCH   7   8
ENDBRANCH   4   7
ENDBRANCH   2   4
BRANCH   2  14
ATOM     14  O   UNL     1       7.949  -2.293  24.427  0.00  0.00    -0.413 OA
BRANCH  14  15
ATOM     15  C   UNL     1       7.663  -1.394  25.429  0.00  0.00    +0.131 A 
ATOM     16  C   UNL     1       8.670  -1.170  26.366  0.00  0.00    +0.046 A 
ATOM     17  C   UNL     1       8.457  -0.285  27.424  0.00  0.00    +0.004 A 
ATOM     18  C   UNL     1       7.235   0.373  27.552  0.00  0.00    +0.000 A 
ATOM     19  C   UNL     1       6.225   0.149  26.620  0.00  0.00    +0.004 A 
ATOM     20  C   UNL     1       6.439  -0.729  25.555  0.00  0.00    +0.046 A 
ENDBRANCH  14  15
ENDBRANCH   2  14
ENDBRANCH   1   2
BRANCH   1  21
ATOM     21  C   UNL     1       7.653  -3.477  22.255  0.00  0.00    +0.206 C 
BRANCH  21  22
ATOM     22  C   UNL     1       7.072  -4.904  22.086  0.00  0.00    +0.179 C 
ATOM     23  O   UNL     1       7.239  -5.643  23.302  0.00  0.00    -0.345 OA
ATOM     24  C   UNL     1       5.940  -5.985  23.838  0.00  0.00    +0.263 C 
ATOM     25  C   UNL     1       4.884  -5.189  23.046  0.00  0.00    +0.182 C 
ATOM     26  C   UNL     1       4.452  -3.869  23.669  0.00  0.00    +0.055 C 
ATOM     27  F   UNL     1       3.751  -5.922  22.860  0.00  0.00    -0.235 F 
ATOM     28  C   UNL     1       5.593  -4.993  21.705  0.00  0.00    +0.187 C 
BRANCH  24  29
ATOM     29  N   UNL     1       5.990  -5.807  25.295  0.00  0.00    -0.271 N 
ATOM     30  C   UNL     1       5.147  -6.592  26.073  0.00  0.00    +0.331 A 
ATOM     31  O   UNL     1       4.303  -7.358  25.621  0.00  0.00    -0.246 OA
ATOM     32  N   UNL     1       5.323  -6.491  27.429  0.00  0.00    -0.275 N 
ATOM     33  H   UNL     1       4.758  -7.101  27.995  0.00  0.00    +0.173 HD
ATOM     34  C   UNL     1       6.347  -5.843  28.055  0.00  0.00    +0.254 A 
ATOM     35  O   UNL     1       6.590  -5.961  29.249  0.00  0.00    -0.268 OA
ATOM     36  C   UNL     1       7.180  -4.998  27.191  0.00  0.00    +0.088 A 
ATOM     37  C   UNL     1       6.969  -5.019  25.879  0.00  0.00    +0.098 A 
ENDBRANCH  24  29
BRANCH  28  38
ATOM     38  O   UNL     1       5.419  -6.164  20.882  0.00  0.00    -0.386 OA
ATOM     39  H   UNL     1       6.132  -6.784  21.136  0.00  0.00    +0.210 HD
ENDBRANCH  28  38
ENDBRANCH  21  22
ENDBRANCH   1  21
TORSDOF 12
ENDMDL
MODEL 3
REMARK VINA RESULT:      -7.2      2.762      8.714
REMARK  Name = 
REMARK  16 active torsions:
REMARK  status: ('A' for Active; 'I' for Inactive)
REMARK    1  A    between atoms: C_1  and  C_2
REMARK    2  A    between atoms: C_2  and  C_4
REMARK    3  A    between atoms: C_2  and  N_10
REMARK    4  A    between atoms: C_4  and  O_6
REMARK    5  A    between atoms: O_6  and  C_7
REMARK    6  A    between atoms: C_7  and  C_8
REMARK    7  A    between atoms: C_7  and  C_9
REMARK    8  A    between atoms: N_10  and  P_11
REMARK    9  A    between atoms: P_11  and  O_13
REMARK   10  A    between atoms: P_11  and  O_34
REMARK   11  A    between atoms: O_13  and  C_14
REMARK   12  A    between atoms: C_14  and  C_15
REMARK   13  A    between atoms: C_17  and  O_33
REMARK   14  A    between atoms: C_19  and  C_31
REMARK   15  A    between atoms: C_20  and  N_23
REMARK   16  A    between atoms: O_34  and  C_35
REMARK                            x       y       z     vdW  Elec       q    Type
REMARK                         _______ _______ _______ _____ _____    ______ ____
ROOT
ATOM      1  O   UNL     1       6.614  -3.472  21.993  0.00  0.00    -0.284 OA
ENDROOT
BRANCH   1   2
ATOM      2  P   UNL     1       6.247  -4.711  23.031  0.00  0.00    +0.462 P 
ATOM      3  O   UNL     1       7.533  -5.478  22.635  0.00  0.00    -0.228 OA
BRANCH   2   4
ATOM      4  N   UNL     1       6.934  -4.234  24.500  0.00  0.00    -0.199 NA
ATOM      5  H   UNL     1       7.556  -3.452  24.308  0.00  0.00    +0.135 HD
BRANCH   4   7
ATOM      6  C   UNL     1       9.133  -4.830  25.586  0.00  0.00    +0.036 C 
ATOM      7  C   UNL     1       7.708  -5.260  25.236  0.00  0.00    +0.171 C 
BRANCH   7   8
ATOM      8  C   UNL     1       7.005  -5.601  26.553  0.00  0.00    +0.325 C 
ATOM      9  O   UNL     1       7.563  -5.709  27.638  0.00  0.00    -0.249 OA
BRANCH   8  10
ATOM     10  O   UNL     1       5.680  -5.844  26.317  0.00  0.00    -0.461 OA
BRANCH  10  11
ATOM     11  C   UNL     1       4.797  -5.722  27.446  0.00  0.00    +0.170 C 
ATOM     12  C   UNL     1       3.593  -6.621  27.181  0.00  0.00    +0.052 C 
ATOM     13  C   UNL     1       4.353  -4.272  27.597  0.00  0.00    +0.052 C 
ENDBRANCH  10  11
ENDBRANCH   8  10
ENDBRANCH   7   8
ENDBRANCH   4   7
ENDBRANCH   2   4
BRANCH   2  14
ATOM     14  O   UNL     1       4.812  -3.852  23.472  0.00  0.00    -0.413 OA
BRANCH  14  15
ATOM     15  C   UNL     1       3.678  -4.592  23.726  0.00  0.00    +0.131 A 
ATOM     16  C   UNL     1       3.636  -5.869  23.171  0.00  0.00    +0.046 A 
ATOM     17  C   UNL     1       2.516  -6.680  23.367  0.00  0.00    +0.004 A 
ATOM     18  C   UNL     1       1.434  -6.214  24.112  0.00  0.00    +0.000 A 
ATOM     19  C   UNL     1       1.473  -4.937  24.665  0.00  0.00    +0.004 A 
ATOM     20  C   UNL     1       2.595  -4.127  24.479  0.00  0.00    +0.046 A 
ENDBRANCH  14  15
ENDBRANCH   2  14
ENDBRANCH   1   2
BRANCH   1  21
ATOM     21  C   UNL     1       7.098  -2.269  22.603  0.00  0.00    +0.206 C 
BRANCH  21  22
ATOM     22  C   UNL     1       8.571  -1.899  22.296  0.00  0.00    +0.179 C 
ATOM     23  O   UNL     1       8.635  -0.579  21.743  0.00  0.00    -0.345 OA
ATOM     24  C   UNL     1       9.387   0.278  22.632  0.00  0.00    +0.263 C 
ATOM     25  C   UNL     1       9.590  -0.486  23.955  0.00  0.00    +0.182 C 
ATOM     26  C   UNL     1       8.565  -0.200  25.044  0.00  0.00    +0.055 C 
ATOM     27  F   UNL     1      10.814  -0.224  24.493  0.00  0.00    -0.235 F 
ATOM     28  C   UNL     1       9.540  -1.938  23.479  0.00  0.00    +0.187 C 
BRANCH  24  29
ATOM     29  N   UNL     1       8.711   1.582  22.684  0.00  0.00    -0.271 N 
ATOM     30  C   UNL     1       9.477   2.696  23.004  0.00  0.00    +0.331 A 
ATOM     31  O   UNL     1      10.657   2.654  23.332  0.00  0.00    -0.246 OA
ATOM     32  N   UNL     1       8.837   3.905  22.907  0.00  0.00    -0.275 N 
ATOM     33  H   UNL     1       9.403   4.720  23.078  0.00  0.00    +0.173 HD
ATOM     34  C   UNL     1       7.604   4.115  22.364  0.00  0.00    +0.254 A 
ATOM     35  O   UNL     1       7.165   5.226  22.097  0.00  0.00    -0.268 OA
ATOM     36  C   UNL     1       6.825   2.903  22.084  0.00  0.00    +0.088 A 
ATOM     37  C   UNL     1       7.402   1.717  22.251  0.00  0.00    +0.098 A 
ENDBRANCH  24  29
BRANCH  28  38
ATOM     38  O   UNL     1      10.832  -2.335  22.979  0.00  0.00    -0.386 OA
ATOM     39  H   UNL     1      11.493  -1.897  23.552  0.00  0.00    +0.210 HD
ENDBRANCH  28  38
ENDBRANCH  21  22
ENDBRANCH   1  21
TORSDOF 12
ENDMDL
MODEL 4
REMARK VINA RESULT:      -7.1      2.120      4.009
REMARK  Name = 
REMARK  16 active torsions:
REMARK  status: ('A' for Active; 'I' for Inactive)
REMARK    1  A    between atoms: C_1  and  C_2
REMARK    2  A    between atoms: C_2  and  C_4
REMARK    3  A    between atoms: C_2  and  N_10
REMARK    4  A    between atoms: C_4  and  O_6
REMARK    5  A    between atoms: O_6  and  C_7
REMARK    6  A    between atoms: C_7  and  C_8
REMARK    7  A    between atoms: C_7  and  C_9
REMARK    8  A    between atoms: N_10  and  P_11
REMARK    9  A    between atoms: P_11  and  O_13
REMARK   10  A    between atoms: P_11  and  O_34
REMARK   11  A    between atoms: O_13  and  C_14
REMARK   12  A    between atoms: C_14  and  C_15
REMARK   13  A    between atoms: C_17  and  O_33
REMARK   14  A    between atoms: C_19  and  C_31
REMARK   15  A    between atoms: C_20  and  N_23
REMARK   16  A    between atoms: O_34  and  C_35
REMARK                            x       y       z     vdW  Elec       q    Type
REMARK                         _______ _______ _______ _____ _____    ______ ____
ROOT
ATOM      1  O   UNL     1       6.432  -0.812  26.406  0.00  0.00    -0.284 OA
ENDROOT
BRANCH   1   2
ATOM      2  P   UNL     1       7.668  -0.028  25.630  0.00  0.00    +0.462 P 
ATOM      3  O   UNL     1       8.723  -0.695  26.547  0.00  0.00    -0.228 OA
BRANCH   2   4
ATOM      4  N   UNL     1       8.069  -1.059  24.351  0.00  0.00    -0.199 NA
ATOM      5  H   UNL     1       7.417  -1.839  24.369  0.00  0.00    +0.135 HD
BRANCH   4   7
ATOM      6  C   UNL     1       9.495  -3.141  24.284  0.00  0.00    +0.036 C 
ATOM      7  C   UNL     1       9.443  -1.613  24.351  0.00  0.00    +0.171 C 
BRANCH   7   8
ATOM      8  C   UNL     1      10.221  -1.085  23.144  0.00  0.00    +0.325 C 
ATOM      9  O   UNL     1      10.736  -1.784  22.280  0.00  0.00    -0.249 OA
BRANCH   8  10
ATOM     10  O   UNL     1      10.321   0.277  23.222  0.00  0.00    -0.461 OA
BRANCH  10  11
ATOM     11  C   UNL     1      10.166   1.001  21.988  0.00  0.00    +0.170 C 
ATOM     12  C   UNL     1      10.291   2.486  22.314  0.00  0.00    +0.052 C 
ATOM     13  C   UNL     1       8.797   0.704  21.387  0.00  0.00    +0.052 C 
ENDBRANCH  10  11
ENDBRANCH   8  10
ENDBRANCH   7   8
ENDBRANCH   4   7
ENDBRANCH   2   4
BRANCH   2  14
ATOM     14  O   UNL     1       6.489   0.715  24.605  0.00  0.00    -0.413 OA
BRANCH  14  15
ATOM     15  C   UNL     1       6.750   1.990  24.154  0.00  0.00    +0.131 A 
ATOM     16  C   UNL     1       7.596   2.765  24.943  0.00  0.00    +0.046 A 
ATOM     17  C   UNL     1       7.900   4.074  24.566  0.00  0.00    +0.004 A 
ATOM     18  C   UNL     1       7.352   4.614  23.403  0.00  0.00    +0.000 A 
ATOM     19  C   UNL     1       6.503   3.843  22.614  0.00  0.00    +0.004 A 
ATOM     20  C   UNL     1       6.205   2.530  22.983  0.00  0.00    +0.046 A 
ENDBRANCH  14  15
ENDBRANCH   2  14
ENDBRANCH   1   2
BRANCH   1  21
ATOM     21  C   UNL     1       6.710  -2.151  26.832  0.00  0.00    +0.206 C 
BRANCH  21  22
ATOM     22  C   UNL     1       5.482  -3.082  26.991  0.00  0.00    +0.179 C 
ATOM     23  O   UNL     1       4.978  -3.445  25.699  0.00  0.00    -0.345 OA
ATOM     24  C   UNL     1       5.100  -4.874  25.521  0.00  0.00    +0.263 C 
ATOM     25  C   UNL     1       5.975  -5.415  26.669  0.00  0.00    +0.182 C 
ATOM     26  C   UNL     1       7.458  -5.558  26.355  0.00  0.00    +0.055 C 
ATOM     27  F   UNL     1       5.544  -6.639  27.084  0.00  0.00    -0.235 F 
ATOM     28  C   UNL     1       5.712  -4.381  27.765  0.00  0.00    +0.187 C 
BRANCH  24  29
ATOM     29  N   UNL     1       5.541  -5.123  24.142  0.00  0.00    -0.271 N 
ATOM     30  C   UNL     1       5.195  -6.336  23.560  0.00  0.00    +0.331 A 
ATOM     31  O   UNL     1       4.626  -7.249  24.148  0.00  0.00    -0.246 OA
ATOM     32  N   UNL     1       5.508  -6.470  22.231  0.00  0.00    -0.275 N 
ATOM     33  H   UNL     1       5.206  -7.322  21.789  0.00  0.00    +0.173 HD
ATOM     34  C   UNL     1       5.949  -5.473  21.411  0.00  0.00    +0.254 A 
ATOM     35  O   UNL     1       6.005  -5.578  20.193  0.00  0.00    -0.268 OA
ATOM     36  C   UNL     1       6.337  -4.229  22.085  0.00  0.00    +0.088 A 
ATOM     37  C   UNL     1       6.118  -4.111  23.390  0.00  0.00    +0.098 A 
ENDBRANCH  24  29
BRANCH  28  38
ATOM     38  O   UNL     1       4.490  -4.703  28.460  0.00  0.00    -0.386 OA
ATOM     39  H   UNL     1       3.762  -4.355  27.906  0.00  0.00    +0.210 HD
ENDBRANCH  28  38
ENDBRANCH  21  22
ENDBRANCH   1  21
TORSDOF 12
ENDMDL
MODEL 5
REMARK VINA RESULT:      -7.1      1.744      2.546
REMARK  Name = 
REMARK  16 active torsions:
REMARK  status: ('A' for Active; 'I' for Inactive)
REMARK    1  A    between atoms: C_1  and  C_2
REMARK    2  A    between atoms: C_2  and  C_4
REMARK    3  A    between atoms: C_2  and  N_10
REMARK    4  A    between atoms: C_4  and  O_6
REMARK    5  A    between atoms: O_6  and  C_7
REMARK    6  A    between atoms: C_7  and  C_8
REMARK    7  A    between atoms: C_7  and  C_9
REMARK    8  A    between atoms: N_10  and  P_11
REMARK    9  A    between atoms: P_11  and  O_13
REMARK   10  A    between atoms: P_11  and  O_34
REMARK   11  A    between atoms: O_13  and  C_14
REMARK   12  A    between atoms: C_14  and  C_15
REMARK   13  A    between atoms: C_17  and  O_33
REMARK   14  A    between atoms: C_19  and  C_31
REMARK   15  A    between atoms: C_20  and  N_23
REMARK   16  A    between atoms: O_34  and  C_35
REMARK                            x       y       z     vdW  Elec       q    Type
REMARK                         _______ _______ _______ _____ _____    ______ ____
ROOT
ATOM      1  O   UNL     1       8.864  -2.581  23.790  0.00  0.00    -0.284 OA
ENDROOT
BRANCH   1   2
ATOM      2  P   UNL     1       8.992  -1.160  24.631  0.00  0.00    +0.462 P 
ATOM      3  O   UNL     1      10.485  -1.016  24.244  0.00  0.00    -0.228 OA
BRANCH   2   4
ATOM      4  N   UNL     1       8.545   0.024  23.510  0.00  0.00    -0.199 NA
ATOM      5  H   UNL     1       8.468  -0.428  22.602  0.00  0.00    +0.135 HD
BRANCH   4   7
ATOM      6  C   UNL     1       9.803   1.523  21.916  0.00  0.00    +0.036 C 
ATOM      7  C   UNL     1       9.457   1.182  23.367  0.00  0.00    +0.171 C 
BRANCH   7   8
ATOM      8  C   UNL     1       8.819   2.430  23.981  0.00  0.00    +0.325 C 
ATOM      9  O   UNL     1       8.544   2.566  25.167  0.00  0.00    -0.249 OA
BRANCH   8  10
ATOM     10  O   UNL     1       8.531   3.332  22.994  0.00  0.00    -0.461 OA
BRANCH  10  11
ATOM     11  C   UNL     1       7.217   3.920  23.029  0.00  0.00    +0.170 C 
ATOM     12  C   UNL     1       6.256   2.924  22.387  0.00  0.00    +0.052 C 
ATOM     13  C   UNL     1       7.221   5.230  22.251  0.00  0.00    +0.052 C 
ENDBRANCH  10  11
ENDBRANCH   8  10
ENDBRANCH   7   8
ENDBRANCH   4   7
ENDBRANCH   2   4
BRANCH   2  14
ATOM     14  O   UNL     1       7.325  -1.320  25.063  0.00  0.00    -0.413 OA
BRANCH  14  15
ATOM     15  C   UNL     1       6.782  -0.355  25.881  0.00  0.00    +0.131 A 
ATOM     16  C   UNL     1       7.421  -0.147  27.101  0.00  0.00    +0.046 A 
ATOM     17  C   UNL     1       6.926   0.802  27.997  0.00  0.00    +0.004 A 
ATOM     18  C   UNL     1       5.788   1.541  27.678  0.00  0.00    +0.000 A 
ATOM     19  C   UNL     1       5.145   1.333  26.461  0.00  0.00    +0.004 A 
ATOM     20  C   UNL     1       5.643   0.391  25.558  0.00  0.00    +0.046 A 
ENDBRANCH  14  15
ENDBRANCH   2  14
ENDBRANCH   1   2
BRANCH   1  21
ATOM     21  C   UNL     1       8.023  -2.547  22.631  0.00  0.00    +0.206 C 
BRANCH  21  22
ATOM     22  C   UNL     1       7.444  -3.910  22.172  0.00  0.00    +0.179 C 
ATOM     23  O   UNL     1       7.594  -4.877  23.219  0.00  0.00    -0.345 OA
ATOM     24  C   UNL     1       6.287  -5.316  23.657  0.00  0.00    +0.263 C 
ATOM     25  C   UNL     1       5.243  -4.374  23.026  0.00  0.00    +0.182 C 
ATOM     26  C   UNL     1       4.802  -3.203  23.894  0.00  0.00    +0.055 C 
ATOM     27  F   UNL     1       4.112  -5.052  22.682  0.00  0.00    -0.235 F 
ATOM     28  C   UNL     1       5.971  -3.917  21.761  0.00  0.00    +0.187 C 
BRANCH  24  29
ATOM     29  N   UNL     1       6.316  -5.432  25.122  0.00  0.00    -0.271 N 
ATOM     30  C   UNL     1       5.434  -6.325  25.718  0.00  0.00    +0.331 A 
ATOM     31  O   UNL     1       4.574  -6.956  25.114  0.00  0.00    -0.246 OA
ATOM     32  N   UNL     1       5.589  -6.501  27.069  0.00  0.00    -0.275 N 
ATOM     33  H   UNL     1       4.994  -7.192  27.496  0.00  0.00    +0.173 HD
ATOM     34  C   UNL     1       6.622  -6.027  27.823  0.00  0.00    +0.254 A 
ATOM     35  O   UNL     1       6.839  -6.389  28.972  0.00  0.00    -0.268 OA
ATOM     36  C   UNL     1       7.496  -5.057  27.154  0.00  0.00    +0.088 A 
ATOM     37  C   UNL     1       7.309  -4.811  25.861  0.00  0.00    +0.098 A 
ENDBRANCH  24  29
BRANCH  28  38
ATOM     38  O   UNL     1       5.808  -4.899  20.719  0.00  0.00    -0.386 OA
ATOM     39  H   UNL     1       5.827  -5.771  21.161  0.00  0.00    +0.210 HD
ENDBRANCH  28  38
ENDBRANCH  21  22
ENDBRANCH   1  21
TORSDOF 12
ENDMDL
MODEL 6
REMARK VINA RESULT:      -7.1      2.524      3.999
REMARK  Name = 
REMARK  16 active torsions:
REMARK  status: ('A' for Active; 'I' for Inactive)
REMARK    1  A    between atoms: C_1  and  C_2
REMARK    2  A    between atoms: C_2  and  C_4
REMARK    3  A    between atoms: C_2  and  N_10
REMARK    4  A    between atoms: C_4  and  O_6
REMARK    5  A    between atoms: O_6  and  C_7
REMARK    6  A    between atoms: C_7  and  C_8
REMARK    7  A    between atoms: C_7  and  C_9
REMARK    8  A    between atoms: N_10  and  P_11
REMARK    9  A    between atoms: P_11  and  O_13
REMARK   10  A    between atoms: P_11  and  O_34
REMARK   11  A    between atoms: O_13  and  C_14
REMARK   12  A    between atoms: C_14  and  C_15
REMARK   13  A    between atoms: C_17  and  O_33
REMARK   14  A    between atoms: C_19  and  C_31
REMARK   15  A    between atoms: C_20  and  N_23
REMARK   16  A    between atoms: O_34  and  C_35
REMARK                            x       y       z     vdW  Elec       q    Type
REMARK                         _______ _______ _______ _____ _____    ______ ____
ROOT
ATOM      1  O   UNL     1       8.699  -0.920  26.634  0.00  0.00    -0.284 OA
ENDROOT
BRANCH   1   2
ATOM      2  P   UNL     1       7.562   0.207  26.205  0.00  0.00    +0.462 P 
ATOM      3  O   UNL     1       6.430  -0.626  26.856  0.00  0.00    -0.228 OA
BRANCH   2   4
ATOM      4  N   UNL     1       7.558   1.298  27.497  0.00  0.00    -0.199 NA
ATOM      5  H   UNL     1       7.491   0.757  28.356  0.00  0.00    +0.135 HD
BRANCH   4   7
ATOM      6  C   UNL     1       5.795   2.470  28.871  0.00  0.00    +0.036 C 
ATOM      7  C   UNL     1       6.475   2.308  27.510  0.00  0.00    +0.171 C 
BRANCH   7   8
ATOM      8  C   UNL     1       7.032   3.679  27.121  0.00  0.00    +0.325 C 
ATOM      9  O   UNL     1       7.465   4.510  27.909  0.00  0.00    -0.249 OA
BRANCH   8  10
ATOM     10  O   UNL     1       6.897   3.864  25.773  0.00  0.00    -0.461 OA
BRANCH  10  11
ATOM     11  C   UNL     1       7.442   5.084  25.237  0.00  0.00    +0.170 C 
ATOM     12  C   UNL     1       6.577   5.482  24.045  0.00  0.00    +0.052 C 
ATOM     13  C   UNL     1       8.881   4.852  24.793  0.00  0.00    +0.052 C 
ENDBRANCH  10  11
ENDBRANCH   8  10
ENDBRANCH   7   8
ENDBRANCH   4   7
ENDBRANCH   2   4
BRANCH   2  14
ATOM     14  O   UNL     1       8.827   1.137  25.480  0.00  0.00    -0.413 OA
BRANCH  14  15
ATOM     15  C   UNL     1       8.825   1.256  24.108  0.00  0.00    +0.131 A 
ATOM     16  C   UNL     1       7.577   1.366  23.498  0.00  0.00    +0.046 A 
ATOM     17  C   UNL     1       7.485   1.475  22.110  0.00  0.00    +0.004 A 
ATOM     18  C   UNL     1       8.638   1.467  21.327  0.00  0.00    +0.000 A 
ATOM     19  C   UNL     1       9.886   1.353  21.933  0.00  0.00    +0.004 A 
ATOM     20  C   UNL     1       9.983   1.253  23.322  0.00  0.00    +0.046 A 
ENDBRANCH  14  15
ENDBRANCH   2  14
ENDBRANCH   1   2
BRANCH   1  21
ATOM     21  C   UNL     1       8.329  -2.289  26.432  0.00  0.00    +0.206 C 
BRANCH  21  22
ATOM     22  C   UNL     1       9.050  -3.022  25.273  0.00  0.00    +0.179 C 
ATOM     23  O   UNL     1       8.493  -4.332  25.106  0.00  0.00    -0.345 OA
ATOM     24  C   UNL     1       7.885  -4.432  23.798  0.00  0.00    +0.263 C 
ATOM     25  C   UNL     1       7.827  -3.012  23.200  0.00  0.00    +0.182 C 
ATOM     26  C   UNL     1       6.519  -2.262  23.412  0.00  0.00    +0.055 C 
ATOM     27  F   UNL     1       8.051  -3.033  21.856  0.00  0.00    -0.235 F 
ATOM     28  C   UNL     1       9.004  -2.337  23.905  0.00  0.00    +0.187 C 
BRANCH  24  29
ATOM     29  N   UNL     1       6.624  -5.173  23.940  0.00  0.00    -0.271 N 
ATOM     30  C   UNL     1       6.171  -5.896  22.843  0.00  0.00    +0.331 A 
ATOM     31  O   UNL     1       6.704  -5.886  21.739  0.00  0.00    -0.246 OA
ATOM     32  N   UNL     1       5.068  -6.680  23.062  0.00  0.00    -0.275 N 
ATOM     33  H   UNL     1       4.771  -7.252  22.289  0.00  0.00    +0.173 HD
ATOM     34  C   UNL     1       4.503  -6.943  24.275  0.00  0.00    +0.254 A 
ATOM     35  O   UNL     1       3.663  -7.815  24.453  0.00  0.00    -0.268 OA
ATOM     36  C   UNL     1       4.992  -6.122  25.389  0.00  0.00    +0.088 A 
ATOM     37  C   UNL     1       6.010  -5.294  25.176  0.00  0.00    +0.098 A 
ENDBRANCH  24  29
BRANCH  28  38
ATOM     38  O   UNL     1      10.232  -2.645  23.216  0.00  0.00    -0.386 OA
ATOM     39  H   UNL     1       9.990  -3.250  22.486  0.00  0.00    +0.210 HD
ENDBRANCH  28  38
ENDBRANCH  21  22
ENDBRANCH   1  21
TORSDOF 12
ENDMDL
MODEL 7
REMARK VINA RESULT:      -7.0      2.721      8.517
REMARK  Name = 
REMARK  16 active torsions:
REMARK  status: ('A' for Active; 'I' for Inactive)
REMARK    1  A    between atoms: C_1  and  C_2
REMARK    2  A    between atoms: C_2  and  C_4
REMARK    3  A    between atoms: C_2  and  N_10
REMARK    4  A    between atoms: C_4  and  O_6
REMARK    5  A    between atoms: O_6  and  C_7
REMARK    6  A    between atoms: C_7  and  C_8
REMARK    7  A    between atoms: C_7  and  C_9
REMARK    8  A    between atoms: N_10  and  P_11
REMARK    9  A    between atoms: P_11  and  O_13
REMARK   10  A    between atoms: P_11  and  O_34
REMARK   11  A    between atoms: O_13  and  C_14
REMARK   12  A    between atoms: C_14  and  C_15
REMARK   13  A    between atoms: C_17  and  O_33
REMARK   14  A    between atoms: C_19  and  C_31
REMARK   15  A    between atoms: C_20  and  N_23
REMARK   16  A    between atoms: O_34  and  C_35
REMARK                            x       y       z     vdW  Elec       q    Type
REMARK                         _______ _______ _______ _____ _____    ______ ____
ROOT
ATOM      1  O   UNL     1       7.782  -2.404  25.687  0.00  0.00    -0.284 OA
ENDROOT
BRANCH   1   2
ATOM      2  P   UNL     1       7.168  -3.915  25.979  0.00  0.00    +0.462 P 
ATOM      3  O   UNL     1       8.185  -4.153  27.123  0.00  0.00    -0.228 OA
BRANCH   2   4
ATOM      4  N   UNL     1       5.922  -3.644  27.089  0.00  0.00    -0.199 NA
ATOM      5  H   UNL     1       6.120  -2.767  27.566  0.00  0.00    +0.135 HD
BRANCH   4   7
ATOM      6  C   UNL     1       4.651  -4.324  29.162  0.00  0.00    +0.036 C 
ATOM      7  C   UNL     1       5.713  -4.686  28.121  0.00  0.00    +0.171 C 
BRANCH   7   8
ATOM      8  C   UNL     1       5.268  -5.994  27.463  0.00  0.00    +0.325 C 
ATOM      9  O   UNL     1       5.773  -7.090  27.668  0.00  0.00    -0.249 OA
BRANCH   8  10
ATOM     10  O   UNL     1       4.278  -5.737  26.554  0.00  0.00    -0.461 OA
BRANCH  10  11
ATOM     11  C   UNL     1       3.568  -6.879  26.043  0.00  0.00    +0.170 C 
ATOM     12  C   UNL     1       3.934  -7.019  24.568  0.00  0.00    +0.052 C 
ATOM     13  C   UNL     1       2.067  -6.663  26.198  0.00  0.00    +0.052 C 
ENDBRANCH  10  11
ENDBRANCH   8  10
ENDBRANCH   7   8
ENDBRANCH   4   7
ENDBRANCH   2   4
BRANCH   2  14
ATOM     14  O   UNL     1       6.032  -3.647  24.703  0.00  0.00    -0.413 OA
BRANCH  14  15
ATOM     15  C   UNL     1       6.233  -4.320  23.518  0.00  0.00    +0.131 A 
ATOM     16  C   UNL     1       7.164  -5.356  23.545  0.00  0.00    +0.046 A 
ATOM     17  C   UNL     1       7.439  -6.079  22.383  0.00  0.00    +0.004 A 
ATOM     18  C   UNL     1       6.791  -5.763  21.190  0.00  0.00    +0.000 A 
ATOM     19  C   UNL     1       5.864  -4.725  21.159  0.00  0.00    +0.004 A 
ATOM     20  C   UNL     1       5.578  -4.006  22.322  0.00  0.00    +0.046 A 
ENDBRANCH  14  15
ENDBRANCH   2  14
ENDBRANCH   1   2
BRANCH   1  21
ATOM     21  C   UNL     1       9.065  -2.363  25.051  0.00  0.00    +0.206 C 
BRANCH  21  22
ATOM     22  C   UNL     1       9.060  -2.051  23.533  0.00  0.00    +0.179 C 
ATOM     23  O   UNL     1       7.856  -1.356  23.185  0.00  0.00    -0.345 OA
ATOM     24  C   UNL     1       8.188  -0.036  22.696  0.00  0.00    +0.263 C 
ATOM     25  C   UNL     1       9.679   0.213  23.000  0.00  0.00    +0.182 C 
ATOM     26  C   UNL     1       9.971   0.954  24.297  0.00  0.00    +0.055 C 
ATOM     27  F   UNL     1      10.273   0.924  22.001  0.00  0.00    -0.235 F 
ATOM     28  C   UNL     1      10.229  -1.214  23.010  0.00  0.00    +0.187 C 
BRANCH  24  29
ATOM     29  N   UNL     1       7.205   0.909  23.243  0.00  0.00    -0.271 N 
ATOM     30  C   UNL     1       6.919   2.048  22.500  0.00  0.00    +0.331 A 
ATOM     31  O   UNL     1       7.496   2.362  21.465  0.00  0.00    -0.246 OA
ATOM     32  N   UNL     1       5.900   2.831  22.979  0.00  0.00    -0.275 N 
ATOM     33  H   UNL     1       5.648   3.624  22.413  0.00  0.00    +0.173 HD
ATOM     34  C   UNL     1       5.048   2.500  23.991  0.00  0.00    +0.254 A 
ATOM     35  O   UNL     1       4.024   3.122  24.240  0.00  0.00    -0.268 OA
ATOM     36  C   UNL     1       5.421   1.311  24.766  0.00  0.00    +0.088 A 
ATOM     37  C   UNL     1       6.459   0.584  24.365  0.00  0.00    +0.098 A 
ENDBRANCH  24  29
BRANCH  28  38
ATOM     38  O   UNL     1      10.510  -1.642  21.663  0.00  0.00    -0.386 OA
ATOM     39  H   UNL     1       9.708  -2.109  21.353  0.00  0.00    +0.210 HD
ENDBRANCH  28  38
ENDBRANCH  21  22
ENDBRANCH   1  21
TORSDOF 12
ENDMDL
MODEL 8
REMARK VINA RESULT:      -7.0      3.086      8.294
REMARK  Name = 
REMARK  16 active torsions:
REMARK  status: ('A' for Active; 'I' for Inactive)
REMARK    1  A    between atoms: C_1  and  C_2
REMARK    2  A    between atoms: C_2  and  C_4
REMARK    3  A    between atoms: C_2  and  N_10
REMARK    4  A    between atoms: C_4  and  O_6
REMARK    5  A    between atoms: O_6  and  C_7
REMARK    6  A    between atoms: C_7  and  C_8
REMARK    7  A    between atoms: C_7  and  C_9
REMARK    8  A    between atoms: N_10  and  P_11
REMARK    9  A    between atoms: P_11  and  O_13
REMARK   10  A    between atoms: P_11  and  O_34
REMARK   11  A    between atoms: O_13  and  C_14
REMARK   12  A    between atoms: C_14  and  C_15
REMARK   13  A    between atoms: C_17  and  O_33
REMARK   14  A    between atoms: C_19  and  C_31
REMARK   15  A    between atoms: C_20  and  N_23
REMARK   16  A    between atoms: O_34  and  C_35
REMARK                            x       y       z     vdW  Elec       q    Type
REMARK                         _______ _______ _______ _____ _____    ______ ____
ROOT
ATOM      1  O   UNL     1       8.182  -2.282  21.909  0.00  0.00    -0.284 OA
ENDROOT
BRANCH   1   2
ATOM      2  P   UNL     1       6.896  -2.777  22.829  0.00  0.00    +0.462 P 
ATOM      3  O   UNL     1       5.928  -2.634  21.628  0.00  0.00    -0.228 OA
BRANCH   2   4
ATOM      4  N   UNL     1       6.904  -4.460  22.674  0.00  0.00    -0.199 NA
ATOM      5  H   UNL     1       7.730  -4.715  22.139  0.00  0.00    +0.135 HD
BRANCH   4   7
ATOM      6  C   UNL     1       6.084  -6.077  20.918  0.00  0.00    +0.036 C 
ATOM      7  C   UNL     1       5.727  -5.073  22.016  0.00  0.00    +0.171 C 
BRANCH   7   8
ATOM      8  C   UNL     1       4.879  -5.820  23.048  0.00  0.00    +0.325 C 
ATOM      9  O   UNL     1       5.322  -6.409  24.026  0.00  0.00    -0.249 OA
BRANCH   8  10
ATOM     10  O   UNL     1       3.566  -5.796  22.667  0.00  0.00    -0.461 OA
BRANCH  10  11
ATOM     11  C   UNL     1       2.602  -5.555  23.709  0.00  0.00    +0.170 C 
ATOM     12  C   UNL     1       1.225  -5.511  23.053  0.00  0.00    +0.052 C 
ATOM     13  C   UNL     1       2.906  -4.228  24.393  0.00  0.00    +0.052 C 
ENDBRANCH  10  11
ENDBRANCH   8  10
ENDBRANCH   7   8
ENDBRANCH   4   7
ENDBRANCH   2   4
BRANCH   2  14
ATOM     14  O   UNL     1       7.978  -2.937  24.169  0.00  0.00    -0.413 OA
BRANCH  14  15
ATOM     15  C   UNL     1       7.517  -3.598  25.285  0.00  0.00    +0.131 A 
ATOM     16  C   UNL     1       8.365  -4.561  25.828  0.00  0.00    +0.046 A 
ATOM     17  C   UNL     1       7.968  -5.289  26.951  0.00  0.00    +0.004 A 
ATOM     18  C   UNL     1       6.721  -5.061  27.530  0.00  0.00    +0.000 A 
ATOM     19  C   UNL     1       5.870  -4.102  26.988  0.00  0.00    +0.004 A 
ATOM     20  C   UNL     1       6.268  -3.365  25.870  0.00  0.00    +0.046 A 
ENDBRANCH  14  15
ENDBRANCH   2  14
ENDBRANCH   1   2
BRANCH   1  21
ATOM     21  C   UNL     1       9.079  -1.356  22.534  0.00  0.00    +0.206 C 
BRANCH  21  22
ATOM     22  C   UNL     1       8.802   0.144  22.263  0.00  0.00    +0.179 C 
ATOM     23  O   UNL     1       7.857   0.644  23.217  0.00  0.00    -0.345 OA
ATOM     24  C   UNL     1       8.482   1.671  24.019  0.00  0.00    +0.263 C 
ATOM     25  C   UNL     1       9.995   1.638  23.726  0.00  0.00    +0.182 C 
ATOM     26  C   UNL     1      10.833   0.807  24.687  0.00  0.00    +0.055 C 
ATOM     27  F   UNL     1      10.526   2.892  23.728  0.00  0.00    -0.235 F 
ATOM     28  C   UNL     1      10.016   1.075  22.304  0.00  0.00    +0.187 C 
BRANCH  24  29
ATOM     29  N   UNL     1       8.045   1.489  25.410  0.00  0.00    -0.271 N 
ATOM     30  C   UNL     1       7.759   2.628  26.154  0.00  0.00    +0.331 A 
ATOM     31  O   UNL     1       7.933   3.775  25.757  0.00  0.00    -0.246 OA
ATOM     32  N   UNL     1       7.226   2.408  27.398  0.00  0.00    -0.275 N 
ATOM     33  H   UNL     1       6.961   3.229  27.917  0.00  0.00    +0.173 HD
ATOM     34  C   UNL     1       6.793   1.208  27.880  0.00  0.00    +0.254 A 
ATOM     35  O   UNL     1       6.126   1.092  28.900  0.00  0.00    -0.268 OA
ATOM     36  C   UNL     1       7.158   0.037  27.074  0.00  0.00    +0.088 A 
ATOM     37  C   UNL     1       7.752   0.227  25.900  0.00  0.00    +0.098 A 
ENDBRANCH  24  29
BRANCH  28  38
ATOM     38  O   UNL     1       9.791   2.135  21.353  0.00  0.00    -0.386 OA
ATOM     39  H   UNL     1       9.121   1.799  20.725  0.00  0.00    +0.210 HD
ENDBRANCH  28  38
ENDBRANCH  21  22
ENDBRANCH   1  21
TORSDOF 12
ENDMDL
MODEL 9
REMARK VINA RESULT:      -7.0      2.900      5.691
REMARK  Name = 
REMARK  16 active torsions:
REMARK  status: ('A' for Active; 'I' for Inactive)
REMARK    1  A    between atoms: C_1  and  C_2
REMARK    2  A    between atoms: C_2  and  C_4
REMARK    3  A    between atoms: C_2  and  N_10
REMARK    4  A    between atoms: C_4  and  O_6
REMARK    5  A    between atoms: O_6  and  C_7
REMARK    6  A    between atoms: C_7  and  C_8
REMARK    7  A    between atoms: C_7  and  C_9
REMARK    8  A    between atoms: N_10  and  P_11
REMARK    9  A    between atoms: P_11  and  O_13
REMARK   10  A    between atoms: P_11  and  O_34
REMARK   11  A    between atoms: O_13  and  C_14
REMARK   12  A    between atoms: C_14  and  C_15
REMARK   13  A    between atoms: C_17  and  O_33
REMARK   14  A    between atoms: C_19  and  C_31
REMARK   15  A    between atoms: C_20  and  N_23
REMARK   16  A    between atoms: O_34  and  C_35
REMARK                            x       y       z     vdW  Elec       q    Type
REMARK                         _______ _______ _______ _____ _____    ______ ____
ROOT
ATOM      1  O   UNL     1       6.951   2.087  23.952  0.00  0.00    -0.284 OA
ENDROOT
BRANCH   1   2
ATOM      2  P   UNL     1       7.467   2.903  22.605  0.00  0.00    +0.462 P 
ATOM      3  O   UNL     1       7.067   1.722  21.686  0.00  0.00    -0.228 OA
BRANCH   2   4
ATOM      4  N   UNL     1       6.114   3.793  22.121  0.00  0.00    -0.199 NA
ATOM      5  H   UNL     1       6.450   4.645  21.678  0.00  0.00    +0.135 HD
BRANCH   4   7
ATOM      6  C   UNL     1       4.647   5.616  23.067  0.00  0.00    +0.036 C 
ATOM      7  C   UNL     1       5.157   4.178  23.184  0.00  0.00    +0.171 C 
BRANCH   7   8
ATOM      8  C   UNL     1       3.931   3.263  23.142  0.00  0.00    +0.325 C 
ATOM      9  O   UNL     1       3.567   2.536  24.058  0.00  0.00    -0.249 OA
BRANCH   8  10
ATOM     10  O   UNL     1       3.356   3.321  21.902  0.00  0.00    -0.461 OA
BRANCH  10  11
ATOM     11  C   UNL     1       1.931   3.129  21.849  0.00  0.00    +0.170 C 
ATOM     12  C   UNL     1       1.612   2.461  20.515  0.00  0.00    +0.052 C 
ATOM     13  C   UNL     1       1.227   4.477  21.949  0.00  0.00    +0.052 C 
ENDBRANCH  10  11
ENDBRANCH   8  10
ENDBRANCH   7   8
ENDBRANCH   4   7
ENDBRANCH   2   4
BRANCH   2  14
ATOM     14  O   UNL     1       7.913   4.221  23.633  0.00  0.00    -0.413 OA
BRANCH  14  15
ATOM     15  C   UNL     1       9.238   4.594  23.653  0.00  0.00    +0.131 A 
ATOM     16  C   UNL     1      10.168   3.588  23.398  0.00  0.00    +0.046 A 
ATOM     17  C   UNL     1      11.534   3.878  23.414  0.00  0.00    +0.004 A 
ATOM     18  C   UNL     1      11.973   5.172  23.693  0.00  0.00    +0.000 A 
ATOM     19  C   UNL     1      11.046   6.178  23.952  0.00  0.00    +0.004 A 
ATOM     20  C   UNL     1       9.679   5.893  23.927  0.00  0.00    +0.046 A 
ENDBRANCH  14  15
ENDBRANCH   2  14
ENDBRANCH   1   2
BRANCH   1  21
ATOM     21  C   UNL     1       7.199   0.677  23.962  0.00  0.00    +0.206 C 
BRANCH  21  22
ATOM     22  C   UNL     1       8.612   0.240  24.424  0.00  0.00    +0.179 C 
ATOM     23  O   UNL     1       8.506  -0.856  25.342  0.00  0.00    -0.345 OA
ATOM     24  C   UNL     1       9.147  -2.021  24.774  0.00  0.00    +0.263 C 
ATOM     25  C   UNL     1       9.450  -1.713  23.295  0.00  0.00    +0.182 C 
ATOM     26  C   UNL     1       8.401  -2.183  22.296  0.00  0.00    +0.055 C 
ATOM     27  F   UNL     1      10.633  -2.267  22.908  0.00  0.00    -0.235 F 
ATOM     28  C   UNL     1       9.583  -0.190  23.322  0.00  0.00    +0.187 C 
BRANCH  24  29
ATOM     29  N   UNL     1       8.311  -3.191  25.078  0.00  0.00    -0.271 N 
ATOM     30  C   UNL     1       8.933  -4.432  25.141  0.00  0.00    +0.331 A 
ATOM     31  O   UNL     1      10.112  -4.630  24.873  0.00  0.00    -0.246 OA
ATOM     32  N   UNL     1       8.143  -5.472  25.561  0.00  0.00    -0.275 N 
ATOM     33  H   UNL     1       8.603  -6.361  25.667  0.00  0.00    +0.173 HD
ATOM     34  C   UNL     1       6.887  -5.362  26.082  0.00  0.00    +0.254 A 
ATOM     35  O   UNL     1       6.308  -6.281  26.644  0.00  0.00    -0.268 OA
ATOM     36  C   UNL     1       6.266  -4.039  25.952  0.00  0.00    +0.088 A 
ATOM     37  C   UNL     1       6.991  -3.035  25.469  0.00  0.00    +0.098 A 
ENDBRANCH  24  29
BRANCH  28  38
ATOM     38  O   UNL     1      10.913   0.179  23.737  0.00  0.00    -0.386 OA
ATOM     39  H   UNL     1      10.806   0.725  24.542  0.00  0.00    +0.210 HD
ENDBRANCH  28  38
ENDBRANCH  21  22
ENDBRANCH   1  21
TORSDOF 12
ENDMDL
