MODEL 1
REMARK VINA RESULT:      -6.9      0.000      0.000
REMARK  Name = 
REMARK  16 active torsions:
REMARK  status: ('A' for Active; 'I' for Inactive)
REMARK    1  A    between atoms: C_1  and  C_2
REMARK    2  A    between atoms: C_3  and  C_9
REMARK    3  A    between atoms: C_7  and  O_8
REMARK    4  A    between atoms: N_11  and  C_12
REMARK    5  A    between atoms: C_12  and  C_14
REMARK    6  A    between atoms: C_12  and  C_22
REMARK    7  A    between atoms: C_14  and  S_15
REMARK    8  A    between atoms: S_15  and  C_16
REMARK    9  A    between atoms: C_22  and  C_24
REMARK   10  A    between atoms: C_22  and  O_45
REMARK   11  A    between atoms: C_24  and  N_25
REMARK   12  A    between atoms: C_36  and  C_38
REMARK   13  A    between atoms: N_40  and  C_41
REMARK   14  A    between atoms: C_41  and  C_42
REMARK   15  A    between atoms: C_41  and  C_43
REMARK   16  A    between atoms: C_41  and  C_44
REMARK                            x       y       z     vdW  Elec       q    Type
REMARK                         _______ _______ _______ _____ _____    ______ ____
ROOT
ATOM      1  C   UNL     1       7.912  -3.618  26.584  0.00  0.00    +0.113 C 
ENDROOT
BRANCH   1   3
ATOM      2  C   UNL     1       6.341  -5.518  27.087  0.00  0.00    +0.245 C 
ATOM      3  N   UNL     1       6.685  -4.417  26.336  0.00  0.00    -0.305 N 
ATOM      4  H   UNL     1       6.034  -4.095  25.632  0.00  0.00    +0.149 HD
ATOM      5  O   UNL     1       7.042  -5.961  27.989  0.00  0.00    -0.270 OA
BRANCH   2  12
ATOM      6  C   UNL     1       3.891  -5.370  29.040  0.00  0.00    +0.048 C 
ATOM      7  C   UNL     1       3.900  -6.090  27.720  0.00  0.00    +0.003 A 
ATOM      8  C   UNL     1       2.712  -6.740  27.325  0.00  0.00    +0.120 A 
ATOM      9  C   UNL     1       2.585  -7.372  26.090  0.00  0.00    +0.046 A 
ATOM     10  C   UNL     1       3.656  -7.356  25.204  0.00  0.00    +0.004 A 
ATOM     11  C   UNL     1       4.847  -6.728  25.570  0.00  0.00    +0.013 A 
ATOM     12  C   UNL     1       4.991  -6.112  26.828  0.00  0.00    +0.043 A 
BRANCH   8  13
ATOM     13  O   UNL     1       1.647  -6.735  28.187  0.00  0.00    -0.506 OA
ATOM     14  H   UNL     1       1.122  -5.930  28.037  0.00  0.00    +0.292 HD
ENDBRANCH   8  13
ENDBRANCH   2  12
ENDBRANCH   1   3
BRANCH   1  15
ATOM     15  C   UNL     1       7.502  -2.118  26.793  0.00  0.00    +0.149 C 
BRANCH  15  16
ATOM     16  O   UNL     1       6.143  -1.883  27.161  0.00  0.00    -0.389 OA
ATOM     17  H   UNL     1       5.968  -2.269  28.038  0.00  0.00    +0.210 HD
ENDBRANCH  15  16
BRANCH  15  18
ATOM     18  C   UNL     1       7.895  -1.185  25.588  0.00  0.00    +0.118 C 
BRANCH  18  19
ATOM     19  N   UNL     1       8.666   0.045  25.873  0.00  0.00    -0.289 NA
ATOM     20  C   UNL     1       8.007   1.320  25.445  0.00  0.00    +0.143 C 
ATOM     21  C   UNL     1       8.212   1.689  23.961  0.00  0.00    +0.032 C 
ATOM     22  C   UNL     1       9.684   1.677  23.543  0.00  0.00    -0.005 C 
ATOM     23  C   UNL     1      10.309   0.327  23.880  0.00  0.00    +0.006 C 
ATOM     24  C   UNL     1       9.962  -0.790  22.874  0.00  0.00    +0.005 C 
ATOM     25  C   UNL     1       9.240  -0.430  21.566  0.00  0.00    +0.000 C 
ATOM     26  C   UNL     1       9.154   1.037  21.154  0.00  0.00    +0.000 C 
ATOM     27  C   UNL     1       9.906   1.989  22.063  0.00  0.00    +0.004 C 
ATOM     28  C   UNL     1      10.059   0.016  25.380  0.00  0.00    +0.089 C 
BRANCH  20  29
ATOM     29  C   UNL     1       6.481   1.367  25.722  0.00  0.00    +0.231 C 
ATOM     30  N   UNL     1       6.112   1.379  27.055  0.00  0.00    -0.309 N 
ATOM     31  H   UNL     1       6.830   1.168  27.738  0.00  0.00    +0.149 HD
ATOM     32  O   UNL     1       5.658   1.429  24.808  0.00  0.00    -0.274 OA
BRANCH  30  33
ATOM     33  C   UNL     1       4.739   1.658  27.520  0.00  0.00    +0.026 C 
ATOM     34  C   UNL     1       4.303   3.074  27.097  0.00  0.00    +0.031 C 
ATOM     35  C   UNL     1       4.703   1.608  29.059  0.00  0.00    +0.031 C 
ATOM     36  C   UNL     1       3.737   0.621  26.982  0.00  0.00    +0.031 C 
ENDBRANCH  30  33
ENDBRANCH  20  29
ENDBRANCH  18  19
ENDBRANCH  15  18
ENDBRANCH   1  15
BRANCH   1  37
ATOM     37  C   UNL     1       8.923  -3.849  25.421  0.00  0.00    +0.099 C 
BRANCH  37  38
ATOM     38  S   UNL     1       8.743  -5.479  24.583  0.00  0.00    -0.123 S 
BRANCH  38  39
ATOM     39  C   UNL     1       7.703  -5.032  23.204  0.00  0.00    +0.008 A 
ATOM     40  C   UNL     1       7.395  -3.691  22.962  0.00  0.00    +0.015 A 
ATOM     41  C   UNL     1       6.536  -3.338  21.916  0.00  0.00    +0.001 A 
ATOM     42  C   UNL     1       5.978  -4.335  21.113  0.00  0.00    +0.000 A 
ATOM     43  C   UNL     1       6.272  -5.679  21.356  0.00  0.00    +0.001 A 
ATOM     44  C   UNL     1       7.128  -6.025  22.404  0.00  0.00    +0.015 A 
ENDBRANCH  38  39
ENDBRANCH  37  38
ENDBRANCH   1  37
TORSDOF 12
ENDMDL
MODEL 2
REMARK VINA RESULT:      -6.8      2.236      4.855
REMARK  Name = 
REMARK  16 active torsions:
REMARK  status: ('A' for Active; 'I' for Inactive)
REMARK    1  A    between atoms: C_1  and  C_2
REMARK    2  A    between atoms: C_3  and  C_9
REMARK    3  A    between atoms: C_7  and  O_8
REMARK    4  A    between atoms: N_11  and  C_12
REMARK    5  A    between atoms: C_12  and  C_14
REMARK    6  A    between atoms: C_12  and  C_22
REMARK    7  A    between atoms: C_14  and  S_15
REMARK    8  A    between atoms: S_15  and  C_16
REMARK    9  A    between atoms: C_22  and  C_24
REMARK   10  A    between atoms: C_22  and  O_45
REMARK   11  A    between atoms: C_24  and  N_25
REMARK   12  A    between atoms: C_36  and  C_38
REMARK   13  A    between atoms: N_40  and  C_41
REMARK   14  A    between atoms: C_41  and  C_42
REMARK   15  A    between atoms: C_41  and  C_43
REMARK   16  A    between atoms: C_41  and  C_44
REMARK                            x       y       z     vdW  Elec       q    Type
REMARK                         _______ _______ _______ _____ _____    ______ ____
ROOT
ATOM      1  C   UNL     1       8.325  -2.656  23.964  0.00  0.00    +0.113 C 
ENDROOT
BRANCH   1   3
ATOM      2  C   UNL     1       7.395  -4.885  24.672  0.00  0.00    +0.245 C 
ATOM      3  N   UNL     1       7.222  -3.641  24.110  0.00  0.00    -0.305 N 
ATOM      4  H   UNL     1       6.285  -3.357  23.853  0.00  0.00    +0.149 HD
ATOM      5  O   UNL     1       8.482  -5.304  25.053  0.00  0.00    -0.270 OA
BRANCH   2  12
ATOM      6  C   UNL     1       5.514  -6.017  22.431  0.00  0.00    +0.048 C 
ATOM      7  C   UNL     1       5.282  -6.167  23.910  0.00  0.00    +0.003 A 
ATOM      8  C   UNL     1       4.136  -6.879  24.321  0.00  0.00    +0.120 A 
ATOM      9  C   UNL     1       3.865  -7.142  25.661  0.00  0.00    +0.046 A 
ATOM     10  C   UNL     1       4.754  -6.703  26.635  0.00  0.00    +0.004 A 
ATOM     11  C   UNL     1       5.892  -5.987  26.260  0.00  0.00    +0.013 A 
ATOM     12  C   UNL     1       6.158  -5.694  24.909  0.00  0.00    +0.043 A 
BRANCH   8  13
ATOM     13  O   UNL     1       3.272  -7.335  23.360  0.00  0.00    -0.506 OA
ATOM     14  H   UNL     1       2.759  -6.585  23.013  0.00  0.00    +0.292 HD
ENDBRANCH   8  13
ENDBRANCH   2  12
ENDBRANCH   1   3
BRANCH   1  15
ATOM     15  C   UNL     1       8.375  -1.763  25.252  0.00  0.00    +0.149 C 
BRANCH  15  16
ATOM     16  O   UNL     1       8.554  -2.452  26.489  0.00  0.00    -0.389 OA
ATOM     17  H   UNL     1       9.419  -2.222  26.872  0.00  0.00    +0.210 HD
ENDBRANCH  15  16
BRANCH  15  18
ATOM     18  C   UNL     1       7.166  -0.763  25.371  0.00  0.00    +0.118 C 
BRANCH  18  19
ATOM     19  N   UNL     1       7.000  -0.005  26.632  0.00  0.00    -0.289 NA
ATOM     20  C   UNL     1       5.632  -0.070  27.235  0.00  0.00    +0.143 C 
ATOM     21  C   UNL     1       4.617   0.934  26.649  0.00  0.00    +0.032 C 
ATOM     22  C   UNL     1       5.137   2.373  26.646  0.00  0.00    -0.005 C 
ATOM     23  C   UNL     1       6.479   2.439  25.923  0.00  0.00    +0.006 C 
ATOM     24  C   UNL     1       6.359   2.426  24.385  0.00  0.00    +0.005 C 
ATOM     25  C   UNL     1       4.974   2.565  23.735  0.00  0.00    +0.000 C 
ATOM     26  C   UNL     1       3.798   3.010  24.598  0.00  0.00    +0.000 C 
ATOM     27  C   UNL     1       4.168   3.377  26.022  0.00  0.00    +0.004 C 
ATOM     28  C   UNL     1       7.445   1.402  26.556  0.00  0.00    +0.089 C 
BRANCH  20  29
ATOM     29  C   UNL     1       4.977  -1.475  27.169  0.00  0.00    +0.231 C 
ATOM     30  N   UNL     1       3.619  -1.493  26.908  0.00  0.00    -0.309 N 
ATOM     31  H   UNL     1       3.123  -0.612  26.966  0.00  0.00    +0.149 HD
ATOM     32  O   UNL     1       5.638  -2.505  27.304  0.00  0.00    -0.274 OA
BRANCH  30  33
ATOM     33  C   UNL     1       2.868  -2.720  26.574  0.00  0.00    +0.026 C 
ATOM     34  C   UNL     1       3.389  -3.332  25.259  0.00  0.00    +0.031 C 
ATOM     35  C   UNL     1       1.384  -2.365  26.359  0.00  0.00    +0.031 C 
ATOM     36  C   UNL     1       2.954  -3.761  27.704  0.00  0.00    +0.031 C 
ENDBRANCH  30  33
ENDBRANCH  20  29
ENDBRANCH  18  19
ENDBRANCH  15  18
ENDBRANCH   1  15
BRANCH   1  37
ATOM     37  C   UNL     1       8.133  -1.860  22.639  0.00  0.00    +0.099 C 
BRANCH  37  38
ATOM     38  S   UNL     1       9.708  -1.325  21.849  0.00  0.00    -0.123 S 
BRANCH  38  39
ATOM     39  C   UNL     1       9.823   0.354  22.437  0.00  0.00    +0.008 A 
ATOM     40  C   UNL     1      10.520   0.640  23.614  0.00  0.00    +0.015 A 
ATOM     41  C   UNL     1      10.568   1.948  24.110  0.00  0.00    +0.001 A 
ATOM     42  C   UNL     1       9.909   2.972  23.426  0.00  0.00    +0.000 A 
ATOM     43  C   UNL     1       9.201   2.692  22.256  0.00  0.00    +0.001 A 
ATOM     44  C   UNL     1       9.154   1.384  21.767  0.00  0.00    +0.015 A 
ENDBRANCH  38  39
ENDBRANCH  37  38
ENDBRANCH   1  37
TORSDOF 12
ENDMDL
MODEL 3
REMARK VINA RESULT:      -6.8      2.552      4.922
REMARK  Name = 
REMARK  16 active torsions:
REMARK  status: ('A' for Active; 'I' for Inactive)
REMARK    1  A    between atoms: C_1  and  C_2
REMARK    2  A    between atoms: C_3  and  C_9
REMARK    3  A    between atoms: C_7  and  O_8
REMARK    4  A    between atoms: N_11  and  C_12
REMARK    5  A    between atoms: C_12  and  C_14
REMARK    6  A    between atoms: C_12  and  C_22
REMARK    7  A    between atoms: C_14  and  S_15
REMARK    8  A    between atoms: S_15  and  C_16
REMARK    9  A    between atoms: C_22  and  C_24
REMARK   10  A    between atoms: C_22  and  O_45
REMARK   11  A    between atoms: C_24  and  N_25
REMARK   12  A    between atoms: C_36  and  C_38
REMARK   13  A    between atoms: N_40  and  C_41
REMARK   14  A    between atoms: C_41  and  C_42
REMARK   15  A    between atoms: C_41  and  C_43
REMARK   16  A    between atoms: C_41  and  C_44
REMARK                            x       y       z     vdW  Elec       q    Type
REMARK                         _______ _______ _______ _____ _____    ______ ____
ROOT
ATOM      1  C   UNL     1       4.257  -1.127  26.615  0.00  0.00    +0.113 C 
ENDROOT
BRANCH   1   3
ATOM      2  C   UNL     1       4.591  -2.946  24.909  0.00  0.00    +0.245 C 
ATOM      3  N   UNL     1       5.106  -1.997  25.762  0.00  0.00    -0.305 N 
ATOM      4  H   UNL     1       6.104  -1.833  25.749  0.00  0.00    +0.149 HD
ATOM      5  O   UNL     1       3.393  -3.189  24.820  0.00  0.00    -0.270 OA
BRANCH   2  12
ATOM      6  C   UNL     1       6.995  -4.748  25.812  0.00  0.00    +0.048 C 
ATOM      7  C   UNL     1       6.670  -4.393  24.387  0.00  0.00    +0.003 A 
ATOM      8  C   UNL     1       7.504  -4.918  23.378  0.00  0.00    +0.120 A 
ATOM      9  C   UNL     1       7.251  -4.715  22.024  0.00  0.00    +0.046 A 
ATOM     10  C   UNL     1       6.134  -3.983  21.642  0.00  0.00    +0.004 A 
ATOM     11  C   UNL     1       5.295  -3.443  22.617  0.00  0.00    +0.013 A 
ATOM     12  C   UNL     1       5.560  -3.620  23.989  0.00  0.00    +0.043 A 
BRANCH   8  13
ATOM     13  O   UNL     1       8.592  -5.663  23.753  0.00  0.00    -0.506 OA
ATOM     14  H   UNL     1       8.849  -5.415  24.658  0.00  0.00    +0.292 HD
ENDBRANCH   8  13
ENDBRANCH   2  12
ENDBRANCH   1   3
BRANCH   1  15
ATOM     15  C   UNL     1       4.738   0.358  26.459  0.00  0.00    +0.149 C 
BRANCH  15  16
ATOM     16  O   UNL     1       3.754   1.295  26.020  0.00  0.00    -0.389 OA
ATOM     17  H   UNL     1       4.093   1.794  25.255  0.00  0.00    +0.210 HD
ENDBRANCH  15  16
BRANCH  15  18
ATOM     18  C   UNL     1       6.040   0.507  25.587  0.00  0.00    +0.118 C 
BRANCH  18  19
ATOM     19  N   UNL     1       7.294   0.913  26.260  0.00  0.00    -0.289 NA
ATOM     20  C   UNL     1       7.977   2.105  25.664  0.00  0.00    +0.143 C 
ATOM     21  C   UNL     1       8.879   1.796  24.451  0.00  0.00    +0.032 C 
ATOM     22  C   UNL     1       9.888   0.680  24.728  0.00  0.00    -0.005 C 
ATOM     23  C   UNL     1       9.161  -0.567  25.223  0.00  0.00    +0.006 C 
ATOM     24  C   UNL     1       8.490  -1.385  24.100  0.00  0.00    +0.005 C 
ATOM     25  C   UNL     1       8.775  -1.027  22.633  0.00  0.00    +0.000 C 
ATOM     26  C   UNL     1       9.931  -0.083  22.318  0.00  0.00    +0.000 C 
ATOM     27  C   UNL     1      10.757   0.322  23.523  0.00  0.00    +0.004 C 
ATOM     28  C   UNL     1       8.270  -0.184  26.435  0.00  0.00    +0.089 C 
BRANCH  20  29
ATOM     29  C   UNL     1       7.009   3.241  25.239  0.00  0.00    +0.231 C 
ATOM     30  N   UNL     1       7.329   3.892  24.062  0.00  0.00    -0.309 N 
ATOM     31  H   UNL     1       8.247   3.721  23.669  0.00  0.00    +0.149 HD
ATOM     32  O   UNL     1       6.002   3.513  25.893  0.00  0.00    -0.274 OA
BRANCH  30  33
ATOM     33  C   UNL     1       6.417   4.828  23.373  0.00  0.00    +0.026 C 
ATOM     34  C   UNL     1       5.158   4.090  22.879  0.00  0.00    +0.031 C 
ATOM     35  C   UNL     1       7.126   5.408  22.134  0.00  0.00    +0.031 C 
ATOM     36  C   UNL     1       6.012   5.999  24.286  0.00  0.00    +0.031 C 
ENDBRANCH  30  33
ENDBRANCH  20  29
ENDBRANCH  18  19
ENDBRANCH  15  18
ENDBRANCH   1  15
BRANCH   1  37
ATOM     37  C   UNL     1       4.283  -1.658  28.080  0.00  0.00    +0.099 C 
BRANCH  37  38
ATOM     38  S   UNL     1       2.913  -2.820  28.482  0.00  0.00    -0.123 S 
BRANCH  38  39
ATOM     39  C   UNL     1       3.773  -4.382  28.429  0.00  0.00    +0.008 A 
ATOM     40  C   UNL     1       4.879  -4.603  29.253  0.00  0.00    +0.015 A 
ATOM     41  C   UNL     1       5.592  -5.805  29.177  0.00  0.00    +0.001 A 
ATOM     42  C   UNL     1       5.196  -6.786  28.266  0.00  0.00    +0.000 A 
ATOM     43  C   UNL     1       4.099  -6.568  27.430  0.00  0.00    +0.001 A 
ATOM     44  C   UNL     1       3.394  -5.365  27.509  0.00  0.00    +0.015 A 
ENDBRANCH  38  39
ENDBRANCH  37  38
ENDBRANCH   1  37
TORSDOF 12
ENDMDL
MODEL 4
REMARK VINA RESULT:      -6.8      1.852      8.098
REMARK  Name = 
REMARK  16 active torsions:
REMARK  status: ('A' for Active; 'I' for Inactive)
REMARK    1  A    between atoms: C_1  and  C_2
REMARK    2  A    between atoms: C_3  and  C_9
REMARK    3  A    between atoms: C_7  and  O_8
REMARK    4  A    between atoms: N_11  and  C_12
REMARK    5  A    between atoms: C_12  and  C_14
REMARK    6  A    between atoms: C_12  and  C_22
REMARK    7  A    between atoms: C_14  and  S_15
REMARK    8  A    between atoms: S_15  and  C_16
REMARK    9  A    between atoms: C_22  and  C_24
REMARK   10  A    between atoms: C_22  and  O_45
REMARK   11  A    between atoms: C_24  and  N_25
REMARK   12  A    between atoms: C_36  and  C_38
REMARK   13  A    between atoms: N_40  and  C_41
REMARK   14  A    between atoms: C_41  and  C_42
REMARK   15  A    between atoms: C_41  and  C_43
REMARK   16  A    between atoms: C_41  and  C_44
REMARK                            x       y       z     vdW  Elec       q    Type
REMARK                         _______ _______ _______ _____ _____    ______ ____
ROOT
ATOM      1  C   UNL     1       8.130  -2.940  25.548  0.00  0.00    +0.113 C 
ENDROOT
BRANCH   1   3
ATOM      2  C   UNL     1       6.937  -0.761  25.949  0.00  0.00    +0.245 C 
ATOM      3  N   UNL     1       7.896  -1.682  26.303  0.00  0.00    -0.305 N 
ATOM      4  H   UNL     1       8.413  -1.531  27.159  0.00  0.00    +0.149 HD
ATOM      5  O   UNL     1       6.231  -0.876  24.954  0.00  0.00    -0.270 OA
BRANCH   2  12
ATOM      6  C   UNL     1       7.790   2.221  25.479  0.00  0.00    +0.048 C 
ATOM      7  C   UNL     1       7.124   1.700  26.723  0.00  0.00    +0.003 A 
ATOM      8  C   UNL     1       6.853   2.624  27.753  0.00  0.00    +0.120 A 
ATOM      9  C   UNL     1       6.173   2.265  28.915  0.00  0.00    +0.046 A 
ATOM     10  C   UNL     1       5.731   0.957  29.068  0.00  0.00    +0.004 A 
ATOM     11  C   UNL     1       5.992   0.017  28.070  0.00  0.00    +0.013 A 
ATOM     12  C   UNL     1       6.704   0.367  26.906  0.00  0.00    +0.043 A 
BRANCH   8  13
ATOM     13  O   UNL     1       7.266   3.921  27.592  0.00  0.00    -0.506 OA
ATOM     14  H   UNL     1       7.912   4.137  28.286  0.00  0.00    +0.292 HD
ENDBRANCH   8  13
ENDBRANCH   2  12
ENDBRANCH   1   3
BRANCH   1  15
ATOM     15  C   UNL     1       8.234  -4.128  26.567  0.00  0.00    +0.149 C 
BRANCH  15  16
ATOM     16  O   UNL     1       8.849  -5.321  26.081  0.00  0.00    -0.389 OA
ATOM     17  H   UNL     1       8.621  -5.450  25.143  0.00  0.00    +0.210 HD
ENDBRANCH  15  16
BRANCH  15  18
ATOM     18  C   UNL     1       6.867  -4.480  27.264  0.00  0.00    +0.118 C 
BRANCH  18  19
ATOM     19  N   UNL     1       6.450  -5.898  27.318  0.00  0.00    -0.289 NA
ATOM     20  C   UNL     1       5.193  -6.218  26.571  0.00  0.00    +0.143 C 
ATOM     21  C   UNL     1       3.889  -5.939  27.348  0.00  0.00    +0.032 C 
ATOM     22  C   UNL     1       3.872  -6.586  28.735  0.00  0.00    -0.005 C 
ATOM     23  C   UNL     1       5.104  -6.154  29.525  0.00  0.00    +0.006 C 
ATOM     24  C   UNL     1       4.992  -4.738  30.129  0.00  0.00    +0.005 C 
ATOM     25  C   UNL     1       3.644  -4.002  30.081  0.00  0.00    +0.000 C 
ATOM     26  C   UNL     1       2.389  -4.788  29.718  0.00  0.00    +0.000 C 
ATOM     27  C   UNL     1       2.611  -6.278  29.542  0.00  0.00    +0.004 C 
ATOM     28  C   UNL     1       6.373  -6.456  28.685  0.00  0.00    +0.089 C 
BRANCH  20  29
ATOM     29  C   UNL     1       5.071  -5.503  25.200  0.00  0.00    +0.231 C 
ATOM     30  N   UNL     1       6.131  -5.684  24.331  0.00  0.00    -0.309 N 
ATOM     31  H   UNL     1       6.975  -6.100  24.708  0.00  0.00    +0.149 HD
ATOM     32  O   UNL     1       4.073  -4.848  24.897  0.00  0.00    -0.274 OA
BRANCH  30  33
ATOM     33  C   UNL     1       6.100  -5.288  22.909  0.00  0.00    +0.026 C 
ATOM     34  C   UNL     1       5.080  -6.144  22.133  0.00  0.00    +0.031 C 
ATOM     35  C   UNL     1       7.483  -5.540  22.280  0.00  0.00    +0.031 C 
ATOM     36  C   UNL     1       5.761  -3.796  22.745  0.00  0.00    +0.031 C 
ENDBRANCH  30  33
ENDBRANCH  20  29
ENDBRANCH  18  19
ENDBRANCH  15  18
ENDBRANCH   1  15
BRANCH   1  37
ATOM     37  C   UNL     1       9.381  -2.768  24.635  0.00  0.00    +0.099 C 
BRANCH  37  38
ATOM     38  S   UNL     1       8.999  -2.128  22.951  0.00  0.00    -0.123 S 
BRANCH  38  39
ATOM     39  C   UNL     1       9.707  -0.494  23.046  0.00  0.00    +0.008 A 
ATOM     40  C   UNL     1      10.410  -0.098  24.188  0.00  0.00    +0.015 A 
ATOM     41  C   UNL     1      10.921   1.201  24.291  0.00  0.00    +0.001 A 
ATOM     42  C   UNL     1      10.720   2.108  23.249  0.00  0.00    +0.000 A 
ATOM     43  C   UNL     1      10.009   1.724  22.111  0.00  0.00    +0.001 A 
ATOM     44  C   UNL     1       9.499   0.427  22.014  0.00  0.00    +0.015 A 
ENDBRANCH  38  39
ENDBRANCH  37  38
ENDBRANCH   1  37
TORSDOF 12
ENDMDL
MODEL 5
REMARK VINA RESULT:      -6.7      2.288      5.355
REMARK  Name = 
REMARK  16 active torsions:
REMARK  status: ('A' for Active; 'I' for Inactive)
REMARK    1  A    between atoms: C_1  and  C_2
REMARK    2  A    between atoms: C_3  and  C_9
REMARK    3  A    between atoms: C_7  and  O_8
REMARK    4  A    between atoms: N_11  and  C_12
REMARK    5  A    between atoms: C_12  and  C_14
REMARK    6  A    between atoms: C_12  and  C_22
REMARK    7  A    between atoms: C_14  and  S_15
REMARK    8  A    between atoms: S_15  and  C_16
REMARK    9  A    between atoms: C_22  and  C_24
REMARK   10  A    between atoms: C_22  and  O_45
REMARK   11  A    between atoms: C_24  and  N_25
REMARK   12  A    between atoms: C_36  and  C_38
REMARK   13  A    between atoms: N_40  and  C_41
REMARK   14  A    between atoms: C_41  and  C_42
REMARK   15  A    between atoms: C_41  and  C_43
REMARK   16  A    between atoms: C_41  and  C_44
REMARK                            x       y       z     vdW  Elec       q    Type
REMARK                         _______ _______ _______ _____ _____    ______ ____
ROOT
ATOM      1  C   UNL     1       7.227  -1.801  23.936  0.00  0.00    +0.113 C 
ENDROOT
BRANCH   1   3
ATOM      2  C   UNL     1       6.926  -4.124  24.855  0.00  0.00    +0.245 C 
ATOM      3  N   UNL     1       6.419  -3.016  24.215  0.00  0.00    -0.305 N 
ATOM      4  H   UNL     1       5.433  -3.000  23.993  0.00  0.00    +0.149 HD
ATOM      5  O   UNL     1       8.097  -4.221  25.203  0.00  0.00    -0.270 OA
BRANCH   2  12
ATOM      6  C   UNL     1       5.510  -6.052  22.826  0.00  0.00    +0.048 C 
ATOM      7  C   UNL     1       5.271  -6.035  24.311  0.00  0.00    +0.003 A 
ATOM      8  C   UNL     1       4.346  -6.964  24.833  0.00  0.00    +0.120 A 
ATOM      9  C   UNL     1       4.105  -7.086  26.199  0.00  0.00    +0.046 A 
ATOM     10  C   UNL     1       4.804  -6.279  27.088  0.00  0.00    +0.004 A 
ATOM     11  C   UNL     1       5.719  -5.344  26.602  0.00  0.00    +0.013 A 
ATOM     12  C   UNL     1       5.946  -5.195  25.220  0.00  0.00    +0.043 A 
BRANCH   8  13
ATOM     13  O   UNL     1       3.676  -7.778  23.958  0.00  0.00    -0.506 OA
ATOM     14  H   UNL     1       2.940  -7.281  23.562  0.00  0.00    +0.292 HD
ENDBRANCH   8  13
ENDBRANCH   2  12
ENDBRANCH   1   3
BRANCH   1  15
ATOM     15  C   UNL     1       6.256  -0.586  23.732  0.00  0.00    +0.149 C 
BRANCH  15  16
ATOM     16  O   UNL     1       6.501   0.228  22.585  0.00  0.00    -0.389 OA
ATOM     17  H   UNL     1       6.180  -0.224  21.785  0.00  0.00    +0.210 HD
ENDBRANCH  15  16
BRANCH  15  18
ATOM     18  C   UNL     1       6.109   0.323  25.008  0.00  0.00    +0.118 C 
BRANCH  18  19
ATOM     19  N   UNL     1       4.748   0.643  25.491  0.00  0.00    -0.289 NA
ATOM     20  C   UNL     1       4.411   2.102  25.517  0.00  0.00    +0.143 C 
ATOM     21  C   UNL     1       4.896   2.856  26.774  0.00  0.00    +0.032 C 
ATOM     22  C   UNL     1       4.464   2.180  28.077  0.00  0.00    -0.005 C 
ATOM     23  C   UNL     1       4.919   0.724  28.082  0.00  0.00    +0.006 C 
ATOM     24  C   UNL     1       6.413   0.539  28.422  0.00  0.00    +0.005 C 
ATOM     25  C   UNL     1       7.229   1.742  28.918  0.00  0.00    +0.000 C 
ATOM     26  C   UNL     1       6.489   3.005  29.349  0.00  0.00    +0.000 C 
ATOM     27  C   UNL     1       4.977   2.882  29.334  0.00  0.00    +0.004 C 
ATOM     28  C   UNL     1       4.406   0.030  26.792  0.00  0.00    +0.089 C 
BRANCH  20  29
ATOM     29  C   UNL     1       4.923   2.892  24.284  0.00  0.00    +0.231 C 
ATOM     30  N   UNL     1       5.848   3.884  24.547  0.00  0.00    -0.309 N 
ATOM     31  H   UNL     1       5.983   4.150  25.516  0.00  0.00    +0.149 HD
ATOM     32  O   UNL     1       4.551   2.620  23.142  0.00  0.00    -0.274 OA
BRANCH  30  33
ATOM     33  C   UNL     1       6.623   4.578  23.499  0.00  0.00    +0.026 C 
ATOM     34  C   UNL     1       6.998   3.601  22.368  0.00  0.00    +0.031 C 
ATOM     35  C   UNL     1       7.937   5.108  24.103  0.00  0.00    +0.031 C 
ATOM     36  C   UNL     1       5.845   5.773  22.919  0.00  0.00    +0.031 C 
ENDBRANCH  30  33
ENDBRANCH  20  29
ENDBRANCH  18  19
ENDBRANCH  15  18
ENDBRANCH   1  15
BRANCH   1  37
ATOM     37  C   UNL     1       8.172  -2.076  22.728  0.00  0.00    +0.099 C 
BRANCH  37  38
ATOM     38  S   UNL     1       9.962  -1.907  23.121  0.00  0.00    -0.123 S 
BRANCH  38  39
ATOM     39  C   UNL     1      10.140  -0.133  23.119  0.00  0.00    +0.008 A 
ATOM     40  C   UNL     1       9.910   0.595  21.948  0.00  0.00    +0.015 A 
ATOM     41  C   UNL     1      10.101   1.981  21.925  0.00  0.00    +0.001 A 
ATOM     42  C   UNL     1      10.530   2.639  23.079  0.00  0.00    +0.000 A 
ATOM     43  C   UNL     1      10.773   1.918  24.250  0.00  0.00    +0.001 A 
ATOM     44  C   UNL     1      10.583   0.534  24.266  0.00  0.00    +0.015 A 
ENDBRANCH  38  39
ENDBRANCH  37  38
ENDBRANCH   1  37
TORSDOF 12
ENDMDL
MODEL 6
REMARK VINA RESULT:      -6.7      2.442      5.743
REMARK  Name = 
REMARK  16 active torsions:
REMARK  status: ('A' for Active; 'I' for Inactive)
REMARK    1  A    between atoms: C_1  and  C_2
REMARK    2  A    between atoms: C_3  and  C_9
REMARK    3  A    between atoms: C_7  and  O_8
REMARK    4  A    between atoms: N_11  and  C_12
REMARK    5  A    between atoms: C_12  and  C_14
REMARK    6  A    between atoms: C_12  and  C_22
REMARK    7  A    between atoms: C_14  and  S_15
REMARK    8  A    between atoms: S_15  and  C_16
REMARK    9  A    between atoms: C_22  and  C_24
REMARK   10  A    between atoms: C_22  and  O_45
REMARK   11  A    between atoms: C_24  and  N_25
REMARK   12  A    between atoms: C_36  and  C_38
REMARK   13  A    between atoms: N_40  and  C_41
REMARK   14  A    between atoms: C_41  and  C_42
REMARK   15  A    between atoms: C_41  and  C_43
REMARK   16  A    between atoms: C_41  and  C_44
REMARK                            x       y       z     vdW  Elec       q    Type
REMARK                         _______ _______ _______ _____ _____    ______ ____
ROOT
ATOM      1  C   UNL     1       5.653  -0.690  27.208  0.00  0.00    +0.113 C 
ENDROOT
BRANCH   1   3
ATOM      2  C   UNL     1       4.679  -2.962  26.734  0.00  0.00    +0.245 C 
ATOM      3  N   UNL     1       5.110  -2.008  27.627  0.00  0.00    -0.305 N 
ATOM      4  H   UNL     1       5.127  -2.245  28.610  0.00  0.00    +0.149 HD
ATOM      5  O   UNL     1       4.660  -2.786  25.521  0.00  0.00    -0.270 OA
BRANCH   2  12
ATOM      6  C   UNL     1       6.725  -5.236  27.431  0.00  0.00    +0.048 C 
ATOM      7  C   UNL     1       5.231  -5.344  27.574  0.00  0.00    +0.003 A 
ATOM      8  C   UNL     1       4.711  -6.559  28.068  0.00  0.00    +0.120 A 
ATOM      9  C   UNL     1       3.352  -6.742  28.310  0.00  0.00    +0.046 A 
ATOM     10  C   UNL     1       2.471  -5.694  28.072  0.00  0.00    +0.004 A 
ATOM     11  C   UNL     1       2.955  -4.483  27.574  0.00  0.00    +0.013 A 
ATOM     12  C   UNL     1       4.324  -4.301  27.300  0.00  0.00    +0.043 A 
BRANCH   8  13
ATOM     13  O   UNL     1       5.582  -7.585  28.328  0.00  0.00    -0.506 OA
ATOM     14  H   UNL     1       6.425  -7.213  28.641  0.00  0.00    +0.292 HD
ENDBRANCH   8  13
ENDBRANCH   2  12
ENDBRANCH   1   3
BRANCH   1  15
ATOM     15  C   UNL     1       7.214  -0.801  27.096  0.00  0.00    +0.149 C 
BRANCH  15  16
ATOM     16  O   UNL     1       7.966   0.194  27.790  0.00  0.00    -0.389 OA
ATOM     17  H   UNL     1       8.130  -0.096  28.705  0.00  0.00    +0.210 HD
ENDBRANCH  15  16
BRANCH  15  18
ATOM     18  C   UNL     1       7.731  -0.922  25.614  0.00  0.00    +0.118 C 
BRANCH  18  19
ATOM     19  N   UNL     1       6.815  -0.542  24.516  0.00  0.00    -0.289 NA
ATOM     20  C   UNL     1       7.169  -1.101  23.173  0.00  0.00    +0.143 C 
ATOM     21  C   UNL     1       8.229  -0.293  22.395  0.00  0.00    +0.032 C 
ATOM     22  C   UNL     1       7.884   1.193  22.286  0.00  0.00    -0.005 C 
ATOM     23  C   UNL     1       7.640   1.773  23.676  0.00  0.00    +0.006 C 
ATOM     24  C   UNL     1       8.934   2.080  24.459  0.00  0.00    +0.005 C 
ATOM     25  C   UNL     1      10.289   1.993  23.740  0.00  0.00    +0.000 C 
ATOM     26  C   UNL     1      10.310   1.905  22.218  0.00  0.00    +0.000 C 
ATOM     27  C   UNL     1       8.946   2.021  21.565  0.00  0.00    +0.004 C 
ATOM     28  C   UNL     1       6.573   0.912  24.403  0.00  0.00    +0.089 C 
BRANCH  20  29
ATOM     29  C   UNL     1       7.651  -2.575  23.208  0.00  0.00    +0.231 C 
ATOM     30  N   UNL     1       6.669  -3.523  23.431  0.00  0.00    -0.309 N 
ATOM     31  H   UNL     1       5.763  -3.190  23.739  0.00  0.00    +0.149 HD
ATOM     32  O   UNL     1       8.828  -2.877  23.010  0.00  0.00    -0.274 OA
BRANCH  30  33
ATOM     33  C   UNL     1       6.882  -4.975  23.265  0.00  0.00    +0.026 C 
ATOM     34  C   UNL     1       7.004  -5.336  21.773  0.00  0.00    +0.031 C 
ATOM     35  C   UNL     1       5.664  -5.735  23.824  0.00  0.00    +0.031 C 
ATOM     36  C   UNL     1       8.135  -5.453  24.022  0.00  0.00    +0.031 C 
ENDBRANCH  30  33
ENDBRANCH  20  29
ENDBRANCH  18  19
ENDBRANCH  15  18
ENDBRANCH   1  15
BRANCH   1  37
ATOM     37  C   UNL     1       5.158   0.409  28.194  0.00  0.00    +0.099 C 
BRANCH  37  38
ATOM     38  S   UNL     1       3.932   1.574  27.466  0.00  0.00    -0.123 S 
BRANCH  38  39
ATOM     39  C   UNL     1       5.008   2.868  26.877  0.00  0.00    +0.008 A 
ATOM     40  C   UNL     1       4.649   3.625  25.759  0.00  0.00    +0.015 A 
ATOM     41  C   UNL     1       5.515   4.605  25.258  0.00  0.00    +0.001 A 
ATOM     42  C   UNL     1       6.747   4.822  25.878  0.00  0.00    +0.000 A 
ATOM     43  C   UNL     1       7.118   4.061  26.989  0.00  0.00    +0.001 A 
ATOM     44  C   UNL     1       6.251   3.082  27.482  0.00  0.00    +0.015 A 
ENDBRANCH  38  39
ENDBRANCH  37  38
ENDBRANCH   1  37
TORSDOF 12
ENDMDL
MODEL 7
REMARK VINA RESULT:      -6.7      1.956      3.223
REMARK  Name = 
REMARK  16 active torsions:
REMARK  status: ('A' for Active; 'I' for Inactive)
REMARK    1  A    between atoms: C_1  and  C_2
REMARK    2  A    between atoms: C_3  and  C_9
REMARK    3  A    between atoms: C_7  and  O_8
REMARK    4  A    between atoms: N_11  and  C_12
REMARK    5  A    between atoms: C_12  and  C_14
REMARK    6  A    between atoms: C_12  and  C_22
REMARK    7  A    between atoms: C_14  and  S_15
REMARK    8  A    between atoms: S_15  and  C_16
REMARK    9  A    between atoms: C_22  and  C_24
REMARK   10  A    between atoms: C_22  and  O_45
REMARK   11  A    between atoms: C_24  and  N_25
REMARK   12  A    between atoms: C_36  and  C_38
REMARK   13  A    between atoms: N_40  and  C_41
REMARK   14  A    between atoms: C_41  and  C_42
REMARK   15  A    between atoms: C_41  and  C_43
REMARK   16  A    between atoms: C_41  and  C_44
REMARK                            x       y       z     vdW  Elec       q    Type
REMARK                         _______ _______ _______ _____ _____    ______ ____
ROOT
ATOM      1  C   UNL     1       7.525  -4.336  23.908  0.00  0.00    +0.113 C 
ENDROOT
BRANCH   1   3
ATOM      2  C   UNL     1       7.227  -4.626  26.390  0.00  0.00    +0.245 C 
ATOM      3  N   UNL     1       6.711  -4.636  25.114  0.00  0.00    -0.305 N 
ATOM      4  H   UNL     1       5.716  -4.780  25.001  0.00  0.00    +0.149 HD
ATOM      5  O   UNL     1       8.410  -4.419  26.634  0.00  0.00    -0.270 OA
BRANCH   2  12
ATOM      6  C   UNL     1       4.665  -2.864  26.805  0.00  0.00    +0.048 C 
ATOM      7  C   UNL     1       5.119  -3.959  27.731  0.00  0.00    +0.003 A 
ATOM      8  C   UNL     1       4.326  -4.220  28.869  0.00  0.00    +0.120 A 
ATOM      9  C   UNL     1       4.612  -5.259  29.751  0.00  0.00    +0.046 A 
ATOM     10  C   UNL     1       5.706  -6.080  29.505  0.00  0.00    +0.004 A 
ATOM     11  C   UNL     1       6.514  -5.841  28.392  0.00  0.00    +0.013 A 
ATOM     12  C   UNL     1       6.247  -4.775  27.512  0.00  0.00    +0.043 A 
BRANCH   8  13
ATOM     13  O   UNL     1       3.233  -3.427  29.098  0.00  0.00    -0.506 OA
ATOM     14  H   UNL     1       3.041  -3.420  30.052  0.00  0.00    +0.292 HD
ENDBRANCH   8  13
ENDBRANCH   2  12
ENDBRANCH   1   3
BRANCH   1  15
ATOM     15  C   UNL     1       7.039  -2.974  23.299  0.00  0.00    +0.149 C 
BRANCH  15  16
ATOM     16  O   UNL     1       7.319  -2.770  21.914  0.00  0.00    -0.389 OA
ATOM     17  H   UNL     1       8.105  -3.286  21.657  0.00  0.00    +0.210 HD
ENDBRANCH  15  16
BRANCH  15  18
ATOM     18  C   UNL     1       7.500  -1.716  24.125  0.00  0.00    +0.118 C 
BRANCH  18  19
ATOM     19  N   UNL     1       8.903  -1.655  24.590  0.00  0.00    -0.289 NA
ATOM     20  C   UNL     1       9.210  -0.534  25.534  0.00  0.00    +0.143 C 
ATOM     21  C   UNL     1       9.511   0.819  24.856  0.00  0.00    +0.032 C 
ATOM     22  C   UNL     1      10.587   0.717  23.773  0.00  0.00    -0.005 C 
ATOM     23  C   UNL     1      10.199  -0.351  22.755  0.00  0.00    +0.006 C 
ATOM     24  C   UNL     1       9.144   0.118  21.731  0.00  0.00    +0.005 C 
ATOM     25  C   UNL     1       8.751   1.602  21.679  0.00  0.00    +0.000 C 
ATOM     26  C   UNL     1       9.616   2.618  22.418  0.00  0.00    +0.000 C 
ATOM     27  C   UNL     1      10.864   2.036  23.053  0.00  0.00    +0.004 C 
ATOM     28  C   UNL     1       9.904  -1.679  23.503  0.00  0.00    +0.089 C 
BRANCH  20  29
ATOM     29  C   UNL     1       8.106  -0.279  26.595  0.00  0.00    +0.231 C 
ATOM     30  N   UNL     1       7.763   1.044  26.799  0.00  0.00    -0.309 N 
ATOM     31  H   UNL     1       8.370   1.750  26.396  0.00  0.00    +0.149 HD
ATOM     32  O   UNL     1       7.549  -1.205  27.185  0.00  0.00    -0.274 OA
BRANCH  30  33
ATOM     33  C   UNL     1       6.586   1.472  27.582  0.00  0.00    +0.026 C 
ATOM     34  C   UNL     1       5.308   0.797  27.047  0.00  0.00    +0.031 C 
ATOM     35  C   UNL     1       6.400   2.994  27.431  0.00  0.00    +0.031 C 
ATOM     36  C   UNL     1       6.757   1.155  29.078  0.00  0.00    +0.031 C 
ENDBRANCH  30  33
ENDBRANCH  20  29
ENDBRANCH  18  19
ENDBRANCH  15  18
ENDBRANCH   1  15
BRANCH   1  37
ATOM     37  C   UNL     1       7.451  -5.541  22.923  0.00  0.00    +0.099 C 
BRANCH  37  38
ATOM     38  S   UNL     1       5.869  -5.652  21.989  0.00  0.00    -0.123 S 
BRANCH  38  39
ATOM     39  C   UNL     1       4.700  -5.798  23.328  0.00  0.00    +0.008 A 
ATOM     40  C   UNL     1       4.759  -6.893  24.195  0.00  0.00    +0.015 A 
ATOM     41  C   UNL     1       3.811  -7.043  25.213  0.00  0.00    +0.001 A 
ATOM     42  C   UNL     1       2.796  -6.095  25.359  0.00  0.00    +0.000 A 
ATOM     43  C   UNL     1       2.723  -5.005  24.489  0.00  0.00    +0.001 A 
ATOM     44  C   UNL     1       3.671  -4.862  23.472  0.00  0.00    +0.015 A 
ENDBRANCH  38  39
ENDBRANCH  37  38
ENDBRANCH   1  37
TORSDOF 12
ENDMDL
MODEL 8
REMARK VINA RESULT:      -6.7      2.564      7.800
REMARK  Name = 
REMARK  16 active torsions:
REMARK  status: ('A' for Active; 'I' for Inactive)
REMARK    1  A    between atoms: C_1  and  C_2
REMARK    2  A    between atoms: C_3  and  C_9
REMARK    3  A    between atoms: C_7  and  O_8
REMARK    4  A    between atoms: N_11  and  C_12
REMARK    5  A    between atoms: C_12  and  C_14
REMARK    6  A    between atoms: C_12  and  C_22
REMARK    7  A    between atoms: C_14  and  S_15
REMARK    8  A    between atoms: S_15  and  C_16
REMARK    9  A    between atoms: C_22  and  C_24
REMARK   10  A    between atoms: C_22  and  O_45
REMARK   11  A    between atoms: C_24  and  N_25
REMARK   12  A    between atoms: C_36  and  C_38
REMARK   13  A    between atoms: N_40  and  C_41
REMARK   14  A    between atoms: C_41  and  C_42
REMARK   15  A    between atoms: C_41  and  C_43
REMARK   16  A    between atoms: C_41  and  C_44
REMARK                            x       y       z     vdW  Elec       q    Type
REMARK                         _______ _______ _______ _____ _____    ______ ____
ROOT
ATOM      1  C   UNL     1       6.224  -0.844  27.175  0.00  0.00    +0.113 C 
ENDROOT
BRANCH   1   3
ATOM      2  C   UNL     1       8.105  -0.309  25.592  0.00  0.00    +0.245 C 
ATOM      3  N   UNL     1       6.770  -0.546  25.827  0.00  0.00    -0.305 N 
ATOM      4  H   UNL     1       6.145  -0.593  25.032  0.00  0.00    +0.149 HD
ATOM      5  O   UNL     1       8.947  -0.274  26.482  0.00  0.00    -0.270 OA
BRANCH   2  12
ATOM      6  C   UNL     1       9.897  -2.382  24.064  0.00  0.00    +0.048 C 
ATOM      7  C   UNL     1       9.368  -1.101  23.479  0.00  0.00    +0.003 A 
ATOM      8  C   UNL     1       9.695  -0.814  22.137  0.00  0.00    +0.120 A 
ATOM      9  C   UNL     1       9.198   0.306  21.474  0.00  0.00    +0.046 A 
ATOM     10  C   UNL     1       8.339   1.169  22.143  0.00  0.00    +0.004 A 
ATOM     11  C   UNL     1       8.004   0.916  23.475  0.00  0.00    +0.013 A 
ATOM     12  C   UNL     1       8.526  -0.198  24.160  0.00  0.00    +0.043 A 
BRANCH   8  13
ATOM     13  O   UNL     1      10.521  -1.678  21.467  0.00  0.00    -0.506 OA
ATOM     14  H   UNL     1      10.809  -1.261  20.637  0.00  0.00    +0.292 HD
ENDBRANCH   8  13
ENDBRANCH   2  12
ENDBRANCH   1   3
BRANCH   1  15
ATOM     15  C   UNL     1       5.023  -1.842  27.024  0.00  0.00    +0.149 C 
BRANCH  15  16
ATOM     16  O   UNL     1       4.373  -2.231  28.233  0.00  0.00    -0.389 OA
ATOM     17  H   UNL     1       3.507  -1.790  28.298  0.00  0.00    +0.210 HD
ENDBRANCH  15  16
BRANCH  15  18
ATOM     18  C   UNL     1       5.371  -3.119  26.172  0.00  0.00    +0.118 C 
BRANCH  18  19
ATOM     19  N   UNL     1       4.262  -3.866  25.538  0.00  0.00    -0.289 NA
ATOM     20  C   UNL     1       4.382  -5.357  25.606  0.00  0.00    +0.143 C 
ATOM     21  C   UNL     1       5.263  -5.986  24.506  0.00  0.00    +0.032 C 
ATOM     22  C   UNL     1       4.866  -5.540  23.097  0.00  0.00    -0.005 C 
ATOM     23  C   UNL     1       4.864  -4.016  23.016  0.00  0.00    +0.006 C 
ATOM     24  C   UNL     1       6.270  -3.398  22.870  0.00  0.00    +0.005 C 
ATOM     25  C   UNL     1       7.474  -4.315  22.608  0.00  0.00    +0.000 C 
ATOM     26  C   UNL     1       7.221  -5.763  22.202  0.00  0.00    +0.000 C 
ATOM     27  C   UNL     1       5.760  -6.110  21.996  0.00  0.00    +0.004 C 
ATOM     28  C   UNL     1       3.968  -3.452  24.150  0.00  0.00    +0.089 C 
BRANCH  20  29
ATOM     29  C   UNL     1       4.899  -5.890  26.968  0.00  0.00    +0.231 C 
ATOM     30  N   UNL     1       4.282  -5.369  28.090  0.00  0.00    -0.309 N 
ATOM     31  H   UNL     1       3.687  -4.560  27.960  0.00  0.00    +0.149 HD
ATOM     32  O   UNL     1       5.777  -6.751  27.036  0.00  0.00    -0.274 OA
BRANCH  30  33
ATOM     33  C   UNL     1       4.464  -5.915  29.450  0.00  0.00    +0.026 C 
ATOM     34  C   UNL     1       3.579  -7.160  29.655  0.00  0.00    +0.031 C 
ATOM     35  C   UNL     1       4.022  -4.863  30.484  0.00  0.00    +0.031 C 
ATOM     36  C   UNL     1       5.936  -6.270  29.725  0.00  0.00    +0.031 C 
ENDBRANCH  30  33
ENDBRANCH  20  29
ENDBRANCH  18  19
ENDBRANCH  15  18
ENDBRANCH   1  15
BRANCH   1  37
ATOM     37  C   UNL     1       5.860   0.491  27.891  0.00  0.00    +0.099 C 
BRANCH  37  38
ATOM     38  S   UNL     1       4.620   1.512  26.991  0.00  0.00    -0.123 S 
BRANCH  38  39
ATOM     39  C   UNL     1       5.690   2.609  26.077  0.00  0.00    +0.008 A 
ATOM     40  C   UNL     1       6.919   3.000  26.615  0.00  0.00    +0.015 A 
ATOM     41  C   UNL     1       7.738   3.903  25.928  0.00  0.00    +0.001 A 
ATOM     42  C   UNL     1       7.320   4.421  24.701  0.00  0.00    +0.000 A 
ATOM     43  C   UNL     1       6.087   4.044  24.163  0.00  0.00    +0.001 A 
ATOM     44  C   UNL     1       5.273   3.144  24.854  0.00  0.00    +0.015 A 
ENDBRANCH  38  39
ENDBRANCH  37  38
ENDBRANCH   1  37
TORSDOF 12
ENDMDL
MODEL 9
REMARK VINA RESULT:      -6.6      2.120      4.484
REMARK  Name = 
REMARK  16 active torsions:
REMARK  status: ('A' for Active; 'I' for Inactive)
REMARK    1  A    between atoms: C_1  and  C_2
REMARK    2  A    between atoms: C_3  and  C_9
REMARK    3  A    between atoms: C_7  and  O_8
REMARK    4  A    between atoms: N_11  and  C_12
REMARK    5  A    between atoms: C_12  and  C_14
REMARK    6  A    between atoms: C_12  and  C_22
REMARK    7  A    between atoms: C_14  and  S_15
REMARK    8  A    between atoms: S_15  and  C_16
REMARK    9  A    between atoms: C_22  and  C_24
REMARK   10  A    between atoms: C_22  and  O_45
REMARK   11  A    between atoms: C_24  and  N_25
REMARK   12  A    between atoms: C_36  and  C_38
REMARK   13  A    between atoms: N_40  and  C_41
REMARK   14  A    between atoms: C_41  and  C_42
REMARK   15  A    between atoms: C_41  and  C_43
REMARK   16  A    between atoms: C_41  and  C_44
REMARK                            x       y       z     vdW  Elec       q    Type
REMARK                         _______ _______ _______ _____ _____    ______ ____
ROOT
ATOM      1  C   UNL     1       7.529  -2.767  24.223  0.00  0.00    +0.113 C 
ENDROOT
BRANCH   1   3
ATOM      2  C   UNL     1       6.273  -4.914  23.841  0.00  0.00    +0.245 C 
ATOM      3  N   UNL     1       6.295  -3.593  24.226  0.00  0.00    -0.305 N 
ATOM      4  H   UNL     1       5.445  -3.189  24.599  0.00  0.00    +0.149 HD
ATOM      5  O   UNL     1       7.259  -5.505  23.417  0.00  0.00    -0.270 OA
BRANCH   2  12
ATOM      6  C   UNL     1       5.484  -6.407  26.485  0.00  0.00    +0.048 C 
ATOM      7  C   UNL     1       4.651  -6.370  25.233  0.00  0.00    +0.003 A 
ATOM      8  C   UNL     1       3.415  -7.050  25.252  0.00  0.00    +0.120 A 
ATOM      9  C   UNL     1       2.532  -7.018  24.175  0.00  0.00    +0.046 A 
ATOM     10  C   UNL     1       2.864  -6.284  23.044  0.00  0.00    +0.004 A 
ATOM     11  C   UNL     1       4.084  -5.607  22.992  0.00  0.00    +0.013 A 
ATOM     12  C   UNL     1       4.994  -5.658  24.065  0.00  0.00    +0.043 A 
BRANCH   8  13
ATOM     13  O   UNL     1       3.075  -7.755  26.377  0.00  0.00    -0.506 OA
ATOM     14  H   UNL     1       2.471  -8.475  26.129  0.00  0.00    +0.292 HD
ENDBRANCH   8  13
ENDBRANCH   2  12
ENDBRANCH   1   3
BRANCH   1  15
ATOM     15  C   UNL     1       7.564  -1.908  25.535  0.00  0.00    +0.149 C 
BRANCH  15  16
ATOM     16  O   UNL     1       7.246  -2.595  26.745  0.00  0.00    -0.389 OA
ATOM     17  H   UNL     1       6.826  -1.979  27.372  0.00  0.00    +0.210 HD
ENDBRANCH  15  16
BRANCH  15  18
ATOM     18  C   UNL     1       6.722  -0.581  25.439  0.00  0.00    +0.118 C 
BRANCH  18  19
ATOM     19  N   UNL     1       6.670   0.306  26.623  0.00  0.00    -0.289 NA
ATOM     20  C   UNL     1       5.292   0.652  27.094  0.00  0.00    +0.143 C 
ATOM     21  C   UNL     1       4.628   1.827  26.345  0.00  0.00    +0.032 C 
ATOM     22  C   UNL     1       5.510   3.076  26.294  0.00  0.00    -0.005 C 
ATOM     23  C   UNL     1       6.871   2.726  25.701  0.00  0.00    +0.006 C 
ATOM     24  C   UNL     1       6.869   2.604  24.163  0.00  0.00    +0.005 C 
ATOM     25  C   UNL     1       5.623   3.036  23.374  0.00  0.00    +0.000 C 
ATOM     26  C   UNL     1       4.546   3.847  24.087  0.00  0.00    +0.000 C 
ATOM     27  C   UNL     1       4.892   4.234  25.511  0.00  0.00    +0.004 C 
ATOM     28  C   UNL     1       7.477   1.537  26.494  0.00  0.00    +0.089 C 
BRANCH  20  29
ATOM     29  C   UNL     1       4.294  -0.535  27.062  0.00  0.00    +0.231 C 
ATOM     30  N   UNL     1       4.618  -1.615  27.862  0.00  0.00    -0.309 N 
ATOM     31  H   UNL     1       5.552  -1.639  28.255  0.00  0.00    +0.149 HD
ATOM     32  O   UNL     1       3.261  -0.495  26.393  0.00  0.00    -0.274 OA
BRANCH  30  33
ATOM     33  C   UNL     1       3.690  -2.727  28.149  0.00  0.00    +0.026 C 
ATOM     34  C   UNL     1       4.390  -3.810  28.993  0.00  0.00    +0.031 C 
ATOM     35  C   UNL     1       3.259  -3.385  26.824  0.00  0.00    +0.031 C 
ATOM     36  C   UNL     1       2.426  -2.236  28.875  0.00  0.00    +0.031 C 
ENDBRANCH  30  33
ENDBRANCH  20  29
ENDBRANCH  18  19
ENDBRANCH  15  18
ENDBRANCH   1  15
BRANCH   1  37
ATOM     37  C   UNL     1       7.589  -1.933  22.909  0.00  0.00    +0.099 C 
BRANCH  37  38
ATOM     38  S   UNL     1       9.261  -1.855  22.143  0.00  0.00    -0.123 S 
BRANCH  38  39
ATOM     39  C   UNL     1       9.790  -0.232  22.659  0.00  0.00    +0.008 A 
ATOM     40  C   UNL     1      10.271  -0.029  23.955  0.00  0.00    +0.015 A 
ATOM     41  C   UNL     1      10.636   1.252  24.384  0.00  0.00    +0.001 A 
ATOM     42  C   UNL     1      10.512   2.335  23.511  0.00  0.00    +0.000 A 
ATOM     43  C   UNL     1      10.021   2.143  22.218  0.00  0.00    +0.001 A 
ATOM     44  C   UNL     1       9.656   0.861  21.797  0.00  0.00    +0.015 A 
ENDBRANCH  38  39
ENDBRANCH  37  38
ENDBRANCH   1  37
TORSDOF 12
ENDMDL
