MODEL 1
REMARK VINA RESULT:      -6.0      0.000      0.000
REMARK  Name = 
REMARK  16 active torsions:
REMARK  status: ('A' for Active; 'I' for Inactive)
REMARK    1  A    between atoms: C_1  and  C_2
REMARK    2  A    between atoms: C_2  and  N_3
REMARK    3  A    between atoms: N_3  and  C_4
REMARK    4  A    between atoms: N_3  and  C_6
REMARK    5  A    between atoms: C_4  and  C_5
REMARK    6  A    between atoms: C_6  and  C_7
REMARK    7  A    between atoms: C_7  and  O_8
REMARK    8  A    between atoms: O_8  and  C_9
REMARK    9  A    between atoms: C_20  and  O_23
REMARK   10  A    between atoms: O_23  and  C_24
REMARK   11  A    between atoms: C_24  and  C_25
REMARK   12  A    between atoms: C_25  and  N_26
REMARK   13  A    between atoms: N_26  and  C_27
REMARK   14  A    between atoms: N_26  and  C_29
REMARK   15  A    between atoms: C_27  and  C_28
REMARK   16  A    between atoms: C_29  and  C_30
REMARK                            x       y       z     vdW  Elec       q    Type
REMARK                         _______ _______ _______ _____ _____    ______ ____
ROOT
ATOM      1  C   UNL     1       4.563  -6.614  24.395  0.00  0.00    +0.121 A 
ATOM      2  C   UNL     1       5.354  -6.402  25.543  0.00  0.00    +0.046 A 
ATOM      3  C   UNL     1       6.378  -5.439  25.566  0.00  0.00    +0.013 A 
ATOM      4  C   UNL     1       6.589  -4.689  24.426  0.00  0.00    -0.006 A 
ATOM      5  C   UNL     1       7.590  -3.696  24.093  0.00  0.00    -0.006 A 
ATOM      6  C   UNL     1       8.659  -3.180  24.803  0.00  0.00    +0.013 A 
ATOM      7  C   UNL     1       9.502  -2.257  24.157  0.00  0.00    +0.046 A 
ATOM      8  C   UNL     1       9.274  -1.847  22.828  0.00  0.00    +0.121 A 
ATOM      9  C   UNL     1       8.197  -2.372  22.115  0.00  0.00    +0.058 A 
ATOM     10  C   UNL     1       7.387  -3.274  22.769  0.00  0.00    +0.033 A 
ATOM     11  C   UNL     1       6.210  -3.994  22.238  0.00  0.00    +0.195 C 
ATOM     12  O   UNL     1       5.726  -3.876  21.134  0.00  0.00    -0.287 OA
ATOM     13  C   UNL     1       5.757  -4.886  23.313  0.00  0.00    +0.033 A 
ATOM     14  C   UNL     1       4.733  -5.813  23.267  0.00  0.00    +0.058 A 
ENDROOT
BRANCH   1  15
ATOM     15  O   UNL     1       3.665  -7.645  24.484  0.00  0.00    -0.491 OA
BRANCH  15  16
ATOM     16  C   UNL     1       2.729  -7.539  25.566  0.00  0.00    +0.244 C 
BRANCH  16  17
ATOM     17  C   UNL     1       1.336  -7.255  24.984  0.00  0.00    +0.125 C 
BRANCH  17  18
ATOM     18  N   UNL     1       0.958  -5.828  24.945  0.00  0.00    -0.300 NA
BRANCH  18  20
ATOM     19  C   UNL     1       2.362  -3.823  25.565  0.00  0.00    +0.020 C 
ATOM     20  C   UNL     1       1.666  -5.104  26.016  0.00  0.00    +0.081 C 
ENDBRANCH  18  20
BRANCH  18  21
ATOM     21  C   UNL     1       1.088  -5.214  23.616  0.00  0.00    +0.081 C 
ATOM     22  C   UNL     1       0.839  -6.133  22.425  0.00  0.00    +0.020 C 
ENDBRANCH  18  21
ENDBRANCH  17  18
ENDBRANCH  16  17
ENDBRANCH  15  16
ENDBRANCH   1  15
BRANCH   8  23
ATOM     23  O   UNL     1      10.182  -0.962  22.297  0.00  0.00    -0.491 OA
BRANCH  23  24
ATOM     24  C   UNL     1       9.570   0.138  21.604  0.00  0.00    +0.244 C 
BRANCH  24  25
ATOM     25  C   UNL     1      10.080   1.486  22.144  0.00  0.00    +0.125 C 
BRANCH  25  26
ATOM     26  N   UNL     1       9.160   2.121  23.121  0.00  0.00    -0.300 NA
BRANCH  26  27
ATOM     27  C   UNL     1       9.455   1.646  24.483  0.00  0.00    +0.081 C 
ATOM     28  C   UNL     1       8.245   1.091  25.231  0.00  0.00    +0.020 C 
ENDBRANCH  26  27
BRANCH  26  29
ATOM     29  C   UNL     1       7.741   2.022  22.747  0.00  0.00    +0.081 C 
ATOM     30  C   UNL     1       7.148   3.235  22.038  0.00  0.00    +0.020 C 
ENDBRANCH  26  29
ENDBRANCH  25  26
ENDBRANCH  24  25
ENDBRANCH  23  24
ENDBRANCH   8  23
TORSDOF 12
ENDMDL
MODEL 2
REMARK VINA RESULT:      -6.0      2.004      7.989
REMARK  Name = 
REMARK  16 active torsions:
REMARK  status: ('A' for Active; 'I' for Inactive)
REMARK    1  A    between atoms: C_1  and  C_2
REMARK    2  A    between atoms: C_2  and  N_3
REMARK    3  A    between atoms: N_3  and  C_4
REMARK    4  A    between atoms: N_3  and  C_6
REMARK    5  A    between atoms: C_4  and  C_5
REMARK    6  A    between atoms: C_6  and  C_7
REMARK    7  A    between atoms: C_7  and  O_8
REMARK    8  A    between atoms: O_8  and  C_9
REMARK    9  A    between atoms: C_20  and  O_23
REMARK   10  A    between atoms: O_23  and  C_24
REMARK   11  A    between atoms: C_24  and  C_25
REMARK   12  A    between atoms: C_25  and  N_26
REMARK   13  A    between atoms: N_26  and  C_27
REMARK   14  A    between atoms: N_26  and  C_29
REMARK   15  A    between atoms: C_27  and  C_28
REMARK   16  A    between atoms: C_29  and  C_30
REMARK                            x       y       z     vdW  Elec       q    Type
REMARK                         _______ _______ _______ _____ _____    ______ ____
ROOT
ATOM      1  C   UNL     1       9.555  -0.670  22.341  0.00  0.00    +0.121 A 
ATOM      2  C   UNL     1      10.115  -0.616  23.635  0.00  0.00    +0.046 A 
ATOM      3  C   UNL     1       9.761  -1.542  24.630  0.00  0.00    +0.013 A 
ATOM      4  C   UNL     1       8.844  -2.523  24.308  0.00  0.00    -0.006 A 
ATOM      5  C   UNL     1       8.213  -3.558  25.103  0.00  0.00    -0.006 A 
ATOM      6  C   UNL     1       8.319  -3.896  26.440  0.00  0.00    +0.013 A 
ATOM      7  C   UNL     1       7.503  -4.932  26.930  0.00  0.00    +0.046 A 
ATOM      8  C   UNL     1       6.604  -5.626  26.096  0.00  0.00    +0.121 A 
ATOM      9  C   UNL     1       6.498  -5.281  24.749  0.00  0.00    +0.058 A 
ATOM     10  C   UNL     1       7.308  -4.263  24.294  0.00  0.00    +0.033 A 
ATOM     11  C   UNL     1       7.371  -3.687  22.934  0.00  0.00    +0.195 C 
ATOM     12  O   UNL     1       6.741  -4.050  21.964  0.00  0.00    -0.287 OA
ATOM     13  C   UNL     1       8.337  -2.584  23.000  0.00  0.00    +0.033 A 
ATOM     14  C   UNL     1       8.680  -1.698  21.997  0.00  0.00    +0.058 A 
ENDROOT
BRANCH   1  15
ATOM     15  O   UNL     1       9.922   0.348  21.501  0.00  0.00    -0.491 OA
BRANCH  15  16
ATOM     16  C   UNL     1       9.796   1.666  22.057  0.00  0.00    +0.244 C 
BRANCH  16  17
ATOM     17  C   UNL     1       8.354   2.151  21.847  0.00  0.00    +0.125 C 
BRANCH  17  18
ATOM     18  N   UNL     1       7.585   2.368  23.090  0.00  0.00    -0.300 NA
BRANCH  18  20
ATOM     19  C   UNL     1       6.585   0.478  24.433  0.00  0.00    +0.020 C 
ATOM     20  C   UNL     1       6.516   1.358  23.188  0.00  0.00    +0.081 C 
ENDBRANCH  18  20
BRANCH  18  21
ATOM     21  C   UNL     1       8.420   2.479  24.295  0.00  0.00    +0.081 C 
ATOM     22  C   UNL     1       8.577   3.879  24.876  0.00  0.00    +0.020 C 
ENDBRANCH  18  21
ENDBRANCH  17  18
ENDBRANCH  16  17
ENDBRANCH  15  16
ENDBRANCH   1  15
BRANCH   8  23
ATOM     23  O   UNL     1       5.841  -6.600  26.695  0.00  0.00    -0.491 OA
BRANCH  23  24
ATOM     24  C   UNL     1       4.456  -6.555  26.318  0.00  0.00    +0.244 C 
BRANCH  24  25
ATOM     25  C   UNL     1       3.567  -6.170  27.514  0.00  0.00    +0.125 C 
BRANCH  25  26
ATOM     26  N   UNL     1       3.316  -4.712  27.623  0.00  0.00    -0.300 NA
BRANCH  26  27
ATOM     27  C   UNL     1       3.267  -4.101  26.284  0.00  0.00    +0.081 C 
ATOM     28  C   UNL     1       4.100  -2.829  26.142  0.00  0.00    +0.020 C 
ENDBRANCH  26  27
BRANCH  26  29
ATOM     29  C   UNL     1       4.217  -4.025  28.560  0.00  0.00    +0.081 C 
ATOM     30  C   UNL     1       4.806  -4.884  29.675  0.00  0.00    +0.020 C 
ENDBRANCH  26  29
ENDBRANCH  25  26
ENDBRANCH  24  25
ENDBRANCH  23  24
ENDBRANCH   8  23
TORSDOF 12
ENDMDL
MODEL 3
REMARK VINA RESULT:      -6.0      2.651      3.983
REMARK  Name = 
REMARK  16 active torsions:
REMARK  status: ('A' for Active; 'I' for Inactive)
REMARK    1  A    between atoms: C_1  and  C_2
REMARK    2  A    between atoms: C_2  and  N_3
REMARK    3  A    between atoms: N_3  and  C_4
REMARK    4  A    between atoms: N_3  and  C_6
REMARK    5  A    between atoms: C_4  and  C_5
REMARK    6  A    between atoms: C_6  and  C_7
REMARK    7  A    between atoms: C_7  and  O_8
REMARK    8  A    between atoms: O_8  and  C_9
REMARK    9  A    between atoms: C_20  and  O_23
REMARK   10  A    between atoms: O_23  and  C_24
REMARK   11  A    between atoms: C_24  and  C_25
REMARK   12  A    between atoms: C_25  and  N_26
REMARK   13  A    between atoms: N_26  and  C_27
REMARK   14  A    between atoms: N_26  and  C_29
REMARK   15  A    between atoms: C_27  and  C_28
REMARK   16  A    between atoms: C_29  and  C_30
REMARK                            x       y       z     vdW  Elec       q    Type
REMARK                         _______ _______ _______ _____ _____    ______ ____
ROOT
ATOM      1  C   UNL     1       7.469  -4.948  25.645  0.00  0.00    +0.121 A 
ATOM      2  C   UNL     1       7.569  -5.162  24.254  0.00  0.00    +0.046 A 
ATOM      3  C   UNL     1       8.077  -4.177  23.391  0.00  0.00    +0.013 A 
ATOM      4  C   UNL     1       8.489  -2.979  23.944  0.00  0.00    -0.006 A 
ATOM      5  C   UNL     1       8.972  -1.752  23.344  0.00  0.00    -0.006 A 
ATOM      6  C   UNL     1       9.174  -1.378  22.027  0.00  0.00    +0.013 A 
ATOM      7  C   UNL     1       9.597  -0.062  21.768  0.00  0.00    +0.046 A 
ATOM      8  C   UNL     1       9.826   0.863  22.807  0.00  0.00    +0.121 A 
ATOM      9  C   UNL     1       9.619   0.482  24.133  0.00  0.00    +0.058 A 
ATOM     10  C   UNL     1       9.204  -0.812  24.360  0.00  0.00    +0.033 A 
ATOM     11  C   UNL     1       8.887  -1.453  25.654  0.00  0.00    +0.195 C 
ATOM     12  O   UNL     1       8.982  -0.952  26.752  0.00  0.00    -0.287 OA
ATOM     13  C   UNL     1       8.423  -2.809  25.335  0.00  0.00    +0.033 A 
ATOM     14  C   UNL     1       7.944  -3.765  26.209  0.00  0.00    +0.058 A 
ENDROOT
BRANCH   1  15
ATOM     15  O   UNL     1       6.871  -5.958  26.351  0.00  0.00    -0.491 OA
BRANCH  15  16
ATOM     16  C   UNL     1       5.557  -5.656  26.844  0.00  0.00    +0.244 C 
BRANCH  16  17
ATOM     17  C   UNL     1       4.533  -5.998  25.751  0.00  0.00    +0.125 C 
BRANCH  17  18
ATOM     18  N   UNL     1       3.609  -4.900  25.400  0.00  0.00    -0.300 NA
BRANCH  18  20
ATOM     19  C   UNL     1       4.633  -2.614  25.086  0.00  0.00    +0.020 C 
ATOM     20  C   UNL     1       4.061  -3.654  26.045  0.00  0.00    +0.081 C 
ENDBRANCH  18  20
BRANCH  18  21
ATOM     21  C   UNL     1       3.356  -4.774  23.958  0.00  0.00    +0.081 C 
ATOM     22  C   UNL     1       4.144  -5.716  23.054  0.00  0.00    +0.020 C 
ENDBRANCH  18  21
ENDBRANCH  17  18
ENDBRANCH  16  17
ENDBRANCH  15  16
ENDBRANCH   1  15
BRANCH   8  23
ATOM     23  O   UNL     1      10.211   2.127  22.427  0.00  0.00    -0.491 OA
BRANCH  23  24
ATOM     24  C   UNL     1      10.823   2.881  23.485  0.00  0.00    +0.244 C 
BRANCH  24  25
ATOM     25  C   UNL     1      10.129   4.242  23.670  0.00  0.00    +0.125 C 
BRANCH  25  26
ATOM     26  N   UNL     1      11.041   5.401  23.506  0.00  0.00    -0.300 NA
BRANCH  26  27
ATOM     27  C   UNL     1      12.429   4.938  23.340  0.00  0.00    +0.081 C 
ATOM     28  C   UNL     1      13.201   5.651  22.231  0.00  0.00    +0.020 C 
ENDBRANCH  26  27
BRANCH  26  29
ATOM     29  C   UNL     1      10.875   6.435  24.538  0.00  0.00    +0.081 C 
ATOM     30  C   UNL     1       9.523   6.467  25.244  0.00  0.00    +0.020 C 
ENDBRANCH  26  29
ENDBRANCH  25  26
ENDBRANCH  24  25
ENDBRANCH  23  24
ENDBRANCH   8  23
TORSDOF 12
ENDMDL
MODEL 4
REMARK VINA RESULT:      -6.0      1.562      7.897
REMARK  Name = 
REMARK  16 active torsions:
REMARK  status: ('A' for Active; 'I' for Inactive)
REMARK    1  A    between atoms: C_1  and  C_2
REMARK    2  A    between atoms: C_2  and  N_3
REMARK    3  A    between atoms: N_3  and  C_4
REMARK    4  A    between atoms: N_3  and  C_6
REMARK    5  A    between atoms: C_4  and  C_5
REMARK    6  A    between atoms: C_6  and  C_7
REMARK    7  A    between atoms: C_7  and  O_8
REMARK    8  A    between atoms: O_8  and  C_9
REMARK    9  A    between atoms: C_20  and  O_23
REMARK   10  A    between atoms: O_23  and  C_24
REMARK   11  A    between atoms: C_24  and  C_25
REMARK   12  A    between atoms: C_25  and  N_26
REMARK   13  A    between atoms: N_26  and  C_27
REMARK   14  A    between atoms: N_26  and  C_29
REMARK   15  A    between atoms: C_27  and  C_28
REMARK   16  A    between atoms: C_29  and  C_30
REMARK                            x       y       z     vdW  Elec       q    Type
REMARK                         _______ _______ _______ _____ _____    ______ ____
ROOT
ATOM      1  C   UNL     1       9.553  -0.654  22.315  0.00  0.00    +0.121 A 
ATOM      2  C   UNL     1      10.078  -0.554  23.621  0.00  0.00    +0.046 A 
ATOM      3  C   UNL     1       9.721  -1.464  24.630  0.00  0.00    +0.013 A 
ATOM      4  C   UNL     1       8.839  -2.477  24.309  0.00  0.00    -0.006 A 
ATOM      5  C   UNL     1       8.214  -3.508  25.114  0.00  0.00    -0.006 A 
ATOM      6  C   UNL     1       8.293  -3.810  26.461  0.00  0.00    +0.013 A 
ATOM      7  C   UNL     1       7.492  -4.854  26.956  0.00  0.00    +0.046 A 
ATOM      8  C   UNL     1       6.633  -5.593  26.117  0.00  0.00    +0.121 A 
ATOM      9  C   UNL     1       6.554  -5.283  24.759  0.00  0.00    +0.058 A 
ATOM     10  C   UNL     1       7.349  -4.256  24.299  0.00  0.00    +0.033 A 
ATOM     11  C   UNL     1       7.433  -3.712  22.927  0.00  0.00    +0.195 C 
ATOM     12  O   UNL     1       6.839  -4.116  21.952  0.00  0.00    -0.287 OA
ATOM     13  C   UNL     1       8.369  -2.583  22.991  0.00  0.00    +0.033 A 
ATOM     14  C   UNL     1       8.715  -1.714  21.974  0.00  0.00    +0.058 A 
ENDROOT
BRANCH   1  15
ATOM     15  O   UNL     1       9.916   0.352  21.459  0.00  0.00    -0.491 OA
BRANCH  15  16
ATOM     16  C   UNL     1       9.830   1.674  22.010  0.00  0.00    +0.244 C 
BRANCH  16  17
ATOM     17  C   UNL     1       8.381   2.167  21.880  0.00  0.00    +0.125 C 
BRANCH  17  18
ATOM     18  N   UNL     1       7.661   2.324  23.160  0.00  0.00    -0.300 NA
BRANCH  18  20
ATOM     19  C   UNL     1       7.204   4.631  22.243  0.00  0.00    +0.020 C 
ATOM     20  C   UNL     1       7.499   3.758  23.459  0.00  0.00    +0.081 C 
ENDBRANCH  18  20
BRANCH  18  21
ATOM     21  C   UNL     1       6.415   1.548  23.241  0.00  0.00    +0.081 C 
ATOM     22  C   UNL     1       6.420   0.369  24.208  0.00  0.00    +0.020 C 
ENDBRANCH  18  21
ENDBRANCH  17  18
ENDBRANCH  16  17
ENDBRANCH  15  16
ENDBRANCH   1  15
BRANCH   8  23
ATOM     23  O   UNL     1       5.879  -6.571  26.721  0.00  0.00    -0.491 OA
BRANCH  23  24
ATOM     24  C   UNL     1       4.559  -6.697  26.171  0.00  0.00    +0.244 C 
BRANCH  24  25
ATOM     25  C   UNL     1       3.618  -5.617  26.734  0.00  0.00    +0.125 C 
BRANCH  25  26
ATOM     26  N   UNL     1       2.739  -5.002  25.709  0.00  0.00    -0.300 NA
BRANCH  26  27
ATOM     27  C   UNL     1       2.460  -5.966  24.631  0.00  0.00    +0.081 C 
ATOM     28  C   UNL     1       2.687  -5.419  23.223  0.00  0.00    +0.020 C 
ENDBRANCH  26  27
BRANCH  26  29
ATOM     29  C   UNL     1       3.211  -3.693  25.233  0.00  0.00    +0.081 C 
ATOM     30  C   UNL     1       4.081  -2.900  26.204  0.00  0.00    +0.020 C 
ENDBRANCH  26  29
ENDBRANCH  25  26
ENDBRANCH  24  25
ENDBRANCH  23  24
ENDBRANCH   8  23
TORSDOF 12
ENDMDL
MODEL 5
REMARK VINA RESULT:      -5.9      2.755      4.195
REMARK  Name = 
REMARK  16 active torsions:
REMARK  status: ('A' for Active; 'I' for Inactive)
REMARK    1  A    between atoms: C_1  and  C_2
REMARK    2  A    between atoms: C_2  and  N_3
REMARK    3  A    between atoms: N_3  and  C_4
REMARK    4  A    between atoms: N_3  and  C_6
REMARK    5  A    between atoms: C_4  and  C_5
REMARK    6  A    between atoms: C_6  and  C_7
REMARK    7  A    between atoms: C_7  and  O_8
REMARK    8  A    between atoms: O_8  and  C_9
REMARK    9  A    between atoms: C_20  and  O_23
REMARK   10  A    between atoms: O_23  and  C_24
REMARK   11  A    between atoms: C_24  and  C_25
REMARK   12  A    between atoms: C_25  and  N_26
REMARK   13  A    between atoms: N_26  and  C_27
REMARK   14  A    between atoms: N_26  and  C_29
REMARK   15  A    between atoms: C_27  and  C_28
REMARK   16  A    between atoms: C_29  and  C_30
REMARK                            x       y       z     vdW  Elec       q    Type
REMARK                         _______ _______ _______ _____ _____    ______ ____
ROOT
ATOM      1  C   UNL     1       7.696  -4.909  25.977  0.00  0.00    +0.121 A 
ATOM      2  C   UNL     1       7.825  -5.227  24.609  0.00  0.00    +0.046 A 
ATOM      3  C   UNL     1       8.290  -4.286  23.674  0.00  0.00    +0.013 A 
ATOM      4  C   UNL     1       8.629  -3.028  24.133  0.00  0.00    -0.006 A 
ATOM      5  C   UNL     1       9.052  -1.828  23.440  0.00  0.00    -0.006 A 
ATOM      6  C   UNL     1       9.249  -1.549  22.100  0.00  0.00    +0.013 A 
ATOM      7  C   UNL     1       9.603  -0.236  21.740  0.00  0.00    +0.046 A 
ATOM      8  C   UNL     1       9.769   0.779  22.704  0.00  0.00    +0.121 A 
ATOM      9  C   UNL     1       9.566   0.494  24.054  0.00  0.00    +0.058 A 
ATOM     10  C   UNL     1       9.220  -0.799  24.381  0.00  0.00    +0.033 A 
ATOM     11  C   UNL     1       8.922  -1.352  25.719  0.00  0.00    +0.195 C 
ATOM     12  O   UNL     1       8.977  -0.761  26.775  0.00  0.00    -0.287 OA
ATOM     13  C   UNL     1       8.537  -2.753  25.506  0.00  0.00    +0.033 A 
ATOM     14  C   UNL     1       8.100  -3.662  26.449  0.00  0.00    +0.058 A 
ENDROOT
BRANCH   1  15
ATOM     15  O   UNL     1       7.146  -5.892  26.757  0.00  0.00    -0.491 OA
BRANCH  15  16
ATOM     16  C   UNL     1       5.874  -5.563  27.335  0.00  0.00    +0.244 C 
BRANCH  16  17
ATOM     17  C   UNL     1       4.766  -6.145  26.445  0.00  0.00    +0.125 C 
BRANCH  17  18
ATOM     18  N   UNL     1       4.299  -5.247  25.368  0.00  0.00    -0.300 NA
BRANCH  18  20
ATOM     19  C   UNL     1       3.256  -6.035  23.208  0.00  0.00    +0.020 C 
ATOM     20  C   UNL     1       3.117  -5.838  24.715  0.00  0.00    +0.081 C 
ENDBRANCH  18  20
BRANCH  18  21
ATOM     21  C   UNL     1       4.116  -3.852  25.795  0.00  0.00    +0.081 C 
ATOM     22  C   UNL     1       4.791  -2.792  24.931  0.00  0.00    +0.020 C 
ENDBRANCH  18  21
ENDBRANCH  17  18
ENDBRANCH  16  17
ENDBRANCH  15  16
ENDBRANCH   1  15
BRANCH   8  23
ATOM     23  O   UNL     1      10.089   2.029  22.228  0.00  0.00    -0.491 OA
BRANCH  23  24
ATOM     24  C   UNL     1      10.120   3.039  23.247  0.00  0.00    +0.244 C 
BRANCH  24  25
ATOM     25  C   UNL     1      11.495   3.728  23.305  0.00  0.00    +0.125 C 
BRANCH  25  26
ATOM     26  N   UNL     1      11.457   5.082  23.912  0.00  0.00    -0.300 NA
BRANCH  26  27
ATOM     27  C   UNL     1      10.159   5.723  23.646  0.00  0.00    +0.081 C 
ATOM     28  C   UNL     1       9.754   6.774  24.678  0.00  0.00    +0.020 C 
ENDBRANCH  26  27
BRANCH  26  29
ATOM     29  C   UNL     1      12.619   5.916  23.569  0.00  0.00    +0.081 C 
ATOM     30  C   UNL     1      13.276   5.630  22.223  0.00  0.00    +0.020 C 
ENDBRANCH  26  29
ENDBRANCH  25  26
ENDBRANCH  24  25
ENDBRANCH  23  24
ENDBRANCH   8  23
TORSDOF 12
ENDMDL
MODEL 6
REMARK VINA RESULT:      -5.9      1.460      8.056
REMARK  Name = 
REMARK  16 active torsions:
REMARK  status: ('A' for Active; 'I' for Inactive)
REMARK    1  A    between atoms: C_1  and  C_2
REMARK    2  A    between atoms: C_2  and  N_3
REMARK    3  A    between atoms: N_3  and  C_4
REMARK    4  A    between atoms: N_3  and  C_6
REMARK    5  A    between atoms: C_4  and  C_5
REMARK    6  A    between atoms: C_6  and  C_7
REMARK    7  A    between atoms: C_7  and  O_8
REMARK    8  A    between atoms: O_8  and  C_9
REMARK    9  A    between atoms: C_20  and  O_23
REMARK   10  A    between atoms: O_23  and  C_24
REMARK   11  A    between atoms: C_24  and  C_25
REMARK   12  A    between atoms: C_25  and  N_26
REMARK   13  A    between atoms: N_26  and  C_27
REMARK   14  A    between atoms: N_26  and  C_29
REMARK   15  A    between atoms: C_27  and  C_28
REMARK   16  A    between atoms: C_29  and  C_30
REMARK                            x       y       z     vdW  Elec       q    Type
REMARK                         _______ _______ _______ _____ _____    ______ ____
ROOT
ATOM      1  C   UNL     1       9.380  -1.928  22.555  0.00  0.00    +0.121 A 
ATOM      2  C   UNL     1       9.823  -2.396  23.810  0.00  0.00    +0.046 A 
ATOM      3  C   UNL     1       9.090  -3.344  24.544  0.00  0.00    +0.013 A 
ATOM      4  C   UNL     1       7.913  -3.819  23.998  0.00  0.00    -0.006 A 
ATOM      5  C   UNL     1       6.900  -4.717  24.515  0.00  0.00    -0.006 A 
ATOM      6  C   UNL     1       6.778  -5.384  25.720  0.00  0.00    +0.013 A 
ATOM      7  C   UNL     1       5.614  -6.142  25.945  0.00  0.00    +0.046 A 
ATOM      8  C   UNL     1       4.594  -6.241  24.977  0.00  0.00    +0.121 A 
ATOM      9  C   UNL     1       4.720  -5.564  23.764  0.00  0.00    +0.058 A 
ATOM     10  C   UNL     1       5.869  -4.828  23.569  0.00  0.00    +0.033 A 
ATOM     11  C   UNL     1       6.234  -4.002  22.399  0.00  0.00    +0.195 C 
ATOM     12  O   UNL     1       5.592  -3.866  21.380  0.00  0.00    -0.287 OA
ATOM     13  C   UNL     1       7.519  -3.373  22.727  0.00  0.00    +0.033 A 
ATOM     14  C   UNL     1       8.227  -2.455  21.976  0.00  0.00    +0.058 A 
ENDROOT
BRANCH   1  15
ATOM     15  O   UNL     1      10.145  -0.939  21.996  0.00  0.00    -0.491 OA
BRANCH  15  16
ATOM     16  C   UNL     1       9.404   0.127  21.385  0.00  0.00    +0.244 C 
BRANCH  16  17
ATOM     17  C   UNL     1       9.793   1.448  22.066  0.00  0.00    +0.125 C 
BRANCH  17  18
ATOM     18  N   UNL     1       8.898   1.868  23.164  0.00  0.00    -0.300 NA
BRANCH  18  20
ATOM     19  C   UNL     1       7.083   0.458  24.209  0.00  0.00    +0.020 C 
ATOM     20  C   UNL     1       7.579   1.232  22.992  0.00  0.00    +0.081 C 
ENDBRANCH  18  20
BRANCH  18  21
ATOM     21  C   UNL     1       9.478   1.696  24.504  0.00  0.00    +0.081 C 
ATOM     22  C   UNL     1      10.848   1.028  24.561  0.00  0.00    +0.020 C 
ENDBRANCH  18  21
ENDBRANCH  17  18
ENDBRANCH  16  17
ENDBRANCH  15  16
ENDBRANCH   1  15
BRANCH   8  23
ATOM     23  O   UNL     1       3.493  -6.988  25.323  0.00  0.00    -0.491 OA
BRANCH  23  24
ATOM     24  C   UNL     1       3.082  -6.805  26.686  0.00  0.00    +0.244 C 
BRANCH  24  25
ATOM     25  C   UNL     1       2.192  -5.559  26.835  0.00  0.00    +0.125 C 
BRANCH  25  26
ATOM     26  N   UNL     1       2.672  -4.605  27.866  0.00  0.00    -0.300 NA
BRANCH  26  27
ATOM     27  C   UNL     1       3.298  -3.436  27.228  0.00  0.00    +0.081 C 
ATOM     28  C   UNL     1       2.792  -3.145  25.816  0.00  0.00    +0.020 C 
ENDBRANCH  26  27
BRANCH  26  29
ATOM     29  C   UNL     1       3.498  -5.230  28.911  0.00  0.00    +0.081 C 
ATOM     30  C   UNL     1       4.796  -4.509  29.260  0.00  0.00    +0.020 C 
ENDBRANCH  26  29
ENDBRANCH  25  26
ENDBRANCH  24  25
ENDBRANCH  23  24
ENDBRANCH   8  23
TORSDOF 12
ENDMDL
MODEL 7
REMARK VINA RESULT:      -5.8      0.591      8.291
REMARK  Name = 
REMARK  16 active torsions:
REMARK  status: ('A' for Active; 'I' for Inactive)
REMARK    1  A    between atoms: C_1  and  C_2
REMARK    2  A    between atoms: C_2  and  N_3
REMARK    3  A    between atoms: N_3  and  C_4
REMARK    4  A    between atoms: N_3  and  C_6
REMARK    5  A    between atoms: C_4  and  C_5
REMARK    6  A    between atoms: C_6  and  C_7
REMARK    7  A    between atoms: C_7  and  O_8
REMARK    8  A    between atoms: O_8  and  C_9
REMARK    9  A    between atoms: C_20  and  O_23
REMARK   10  A    between atoms: O_23  and  C_24
REMARK   11  A    between atoms: C_24  and  C_25
REMARK   12  A    between atoms: C_25  and  N_26
REMARK   13  A    between atoms: N_26  and  C_27
REMARK   14  A    between atoms: N_26  and  C_29
REMARK   15  A    between atoms: C_27  and  C_28
REMARK   16  A    between atoms: C_29  and  C_30
REMARK                            x       y       z     vdW  Elec       q    Type
REMARK                         _______ _______ _______ _____ _____    ______ ____
ROOT
ATOM      1  C   UNL     1       9.177  -1.902  23.025  0.00  0.00    +0.121 A 
ATOM      2  C   UNL     1       9.394  -2.287  24.365  0.00  0.00    +0.046 A 
ATOM      3  C   UNL     1       8.642  -3.308  24.969  0.00  0.00    +0.013 A 
ATOM      4  C   UNL     1       7.678  -3.941  24.209  0.00  0.00    -0.006 A 
ATOM      5  C   UNL     1       6.695  -4.953  24.541  0.00  0.00    -0.006 A 
ATOM      6  C   UNL     1       6.399  -5.609  25.722  0.00  0.00    +0.013 A 
ATOM      7  C   UNL     1       5.316  -6.507  25.730  0.00  0.00    +0.046 A 
ATOM      8  C   UNL     1       4.548  -6.754  24.574  0.00  0.00    +0.121 A 
ATOM      9  C   UNL     1       4.848  -6.088  23.386  0.00  0.00    +0.058 A 
ATOM     10  C   UNL     1       5.913  -5.214  23.404  0.00  0.00    +0.033 A 
ATOM     11  C   UNL     1       6.417  -4.368  22.302  0.00  0.00    +0.195 C 
ATOM     12  O   UNL     1       5.998  -4.335  21.166  0.00  0.00    -0.287 OA
ATOM     13  C   UNL     1       7.515  -3.572  22.865  0.00  0.00    +0.033 A 
ATOM     14  C   UNL     1       8.250  -2.584  22.240  0.00  0.00    +0.058 A 
ENDROOT
BRANCH   1  15
ATOM     15  O   UNL     1       9.918  -0.833  22.595  0.00  0.00    -0.491 OA
BRANCH  15  16
ATOM     16  C   UNL     1       9.358  -0.116  21.485  0.00  0.00    +0.244 C 
BRANCH  16  17
ATOM     17  C   UNL     1       9.192   1.358  21.887  0.00  0.00    +0.125 C 
BRANCH  17  18
ATOM     18  N   UNL     1       8.540   1.575  23.195  0.00  0.00    -0.300 NA
BRANCH  18  20
ATOM     19  C   UNL     1      10.669   2.918  23.400  0.00  0.00    +0.020 C 
ATOM     20  C   UNL     1       9.473   2.274  24.097  0.00  0.00    +0.081 C 
ENDBRANCH  18  20
BRANCH  18  21
ATOM     21  C   UNL     1       7.213   2.200  23.101  0.00  0.00    +0.081 C 
ATOM     22  C   UNL     1       7.087   3.365  22.125  0.00  0.00    +0.020 C 
ENDBRANCH  18  21
ENDBRANCH  17  18
ENDBRANCH  16  17
ENDBRANCH  15  16
ENDBRANCH   1  15
BRANCH   8  23
ATOM     23  O   UNL     1       3.498  -7.631  24.713  0.00  0.00    -0.491 OA
BRANCH  23  24
ATOM     24  C   UNL     1       2.587  -7.272  25.763  0.00  0.00    +0.244 C 
BRANCH  24  25
ATOM     25  C   UNL     1       1.237  -6.807  25.191  0.00  0.00    +0.125 C 
BRANCH  25  26
ATOM     26  N   UNL     1       1.057  -5.334  25.215  0.00  0.00    -0.300 NA
BRANCH  26  27
ATOM     27  C   UNL     1       0.948  -4.812  23.842  0.00  0.00    +0.081 C 
ATOM     28  C   UNL     1       1.145  -5.863  22.752  0.00  0.00    +0.020 C 
ENDBRANCH  26  27
BRANCH  26  29
ATOM     29  C   UNL     1       2.046  -4.631  26.046  0.00  0.00    +0.081 C 
ATOM     30  C   UNL     1       2.876  -3.563  25.342  0.00  0.00    +0.020 C 
ENDBRANCH  26  29
ENDBRANCH  25  26
ENDBRANCH  24  25
ENDBRANCH  23  24
ENDBRANCH   8  23
TORSDOF 12
ENDMDL
MODEL 8
REMARK VINA RESULT:      -5.8      2.458      3.723
REMARK  Name = 
REMARK  16 active torsions:
REMARK  status: ('A' for Active; 'I' for Inactive)
REMARK    1  A    between atoms: C_1  and  C_2
REMARK    2  A    between atoms: C_2  and  N_3
REMARK    3  A    between atoms: N_3  and  C_4
REMARK    4  A    between atoms: N_3  and  C_6
REMARK    5  A    between atoms: C_4  and  C_5
REMARK    6  A    between atoms: C_6  and  C_7
REMARK    7  A    between atoms: C_7  and  O_8
REMARK    8  A    between atoms: O_8  and  C_9
REMARK    9  A    between atoms: C_20  and  O_23
REMARK   10  A    between atoms: O_23  and  C_24
REMARK   11  A    between atoms: C_24  and  C_25
REMARK   12  A    between atoms: C_25  and  N_26
REMARK   13  A    between atoms: N_26  and  C_27
REMARK   14  A    between atoms: N_26  and  C_29
REMARK   15  A    between atoms: C_27  and  C_28
REMARK   16  A    between atoms: C_29  and  C_30
REMARK                            x       y       z     vdW  Elec       q    Type
REMARK                         _______ _______ _______ _____ _____    ______ ____
ROOT
ATOM      1  C   UNL     1       7.830  -4.858  25.956  0.00  0.00    +0.121 A 
ATOM      2  C   UNL     1       8.087  -5.067  24.585  0.00  0.00    +0.046 A 
ATOM      3  C   UNL     1       8.608  -4.049  23.769  0.00  0.00    +0.013 A 
ATOM      4  C   UNL     1       8.874  -2.824  24.350  0.00  0.00    -0.006 A 
ATOM      5  C   UNL     1       9.326  -1.566  23.791  0.00  0.00    -0.006 A 
ATOM      6  C   UNL     1       9.633  -1.181  22.498  0.00  0.00    +0.013 A 
ATOM      7  C   UNL     1       9.985   0.162  22.271  0.00  0.00    +0.046 A 
ATOM      8  C   UNL     1      10.039   1.103  23.320  0.00  0.00    +0.121 A 
ATOM      9  C   UNL     1       9.726   0.711  24.621  0.00  0.00    +0.058 A 
ATOM     10  C   UNL     1       9.385  -0.610  24.817  0.00  0.00    +0.033 A 
ATOM     11  C   UNL     1       8.984  -1.270  26.077  0.00  0.00    +0.195 C 
ATOM     12  O   UNL     1       8.931  -0.761  27.175  0.00  0.00    -0.287 OA
ATOM     13  C   UNL     1       8.654  -2.657  25.726  0.00  0.00    +0.033 A 
ATOM     14  C   UNL     1       8.159  -3.644  26.555  0.00  0.00    +0.058 A 
ENDROOT
BRANCH   1  15
ATOM     15  O   UNL     1       7.238  -5.908  26.608  0.00  0.00    -0.491 OA
BRANCH  15  16
ATOM     16  C   UNL     1       5.878  -5.682  27.007  0.00  0.00    +0.244 C 
BRANCH  16  17
ATOM     17  C   UNL     1       4.952  -6.092  25.852  0.00  0.00    +0.125 C 
BRANCH  17  18
ATOM     18  N   UNL     1       4.224  -4.976  25.214  0.00  0.00    -0.300 NA
BRANCH  18  20
ATOM     19  C   UNL     1       4.830  -2.537  25.457  0.00  0.00    +0.020 C 
ATOM     20  C   UNL     1       4.259  -3.798  26.099  0.00  0.00    +0.081 C 
ENDBRANCH  18  20
BRANCH  18  21
ATOM     21  C   UNL     1       4.647  -4.703  23.833  0.00  0.00    +0.081 C 
ATOM     22  C   UNL     1       4.439  -5.834  22.831  0.00  0.00    +0.020 C 
ENDBRANCH  18  21
ENDBRANCH  17  18
ENDBRANCH  16  17
ENDBRANCH  15  16
ENDBRANCH   1  15
BRANCH   8  23
ATOM     23  O   UNL     1      10.369   2.391  22.969  0.00  0.00    -0.491 OA
BRANCH  23  24
ATOM     24  C   UNL     1       9.768   3.385  23.814  0.00  0.00    +0.244 C 
BRANCH  24  25
ATOM     25  C   UNL     1       8.400   3.827  23.264  0.00  0.00    +0.125 C 
BRANCH  25  26
ATOM     26  N   UNL     1       7.282   3.627  24.220  0.00  0.00    -0.300 NA
BRANCH  26  27
ATOM     27  C   UNL     1       7.785   3.652  25.604  0.00  0.00    +0.081 C 
ATOM     28  C   UNL     1       7.154   2.605  26.520  0.00  0.00    +0.020 C 
ENDBRANCH  26  27
BRANCH  26  29
ATOM     29  C   UNL     1       6.440   2.463  23.910  0.00  0.00    +0.081 C 
ATOM     30  C   UNL     1       6.611   1.862  22.518  0.00  0.00    +0.020 C 
ENDBRANCH  26  29
ENDBRANCH  25  26
ENDBRANCH  24  25
ENDBRANCH  23  24
ENDBRANCH   8  23
TORSDOF 12
ENDMDL
MODEL 9
REMARK VINA RESULT:      -5.7      1.353      8.354
REMARK  Name = 
REMARK  16 active torsions:
REMARK  status: ('A' for Active; 'I' for Inactive)
REMARK    1  A    between atoms: C_1  and  C_2
REMARK    2  A    between atoms: C_2  and  N_3
REMARK    3  A    between atoms: N_3  and  C_4
REMARK    4  A    between atoms: N_3  and  C_6
REMARK    5  A    between atoms: C_4  and  C_5
REMARK    6  A    between atoms: C_6  and  C_7
REMARK    7  A    between atoms: C_7  and  O_8
REMARK    8  A    between atoms: O_8  and  C_9
REMARK    9  A    between atoms: C_20  and  O_23
REMARK   10  A    between atoms: O_23  and  C_24
REMARK   11  A    between atoms: C_24  and  C_25
REMARK   12  A    between atoms: C_25  and  N_26
REMARK   13  A    between atoms: N_26  and  C_27
REMARK   14  A    between atoms: N_26  and  C_29
REMARK   15  A    between atoms: C_27  and  C_28
REMARK   16  A    between atoms: C_29  and  C_30
REMARK                            x       y       z     vdW  Elec       q    Type
REMARK                         _______ _______ _______ _____ _____    ______ ____
ROOT
ATOM      1  C   UNL     1       9.568  -1.346  23.711  0.00  0.00    +0.121 A 
ATOM      2  C   UNL     1       8.962  -1.506  22.447  0.00  0.00    +0.046 A 
ATOM      3  C   UNL     1       7.930  -2.435  22.237  0.00  0.00    +0.013 A 
ATOM      4  C   UNL     1       7.510  -3.193  23.312  0.00  0.00    -0.006 A 
ATOM      5  C   UNL     1       6.549  -4.273  23.418  0.00  0.00    -0.006 A 
ATOM      6  C   UNL     1       5.746  -4.898  22.481  0.00  0.00    +0.013 A 
ATOM      7  C   UNL     1       4.957  -5.984  22.901  0.00  0.00    +0.046 A 
ATOM      8  C   UNL     1       4.961  -6.432  24.237  0.00  0.00    +0.121 A 
ATOM      9  C   UNL     1       5.774  -5.801  25.178  0.00  0.00    +0.058 A 
ATOM     10  C   UNL     1       6.538  -4.740  24.742  0.00  0.00    +0.033 A 
ATOM     11  C   UNL     1       7.497  -3.927  25.519  0.00  0.00    +0.195 C 
ATOM     12  O   UNL     1       7.743  -4.031  26.701  0.00  0.00    -0.287 OA
ATOM     13  C   UNL     1       8.096  -2.981  24.569  0.00  0.00    +0.033 A 
ATOM     14  C   UNL     1       9.100  -2.064  24.809  0.00  0.00    +0.058 A 
ENDROOT
BRANCH   1  15
ATOM     15  O   UNL     1      10.621  -0.471  23.749  0.00  0.00    -0.491 OA
BRANCH  15  16
ATOM     16  C   UNL     1      10.535   0.536  24.768  0.00  0.00    +0.244 C 
BRANCH  16  17
ATOM     17  C   UNL     1      10.157   1.871  24.108  0.00  0.00    +0.125 C 
BRANCH  17  18
ATOM     18  N   UNL     1       8.719   2.206  24.165  0.00  0.00    -0.300 NA
BRANCH  18  20
ATOM     19  C   UNL     1       7.591   3.376  22.232  0.00  0.00    +0.020 C 
ATOM     20  C   UNL     1       8.131   2.075  22.820  0.00  0.00    +0.081 C 
ENDBRANCH  18  20
BRANCH  18  21
ATOM     21  C   UNL     1       7.982   1.489  25.216  0.00  0.00    +0.081 C 
ATOM     22  C   UNL     1       6.697   0.795  24.780  0.00  0.00    +0.020 C 
ENDBRANCH  18  21
ENDBRANCH  17  18
ENDBRANCH  16  17
ENDBRANCH  15  16
ENDBRANCH   1  15
BRANCH   8  23
ATOM     23  O   UNL     1       4.169  -7.519  24.521  0.00  0.00    -0.491 OA
BRANCH  23  24
ATOM     24  C   UNL     1       3.215  -7.275  25.566  0.00  0.00    +0.244 C 
BRANCH  24  25
ATOM     25  C   UNL     1       1.811  -7.024  24.989  0.00  0.00    +0.125 C 
BRANCH  25  26
ATOM     26  N   UNL     1       1.374  -5.609  25.083  0.00  0.00    -0.300 NA
BRANCH  26  27
ATOM     27  C   UNL     1       1.133  -5.059  23.739  0.00  0.00    +0.081 C 
ATOM     28  C   UNL     1       1.212  -6.089  22.614  0.00  0.00    +0.020 C 
ENDBRANCH  26  27
BRANCH  26  29
ATOM     29  C   UNL     1       2.247  -4.775  25.923  0.00  0.00    +0.081 C 
ATOM     30  C   UNL     1       2.836  -3.536  25.256  0.00  0.00    +0.020 C 
ENDBRANCH  26  29
ENDBRANCH  25  26
ENDBRANCH  24  25
ENDBRANCH  23  24
ENDBRANCH   8  23
TORSDOF 12
ENDMDL
