MODEL 1
REMARK VINA RESULT:      -5.9      0.000      0.000
REMARK  Name = 
REMARK  4 active torsions:
REMARK  status: ('A' for Active; 'I' for Inactive)
REMARK    1  A    between atoms: C_1  and  C_2
REMARK    2  A    between atoms: N_4  and  C_10
REMARK    3  A    between atoms: C_14  and  C_17
REMARK    4  A    between atoms: C_17  and  O_18
REMARK                            x       y       z     vdW  Elec       q    Type
REMARK                         _______ _______ _______ _____ _____    ______ ____
ROOT
ATOM      1  C   UNL     1       5.591  -3.798  27.471  0.00  0.00    +0.051 C 
ATOM      2  C   UNL     1       6.871  -4.026  26.737  0.00  0.00    +0.030 A 
ATOM      3  C   UNL     1       7.653  -5.227  27.119  0.00  0.00    +0.257 A 
ATOM      4  O   UNL     1       7.249  -6.029  27.953  0.00  0.00    -0.267 OA
ATOM      5  N   UNL     1       8.842  -5.391  26.475  0.00  0.00    -0.275 N 
ATOM      6  H   UNL     1       9.377  -6.214  26.706  0.00  0.00    +0.173 HD
ATOM      7  C   UNL     1       9.312  -4.625  25.446  0.00  0.00    +0.332 A 
ATOM      8  O   UNL     1      10.347  -4.948  24.869  0.00  0.00    -0.246 OA
ATOM      9  N   UNL     1       8.540  -3.518  25.110  0.00  0.00    -0.270 N 
ATOM     10  C   UNL     1       7.353  -3.241  25.761  0.00  0.00    +0.102 A 
ENDROOT
BRANCH   9  11
ATOM     11  C   UNL     1       9.020  -2.741  23.982  0.00  0.00    +0.248 C 
ATOM     12  O   UNL     1       9.957  -1.699  24.351  0.00  0.00    -0.343 OA
ATOM     13  C   UNL     1       9.804  -0.681  23.324  0.00  0.00    +0.169 C 
ATOM     14  C   UNL     1       8.359  -0.782  22.965  0.00  0.00    +0.007 C 
ATOM     15  C   UNL     1       7.907  -1.978  23.346  0.00  0.00    +0.025 C 
BRANCH  13  16
ATOM     16  C   UNL     1      10.261   0.690  23.830  0.00  0.00    +0.191 C 
BRANCH  16  17
ATOM     17  O   UNL     1      10.659   0.650  25.200  0.00  0.00    -0.392 OA
ATOM     18  H   UNL     1      11.028  -0.239  25.340  0.00  0.00    +0.210 HD
ENDBRANCH  16  17
ENDBRANCH  13  16
ENDBRANCH   9  11
TORSDOF 3
ENDMDL
MODEL 2
REMARK VINA RESULT:      -5.8      1.156      1.156
REMARK  Name = 
REMARK  4 active torsions:
REMARK  status: ('A' for Active; 'I' for Inactive)
REMARK    1  A    between atoms: C_1  and  C_2
REMARK    2  A    between atoms: N_4  and  C_10
REMARK    3  A    between atoms: C_14  and  C_17
REMARK    4  A    between atoms: C_17  and  O_18
REMARK                            x       y       z     vdW  Elec       q    Type
REMARK                         _______ _______ _______ _____ _____    ______ ____
ROOT
ATOM      1  C   UNL     1       5.795  -2.920  27.207  0.00  0.00    +0.051 C 
ATOM      2  C   UNL     1       7.045  -3.412  26.557  0.00  0.00    +0.030 A 
ATOM      3  C   UNL     1       7.586  -4.703  27.046  0.00  0.00    +0.257 A 
ATOM      4  O   UNL     1       7.012  -5.369  27.899  0.00  0.00    -0.267 OA
ATOM      5  N   UNL     1       8.755  -5.111  26.477  0.00  0.00    -0.275 N 
ATOM      6  H   UNL     1       9.126  -5.998  26.781  0.00  0.00    +0.173 HD
ATOM      7  C   UNL     1       9.397  -4.505  25.434  0.00  0.00    +0.332 A 
ATOM      8  O   UNL     1      10.384  -5.038  24.933  0.00  0.00    -0.246 OA
ATOM      9  N   UNL     1       8.847  -3.304  24.998  0.00  0.00    -0.270 N 
ATOM     10  C   UNL     1       7.700  -2.786  25.568  0.00  0.00    +0.102 A 
ENDROOT
BRANCH   9  11
ATOM     11  C   UNL     1       9.505  -2.695  23.856  0.00  0.00    +0.248 C 
ATOM     12  O   UNL     1       9.906  -1.321  24.082  0.00  0.00    -0.343 OA
ATOM     13  C   UNL     1       9.903  -0.711  22.761  0.00  0.00    +0.169 C 
ATOM     14  C   UNL     1       8.800  -1.433  22.062  0.00  0.00    +0.007 C 
ATOM     15  C   UNL     1       8.573  -2.584  22.697  0.00  0.00    +0.025 C 
BRANCH  13  16
ATOM     16  C   UNL     1       9.739   0.808  22.852  0.00  0.00    +0.191 C 
BRANCH  16  17
ATOM     17  O   UNL     1      10.015   1.453  21.610  0.00  0.00    -0.392 OA
ATOM     18  H   UNL     1      10.480   0.791  21.068  0.00  0.00    +0.210 HD
ENDBRANCH  16  17
ENDBRANCH  13  16
ENDBRANCH   9  11
TORSDOF 3
ENDMDL
MODEL 3
REMARK VINA RESULT:      -5.7      3.354      3.634
REMARK  Name = 
REMARK  4 active torsions:
REMARK  status: ('A' for Active; 'I' for Inactive)
REMARK    1  A    between atoms: C_1  and  C_2
REMARK    2  A    between atoms: N_4  and  C_10
REMARK    3  A    between atoms: C_14  and  C_17
REMARK    4  A    between atoms: C_17  and  O_18
REMARK                            x       y       z     vdW  Elec       q    Type
REMARK                         _______ _______ _______ _____ _____    ______ ____
ROOT
ATOM      1  C   UNL     1       5.264  -5.794  26.430  0.00  0.00    +0.051 C 
ATOM      2  C   UNL     1       5.441  -5.627  24.958  0.00  0.00    +0.030 A 
ATOM      3  C   UNL     1       4.904  -6.709  24.096  0.00  0.00    +0.257 A 
ATOM      4  O   UNL     1       4.294  -7.666  24.557  0.00  0.00    -0.267 OA
ATOM      5  N   UNL     1       5.121  -6.565  22.759  0.00  0.00    -0.275 N 
ATOM      6  H   UNL     1       4.743  -7.280  22.156  0.00  0.00    +0.173 HD
ATOM      7  C   UNL     1       5.674  -5.477  22.146  0.00  0.00    +0.332 A 
ATOM      8  O   UNL     1       5.707  -5.419  20.919  0.00  0.00    -0.246 OA
ATOM      9  N   UNL     1       6.151  -4.480  22.990  0.00  0.00    -0.270 N 
ATOM     10  C   UNL     1       6.032  -4.580  24.364  0.00  0.00    +0.102 A 
ENDROOT
BRANCH   9  11
ATOM     11  C   UNL     1       6.689  -3.306  22.328  0.00  0.00    +0.248 C 
ATOM     12  O   UNL     1       8.136  -3.233  22.360  0.00  0.00    -0.343 OA
ATOM     13  C   UNL     1       8.438  -1.812  22.292  0.00  0.00    +0.169 C 
ATOM     14  C   UNL     1       7.291  -1.191  23.016  0.00  0.00    +0.007 C 
ATOM     15  C   UNL     1       6.277  -2.058  23.034  0.00  0.00    +0.025 C 
BRANCH  13  16
ATOM     16  C   UNL     1       9.822  -1.511  22.874  0.00  0.00    +0.191 C 
BRANCH  16  17
ATOM     17  O   UNL     1      10.858  -1.680  21.907  0.00  0.00    -0.392 OA
ATOM     18  H   UNL     1      10.876  -0.853  21.394  0.00  0.00    +0.210 HD
ENDBRANCH  16  17
ENDBRANCH  13  16
ENDBRANCH   9  11
TORSDOF 3
ENDMDL
MODEL 4
REMARK VINA RESULT:      -5.7      1.904      2.144
REMARK  Name = 
REMARK  4 active torsions:
REMARK  status: ('A' for Active; 'I' for Inactive)
REMARK    1  A    between atoms: C_1  and  C_2
REMARK    2  A    between atoms: N_4  and  C_10
REMARK    3  A    between atoms: C_14  and  C_17
REMARK    4  A    between atoms: C_17  and  O_18
REMARK                            x       y       z     vdW  Elec       q    Type
REMARK                         _______ _______ _______ _____ _____    ______ ____
ROOT
ATOM      1  C   UNL     1       4.850  -2.882  24.461  0.00  0.00    +0.051 C 
ATOM      2  C   UNL     1       6.313  -3.177  24.463  0.00  0.00    +0.030 A 
ATOM      3  C   UNL     1       6.729  -4.482  25.032  0.00  0.00    +0.257 A 
ATOM      4  O   UNL     1       5.916  -5.307  25.431  0.00  0.00    -0.267 OA
ATOM      5  N   UNL     1       8.071  -4.712  25.072  0.00  0.00    -0.275 N 
ATOM      6  H   UNL     1       8.371  -5.603  25.435  0.00  0.00    +0.173 HD
ATOM      7  C   UNL     1       9.040  -3.912  24.537  0.00  0.00    +0.332 A 
ATOM      8  O   UNL     1      10.210  -4.290  24.534  0.00  0.00    -0.246 OA
ATOM      9  N   UNL     1       8.605  -2.706  24.000  0.00  0.00    -0.270 N 
ATOM     10  C   UNL     1       7.266  -2.364  23.982  0.00  0.00    +0.102 A 
ENDROOT
BRANCH   9  11
ATOM     11  C   UNL     1       9.635  -1.887  23.387  0.00  0.00    +0.248 C 
ATOM     12  O   UNL     1       9.666  -0.525  23.881  0.00  0.00    -0.343 OA
ATOM     13  C   UNL     1      10.214   0.256  22.784  0.00  0.00    +0.169 C 
ATOM     14  C   UNL     1       9.712  -0.463  21.577  0.00  0.00    +0.007 C 
ATOM     15  C   UNL     1       9.379  -1.706  21.929  0.00  0.00    +0.025 C 
BRANCH  13  16
ATOM     16  C   UNL     1       9.802   1.727  22.891  0.00  0.00    +0.191 C 
BRANCH  16  17
ATOM     17  O   UNL     1       9.497   2.292  21.616  0.00  0.00    -0.392 OA
ATOM     18  H   UNL     1      10.242   2.882  21.405  0.00  0.00    +0.210 HD
ENDBRANCH  16  17
ENDBRANCH  13  16
ENDBRANCH   9  11
TORSDOF 3
ENDMDL
MODEL 5
REMARK VINA RESULT:      -5.6      2.701      3.300
REMARK  Name = 
REMARK  4 active torsions:
REMARK  status: ('A' for Active; 'I' for Inactive)
REMARK    1  A    between atoms: C_1  and  C_2
REMARK    2  A    between atoms: N_4  and  C_10
REMARK    3  A    between atoms: C_14  and  C_17
REMARK    4  A    between atoms: C_17  and  O_18
REMARK                            x       y       z     vdW  Elec       q    Type
REMARK                         _______ _______ _______ _____ _____    ______ ____
ROOT
ATOM      1  C   UNL     1       6.615  -5.970  21.662  0.00  0.00    +0.051 C 
ATOM      2  C   UNL     1       6.746  -5.005  22.793  0.00  0.00    +0.030 A 
ATOM      3  C   UNL     1       5.968  -5.307  24.020  0.00  0.00    +0.257 A 
ATOM      4  O   UNL     1       5.295  -6.324  24.130  0.00  0.00    -0.267 OA
ATOM      5  N   UNL     1       6.060  -4.388  25.021  0.00  0.00    -0.275 N 
ATOM      6  H   UNL     1       5.555  -4.588  25.871  0.00  0.00    +0.173 HD
ATOM      7  C   UNL     1       6.881  -3.297  25.040  0.00  0.00    +0.332 A 
ATOM      8  O   UNL     1       6.959  -2.609  26.055  0.00  0.00    -0.246 OA
ATOM      9  N   UNL     1       7.604  -3.060  23.875  0.00  0.00    -0.270 N 
ATOM     10  C   UNL     1       7.515  -3.906  22.786  0.00  0.00    +0.102 A 
ENDROOT
BRANCH   9  11
ATOM     11  C   UNL     1       8.512  -1.929  23.923  0.00  0.00    +0.248 C 
ATOM     12  O   UNL     1       8.090  -0.810  23.105  0.00  0.00    -0.343 OA
ATOM     13  C   UNL     1       9.322  -0.125  22.747  0.00  0.00    +0.169 C 
ATOM     14  C   UNL     1      10.311  -1.239  22.659  0.00  0.00    +0.007 C 
ATOM     15  C   UNL     1       9.840  -2.283  23.343  0.00  0.00    +0.025 C 
BRANCH  13  16
ATOM     16  C   UNL     1       9.147   0.701  21.469  0.00  0.00    +0.191 C 
BRANCH  16  17
ATOM     17  O   UNL     1       9.920   1.900  21.497  0.00  0.00    -0.392 OA
ATOM     18  H   UNL     1       9.293   2.620  21.306  0.00  0.00    +0.210 HD
ENDBRANCH  16  17
ENDBRANCH  13  16
ENDBRANCH   9  11
TORSDOF 3
ENDMDL
MODEL 6
REMARK VINA RESULT:      -5.5      2.787      5.584
REMARK  Name = 
REMARK  4 active torsions:
REMARK  status: ('A' for Active; 'I' for Inactive)
REMARK    1  A    between atoms: C_1  and  C_2
REMARK    2  A    between atoms: N_4  and  C_10
REMARK    3  A    between atoms: C_14  and  C_17
REMARK    4  A    between atoms: C_17  and  O_18
REMARK                            x       y       z     vdW  Elec       q    Type
REMARK                         _______ _______ _______ _____ _____    ______ ____
ROOT
ATOM      1  C   UNL     1       9.804   1.046  21.864  0.00  0.00    +0.051 C 
ATOM      2  C   UNL     1       9.437   0.087  22.947  0.00  0.00    +0.030 A 
ATOM      3  C   UNL     1      10.108   0.273  24.257  0.00  0.00    +0.257 A 
ATOM      4  O   UNL     1      10.882   1.200  24.466  0.00  0.00    -0.267 OA
ATOM      5  N   UNL     1       9.800  -0.642  25.217  0.00  0.00    -0.275 N 
ATOM      6  H   UNL     1      10.229  -0.518  26.121  0.00  0.00    +0.173 HD
ATOM      7  C   UNL     1       8.857  -1.626  25.118  0.00  0.00    +0.332 A 
ATOM      8  O   UNL     1       8.589  -2.314  26.100  0.00  0.00    -0.246 OA
ATOM      9  N   UNL     1       8.242  -1.756  23.878  0.00  0.00    -0.270 N 
ATOM     10  C   UNL     1       8.548  -0.911  22.828  0.00  0.00    +0.102 A 
ENDROOT
BRANCH   9  11
ATOM     11  C   UNL     1       7.206  -2.769  23.798  0.00  0.00    +0.248 C 
ATOM     12  O   UNL     1       7.665  -4.028  23.247  0.00  0.00    -0.343 OA
ATOM     13  C   UNL     1       6.483  -4.623  22.644  0.00  0.00    +0.169 C 
ATOM     14  C   UNL     1       5.712  -3.435  22.175  0.00  0.00    +0.007 C 
ATOM     15  C   UNL     1       6.131  -2.361  22.847  0.00  0.00    +0.025 C 
BRANCH  13  16
ATOM     16  C   UNL     1       6.863  -5.631  21.555  0.00  0.00    +0.191 C 
BRANCH  16  17
ATOM     17  O   UNL     1       5.994  -5.552  20.426  0.00  0.00    -0.392 OA
ATOM     18  H   UNL     1       5.757  -6.472  20.213  0.00  0.00    +0.210 HD
ENDBRANCH  16  17
ENDBRANCH  13  16
ENDBRANCH   9  11
TORSDOF 3
ENDMDL
MODEL 7
REMARK VINA RESULT:      -5.4      2.649      5.767
REMARK  Name = 
REMARK  4 active torsions:
REMARK  status: ('A' for Active; 'I' for Inactive)
REMARK    1  A    between atoms: C_1  and  C_2
REMARK    2  A    between atoms: N_4  and  C_10
REMARK    3  A    between atoms: C_14  and  C_17
REMARK    4  A    between atoms: C_17  and  O_18
REMARK                            x       y       z     vdW  Elec       q    Type
REMARK                         _______ _______ _______ _____ _____    ______ ____
ROOT
ATOM      1  C   UNL     1       9.385   0.380  21.465  0.00  0.00    +0.051 C 
ATOM      2  C   UNL     1       8.309  -0.070  22.397  0.00  0.00    +0.030 A 
ATOM      3  C   UNL     1       7.226   0.902  22.683  0.00  0.00    +0.257 A 
ATOM      4  O   UNL     1       7.176   2.000  22.141  0.00  0.00    -0.267 OA
ATOM      5  N   UNL     1       6.281   0.493  23.575  0.00  0.00    -0.275 N 
ATOM      6  H   UNL     1       5.525   1.132  23.765  0.00  0.00    +0.173 HD
ATOM      7  C   UNL     1       6.183  -0.752  24.129  0.00  0.00    +0.332 A 
ATOM      8  O   UNL     1       5.214  -1.033  24.831  0.00  0.00    -0.246 OA
ATOM      9  N   UNL     1       7.211  -1.636  23.823  0.00  0.00    -0.270 N 
ATOM     10  C   UNL     1       8.245  -1.277  22.979  0.00  0.00    +0.102 A 
ENDROOT
BRANCH   9  11
ATOM     11  C   UNL     1       7.071  -2.972  24.373  0.00  0.00    +0.248 C 
ATOM     12  O   UNL     1       7.929  -3.224  25.513  0.00  0.00    -0.343 OA
ATOM     13  C   UNL     1       8.158  -4.661  25.496  0.00  0.00    +0.169 C 
ATOM     14  C   UNL     1       8.143  -4.984  24.039  0.00  0.00    +0.007 C 
ATOM     15  C   UNL     1       7.510  -4.005  23.390  0.00  0.00    +0.025 C 
BRANCH  13  16
ATOM     16  C   UNL     1       9.448  -5.026  26.236  0.00  0.00    +0.191 C 
BRANCH  16  17
ATOM     17  O   UNL     1      10.470  -5.467  25.345  0.00  0.00    -0.392 OA
ATOM     18  H   UNL     1      10.107  -6.251  24.896  0.00  0.00    +0.210 HD
ENDBRANCH  16  17
ENDBRANCH  13  16
ENDBRANCH   9  11
TORSDOF 3
ENDMDL
MODEL 8
REMARK VINA RESULT:      -5.4      2.305      5.575
REMARK  Name = 
REMARK  4 active torsions:
REMARK  status: ('A' for Active; 'I' for Inactive)
REMARK    1  A    between atoms: C_1  and  C_2
REMARK    2  A    between atoms: N_4  and  C_10
REMARK    3  A    between atoms: C_14  and  C_17
REMARK    4  A    between atoms: C_17  and  O_18
REMARK                            x       y       z     vdW  Elec       q    Type
REMARK                         _______ _______ _______ _____ _____    ______ ____
ROOT
ATOM      1  C   UNL     1       9.531   1.107  21.708  0.00  0.00    +0.051 C 
ATOM      2  C   UNL     1       9.364   0.552  23.084  0.00  0.00    +0.030 A 
ATOM      3  C   UNL     1       9.847   1.394  24.205  0.00  0.00    +0.257 A 
ATOM      4  O   UNL     1      10.308   2.515  24.026  0.00  0.00    -0.267 OA
ATOM      5  N   UNL     1       9.733   0.850  25.448  0.00  0.00    -0.275 N 
ATOM      6  H   UNL     1      10.036   1.417  26.225  0.00  0.00    +0.173 HD
ATOM      7  C   UNL     1       9.118  -0.331  25.757  0.00  0.00    +0.332 A 
ATOM      8  O   UNL     1       8.977  -0.656  26.933  0.00  0.00    -0.246 OA
ATOM      9  N   UNL     1       8.667  -1.082  24.677  0.00  0.00    -0.270 N 
ATOM     10  C   UNL     1       8.806  -0.632  23.377  0.00  0.00    +0.102 A 
ENDROOT
BRANCH   9  11
ATOM     11  C   UNL     1       7.970  -2.308  25.017  0.00  0.00    +0.248 C 
ATOM     12  O   UNL     1       8.843  -3.358  25.500  0.00  0.00    -0.343 OA
ATOM     13  C   UNL     1       8.162  -4.596  25.156  0.00  0.00    +0.169 C 
ATOM     14  C   UNL     1       7.459  -4.250  23.885  0.00  0.00    +0.007 C 
ATOM     15  C   UNL     1       7.347  -2.923  23.808  0.00  0.00    +0.025 C 
BRANCH  13  16
ATOM     16  C   UNL     1       9.148  -5.765  25.063  0.00  0.00    +0.191 C 
BRANCH  16  17
ATOM     17  O   UNL     1      10.504  -5.326  25.113  0.00  0.00    -0.392 OA
ATOM     18  H   UNL     1      10.898  -5.594  24.264  0.00  0.00    +0.210 HD
ENDBRANCH  16  17
ENDBRANCH  13  16
ENDBRANCH   9  11
TORSDOF 3
ENDMDL
MODEL 9
REMARK VINA RESULT:      -5.3      4.906      8.105
REMARK  Name = 
REMARK  4 active torsions:
REMARK  status: ('A' for Active; 'I' for Inactive)
REMARK    1  A    between atoms: C_1  and  C_2
REMARK    2  A    between atoms: N_4  and  C_10
REMARK    3  A    between atoms: C_14  and  C_17
REMARK    4  A    between atoms: C_17  and  O_18
REMARK                            x       y       z     vdW  Elec       q    Type
REMARK                         _______ _______ _______ _____ _____    ______ ____
ROOT
ATOM      1  C   UNL     1      12.828   4.987  23.284  0.00  0.00    +0.051 C 
ATOM      2  C   UNL     1      11.409   4.635  23.588  0.00  0.00    +0.030 A 
ATOM      3  C   UNL     1      10.593   5.678  24.257  0.00  0.00    +0.257 A 
ATOM      4  O   UNL     1      11.036   6.795  24.500  0.00  0.00    -0.267 OA
ATOM      5  N   UNL     1       9.317   5.322  24.572  0.00  0.00    -0.275 N 
ATOM      6  H   UNL     1       8.741   6.025  25.007  0.00  0.00    +0.173 HD
ATOM      7  C   UNL     1       8.700   4.153  24.228  0.00  0.00    +0.332 A 
ATOM      8  O   UNL     1       7.505   3.999  24.470  0.00  0.00    -0.246 OA
ATOM      9  N   UNL     1       9.497   3.209  23.589  0.00  0.00    -0.270 N 
ATOM     10  C   UNL     1      10.823   3.466  23.293  0.00  0.00    +0.102 A 
ENDROOT
BRANCH   9  11
ATOM     11  C   UNL     1       8.819   1.993  23.181  0.00  0.00    +0.248 C 
ATOM     12  O   UNL     1       9.344   0.797  23.808  0.00  0.00    -0.343 OA
ATOM     13  C   UNL     1       9.064  -0.273  22.863  0.00  0.00    +0.169 C 
ATOM     14  C   UNL     1       9.173   0.412  21.541  0.00  0.00    +0.007 C 
ATOM     15  C   UNL     1       9.028   1.725  21.728  0.00  0.00    +0.025 C 
BRANCH  13  16
ATOM     16  C   UNL     1      10.014  -1.457  23.068  0.00  0.00    +0.191 C 
BRANCH  16  17
ATOM     17  O   UNL     1      10.760  -1.756  21.890  0.00  0.00    -0.392 OA
ATOM     18  H   UNL     1      11.319  -0.975  21.728  0.00  0.00    +0.210 HD
ENDBRANCH  16  17
ENDBRANCH  13  16
ENDBRANCH   9  11
TORSDOF 3
ENDMDL
