MODEL 1
REMARK VINA RESULT:      -6.2      0.000      0.000
REMARK  Name = 
REMARK  5 active torsions:
REMARK  status: ('A' for Active; 'I' for Inactive)
REMARK    1  A    between atoms: C_1  and  C_2
REMARK    2  A    between atoms: N_4  and  C_10
REMARK    3  A    between atoms: C_14  and  O_21
REMARK    4  A    between atoms: C_16  and  C_19
REMARK    5  A    between atoms: C_19  and  O_20
REMARK                            x       y       z     vdW  Elec       q    Type
REMARK                         _______ _______ _______ _____ _____    ______ ____
ROOT
ATOM      1  C   UNL     1       9.826  -2.274  23.571  0.00  0.00    +0.247 C 
ATOM      2  O   UNL     1      10.214  -1.580  22.372  0.00  0.00    -0.347 OA
ATOM      3  C   UNL     1      10.143  -0.157  22.609  0.00  0.00    +0.177 C 
ATOM      4  C   UNL     1       9.453   0.041  23.947  0.00  0.00    +0.183 C 
ATOM      5  C   UNL     1       9.825  -1.223  24.687  0.00  0.00    +0.244 C 
ATOM      6  F   UNL     1       8.911  -1.438  25.663  0.00  0.00    -0.238 F 
ENDROOT
BRANCH   1  15
ATOM      7  C   UNL     1       5.950  -1.599  24.115  0.00  0.00    +0.019 C 
ATOM      8  C   UNL     1       6.171  -2.550  22.942  0.00  0.00    +0.090 C 
ATOM      9  C   UNL     1       5.959  -3.976  23.396  0.00  0.00    +0.225 C 
ATOM     10  O   UNL     1       4.832  -4.461  23.513  0.00  0.00    -0.275 OA
ATOM     11  N   UNL     1       7.073  -4.679  23.763  0.00  0.00    -0.240 N 
ATOM     12  H   UNL     1       6.915  -5.592  24.164  0.00  0.00    +0.159 HD
ATOM     13  C   UNL     1       8.347  -4.185  23.883  0.00  0.00    +0.310 C 
ATOM     14  O   UNL     1       9.224  -4.837  24.439  0.00  0.00    -0.252 OA
ATOM     15  N   UNL     1       8.534  -2.919  23.366  0.00  0.00    -0.256 N 
ATOM     16  C   UNL     1       7.577  -2.450  22.373  0.00  0.00    +0.124 C 
ENDBRANCH   1  15
BRANCH   4  17
ATOM     17  O   UNL     1       9.923   1.215  24.604  0.00  0.00    -0.386 OA
ATOM     18  H   UNL     1      10.799   1.425  24.228  0.00  0.00    +0.210 HD
ENDBRANCH   4  17
BRANCH   3  19
ATOM     19  C   UNL     1       9.396   0.543  21.467  0.00  0.00    +0.190 C 
BRANCH  19  20
ATOM     20  O   UNL     1       9.649   1.945  21.451  0.00  0.00    -0.392 OA
ATOM     21  H   UNL     1       8.807   2.396  21.264  0.00  0.00    +0.210 HD
ENDBRANCH  19  20
ENDBRANCH   3  19
TORSDOF 4
ENDMDL
MODEL 2
REMARK VINA RESULT:      -6.0      2.158      3.552
REMARK  Name = 
REMARK  5 active torsions:
REMARK  status: ('A' for Active; 'I' for Inactive)
REMARK    1  A    between atoms: C_1  and  C_2
REMARK    2  A    between atoms: N_4  and  C_10
REMARK    3  A    between atoms: C_14  and  O_21
REMARK    4  A    between atoms: C_16  and  C_19
REMARK    5  A    between atoms: C_19  and  O_20
REMARK                            x       y       z     vdW  Elec       q    Type
REMARK                         _______ _______ _______ _____ _____    ______ ____
ROOT
ATOM      1  C   UNL     1       7.301  -1.786  23.827  0.00  0.00    +0.247 C 
ATOM      2  O   UNL     1       7.989  -0.590  24.235  0.00  0.00    -0.347 OA
ATOM      3  C   UNL     1       9.236  -0.495  23.513  0.00  0.00    +0.177 C 
ATOM      4  C   UNL     1       9.439  -1.817  22.794  0.00  0.00    +0.183 C 
ATOM      5  C   UNL     1       8.018  -2.276  22.564  0.00  0.00    +0.244 C 
ATOM      6  F   UNL     1       8.019  -3.621  22.402  0.00  0.00    -0.238 F 
ENDROOT
BRANCH   1  15
ATOM      7  C   UNL     1       9.522  -4.736  25.293  0.00  0.00    +0.019 C 
ATOM      8  C   UNL     1       8.709  -4.072  26.401  0.00  0.00    +0.090 C 
ATOM      9  C   UNL     1       7.475  -4.895  26.689  0.00  0.00    +0.225 C 
ATOM     10  O   UNL     1       7.516  -5.906  27.391  0.00  0.00    -0.275 OA
ATOM     11  N   UNL     1       6.322  -4.520  26.056  0.00  0.00    -0.240 N 
ATOM     12  H   UNL     1       5.528  -5.134  26.169  0.00  0.00    +0.159 HD
ATOM     13  C   UNL     1       6.198  -3.553  25.090  0.00  0.00    +0.310 C 
ATOM     14  O   UNL     1       5.172  -3.457  24.425  0.00  0.00    -0.252 OA
ATOM     15  N   UNL     1       7.308  -2.750  24.922  0.00  0.00    -0.256 N 
ATOM     16  C   UNL     1       8.254  -2.671  26.026  0.00  0.00    +0.124 C 
ENDBRANCH   1  15
BRANCH   4  17
ATOM     17  O   UNL     1      10.158  -1.640  21.576  0.00  0.00    -0.386 OA
ATOM     18  H   UNL     1       9.499  -1.527  20.864  0.00  0.00    +0.210 HD
ENDBRANCH   4  17
BRANCH   3  19
ATOM     19  C   UNL     1      10.391  -0.176  24.470  0.00  0.00    +0.190 C 
BRANCH  19  20
ATOM     20  O   UNL     1       9.931   0.461  25.658  0.00  0.00    -0.392 OA
ATOM     21  H   UNL     1       9.067   0.865  25.464  0.00  0.00    +0.210 HD
ENDBRANCH  19  20
ENDBRANCH   3  19
TORSDOF 4
ENDMDL
MODEL 3
REMARK VINA RESULT:      -5.8      2.463      3.516
REMARK  Name = 
REMARK  5 active torsions:
REMARK  status: ('A' for Active; 'I' for Inactive)
REMARK    1  A    between atoms: C_1  and  C_2
REMARK    2  A    between atoms: N_4  and  C_10
REMARK    3  A    between atoms: C_14  and  O_21
REMARK    4  A    between atoms: C_16  and  C_19
REMARK    5  A    between atoms: C_19  and  O_20
REMARK                            x       y       z     vdW  Elec       q    Type
REMARK                         _______ _______ _______ _____ _____    ______ ____
ROOT
ATOM      1  C   UNL     1       7.981   0.708  24.993  0.00  0.00    +0.247 C 
ATOM      2  O   UNL     1       9.005   1.714  24.905  0.00  0.00    -0.347 OA
ATOM      3  C   UNL     1       8.916   2.365  23.618  0.00  0.00    +0.177 C 
ATOM      4  C   UNL     1       7.937   1.563  22.778  0.00  0.00    +0.183 C 
ATOM      5  C   UNL     1       7.022   0.977  23.827  0.00  0.00    +0.244 C 
ATOM      6  F   UNL     1       6.431  -0.129  23.316  0.00  0.00    -0.238 F 
ENDROOT
BRANCH   1  15
ATOM      7  C   UNL     1       8.882  -2.184  22.423  0.00  0.00    +0.019 C 
ATOM      8  C   UNL     1       9.845  -2.196  23.607  0.00  0.00    +0.090 C 
ATOM      9  C   UNL     1       9.415  -3.250  24.601  0.00  0.00    +0.225 C 
ATOM     10  O   UNL     1       9.676  -4.443  24.438  0.00  0.00    -0.275 OA
ATOM     11  N   UNL     1       8.638  -2.833  25.647  0.00  0.00    -0.240 N 
ATOM     12  H   UNL     1       8.267  -3.556  26.246  0.00  0.00    +0.159 HD
ATOM     13  C   UNL     1       8.104  -1.581  25.817  0.00  0.00    +0.310 C 
ATOM     14  O   UNL     1       7.237  -1.377  26.660  0.00  0.00    -0.252 OA
ATOM     15  N   UNL     1       8.593  -0.616  24.960  0.00  0.00    -0.256 N 
ATOM     16  C   UNL     1       9.885  -0.863  24.336  0.00  0.00    +0.124 C 
ENDBRANCH   1  15
BRANCH   4  17
ATOM     17  O   UNL     1       7.243   2.397  21.854  0.00  0.00    -0.386 OA
ATOM     18  H   UNL     1       7.646   3.285  21.906  0.00  0.00    +0.210 HD
ENDBRANCH   4  17
BRANCH   3  19
ATOM     19  C   UNL     1      10.299   2.455  22.962  0.00  0.00    +0.190 C 
BRANCH  19  20
ATOM     20  O   UNL     1      10.231   2.245  21.554  0.00  0.00    -0.392 OA
ATOM     21  H   UNL     1       9.703   2.969  21.172  0.00  0.00    +0.210 HD
ENDBRANCH  19  20
ENDBRANCH   3  19
TORSDOF 4
ENDMDL
MODEL 4
REMARK VINA RESULT:      -5.7      2.086      5.022
REMARK  Name = 
REMARK  5 active torsions:
REMARK  status: ('A' for Active; 'I' for Inactive)
REMARK    1  A    between atoms: C_1  and  C_2
REMARK    2  A    between atoms: N_4  and  C_10
REMARK    3  A    between atoms: C_14  and  O_21
REMARK    4  A    between atoms: C_16  and  C_19
REMARK    5  A    between atoms: C_19  and  O_20
REMARK                            x       y       z     vdW  Elec       q    Type
REMARK                         _______ _______ _______ _____ _____    ______ ____
ROOT
ATOM      1  C   UNL     1       7.555  -2.569  25.211  0.00  0.00    +0.247 C 
ATOM      2  O   UNL     1       6.281  -2.550  24.542  0.00  0.00    -0.347 OA
ATOM      3  C   UNL     1       6.283  -3.547  23.497  0.00  0.00    +0.177 C 
ATOM      4  C   UNL     1       7.710  -4.048  23.359  0.00  0.00    +0.183 C 
ATOM      5  C   UNL     1       8.251  -3.858  24.757  0.00  0.00    +0.244 C 
ATOM      6  F   UNL     1       9.602  -3.776  24.690  0.00  0.00    -0.238 F 
ENDROOT
BRANCH   1  15
ATOM      7  C   UNL     1      10.305  -1.244  22.669  0.00  0.00    +0.019 C 
ATOM      8  C   UNL     1       9.396  -0.104  23.122  0.00  0.00    +0.090 C 
ATOM      9  C   UNL     1      10.073   0.680  24.221  0.00  0.00    +0.225 C 
ATOM     10  O   UNL     1      10.934   1.528  23.980  0.00  0.00    -0.275 OA
ATOM     11  N   UNL     1       9.755   0.341  25.508  0.00  0.00    -0.240 N 
ATOM     12  H   UNL     1      10.288   0.795  26.236  0.00  0.00    +0.159 HD
ATOM     13  C   UNL     1       8.982  -0.721  25.904  0.00  0.00    +0.310 C 
ATOM     14  O   UNL     1       8.951  -1.071  27.079  0.00  0.00    -0.252 OA
ATOM     15  N   UNL     1       8.294  -1.354  24.888  0.00  0.00    -0.256 N 
ATOM     16  C   UNL     1       8.065  -0.604  23.662  0.00  0.00    +0.124 C 
ENDBRANCH   1  15
BRANCH   4  17
ATOM     17  O   UNL     1       7.742  -5.411  22.944  0.00  0.00    -0.386 OA
ATOM     18  H   UNL     1       8.572  -5.543  22.445  0.00  0.00    +0.210 HD
ENDBRANCH   4  17
BRANCH   3  19
ATOM     19  C   UNL     1       5.752  -2.955  22.186  0.00  0.00    +0.190 C 
BRANCH  19  20
ATOM     20  O   UNL     1       5.690  -3.933  21.152  0.00  0.00    -0.392 OA
ATOM     21  H   UNL     1       6.267  -4.674  21.409  0.00  0.00    +0.210 HD
ENDBRANCH  19  20
ENDBRANCH   3  19
TORSDOF 4
ENDMDL
MODEL 5
REMARK VINA RESULT:      -5.6      2.483      3.468
REMARK  Name = 
REMARK  5 active torsions:
REMARK  status: ('A' for Active; 'I' for Inactive)
REMARK    1  A    between atoms: C_1  and  C_2
REMARK    2  A    between atoms: N_4  and  C_10
REMARK    3  A    between atoms: C_14  and  O_21
REMARK    4  A    between atoms: C_16  and  C_19
REMARK    5  A    between atoms: C_19  and  O_20
REMARK                            x       y       z     vdW  Elec       q    Type
REMARK                         _______ _______ _______ _____ _____    ______ ____
ROOT
ATOM      1  C   UNL     1       9.427   0.591  21.940  0.00  0.00    +0.247 C 
ATOM      2  O   UNL     1       8.237   1.158  21.364  0.00  0.00    -0.347 OA
ATOM      3  C   UNL     1       8.055   2.495  21.880  0.00  0.00    +0.177 C 
ATOM      4  C   UNL     1       9.053   2.678  23.011  0.00  0.00    +0.183 C 
ATOM      5  C   UNL     1      10.176   1.757  22.596  0.00  0.00    +0.244 C 
ATOM      6  F   UNL     1      10.889   1.421  23.698  0.00  0.00    -0.238 F 
ENDROOT
BRANCH   1  15
ATOM      7  C   UNL     1       8.509   0.055  25.768  0.00  0.00    +0.019 C 
ATOM      8  C   UNL     1       7.839  -1.007  24.900  0.00  0.00    +0.090 C 
ATOM      9  C   UNL     1       8.647  -2.283  24.943  0.00  0.00    +0.225 C 
ATOM     10  O   UNL     1       8.566  -3.072  25.885  0.00  0.00    -0.275 OA
ATOM     11  N   UNL     1       9.545  -2.479  23.931  0.00  0.00    -0.240 N 
ATOM     12  H   UNL     1      10.155  -3.279  24.021  0.00  0.00    +0.159 HD
ATOM     13  C   UNL     1       9.880  -1.579  22.950  0.00  0.00    +0.310 C 
ATOM     14  O   UNL     1      10.859  -1.764  22.235  0.00  0.00    -0.252 OA
ATOM     15  N   UNL     1       9.060  -0.472  22.870  0.00  0.00    -0.256 N 
ATOM     16  C   UNL     1       7.726  -0.579  23.445  0.00  0.00    +0.124 C 
ENDBRANCH   1  15
BRANCH   4  17
ATOM     17  O   UNL     1       9.473   4.036  23.116  0.00  0.00    -0.386 OA
ATOM     18  H   UNL     1       9.982   4.117  23.946  0.00  0.00    +0.210 HD
ENDBRANCH   4  17
BRANCH   3  19
ATOM     19  C   UNL     1       6.610   2.700  22.350  0.00  0.00    +0.190 C 
BRANCH  19  20
ATOM     20  O   UNL     1       6.549   3.095  23.717  0.00  0.00    -0.392 OA
ATOM     21  H   UNL     1       7.410   2.891  24.123  0.00  0.00    +0.210 HD
ENDBRANCH  19  20
ENDBRANCH   3  19
TORSDOF 4
ENDMDL
MODEL 6
REMARK VINA RESULT:      -5.6      3.917      6.391
REMARK  Name = 
REMARK  5 active torsions:
REMARK  status: ('A' for Active; 'I' for Inactive)
REMARK    1  A    between atoms: C_1  and  C_2
REMARK    2  A    between atoms: N_4  and  C_10
REMARK    3  A    between atoms: C_14  and  O_21
REMARK    4  A    between atoms: C_16  and  C_19
REMARK    5  A    between atoms: C_19  and  O_20
REMARK                            x       y       z     vdW  Elec       q    Type
REMARK                         _______ _______ _______ _____ _____    ______ ____
ROOT
ATOM      1  C   UNL     1      10.101   1.429  24.001  0.00  0.00    +0.247 C 
ATOM      2  O   UNL     1       9.307   0.658  24.919  0.00  0.00    -0.347 OA
ATOM      3  C   UNL     1       8.564  -0.336  24.179  0.00  0.00    +0.177 C 
ATOM      4  C   UNL     1       8.727  -0.011  22.705  0.00  0.00    +0.183 C 
ATOM      5  C   UNL     1      10.080   0.660  22.674  0.00  0.00    +0.244 C 
ATOM      6  F   UNL     1      10.152   1.440  21.569  0.00  0.00    -0.238 F 
ENDROOT
BRANCH   1  15
ATOM      7  C   UNL     1       7.196   3.448  22.194  0.00  0.00    +0.019 C 
ATOM      8  C   UNL     1       7.564   4.106  23.521  0.00  0.00    +0.090 C 
ATOM      9  C   UNL     1       8.493   5.271  23.271  0.00  0.00    +0.225 C 
ATOM     10  O   UNL     1       8.075   6.369  22.898  0.00  0.00    -0.275 OA
ATOM     11  N   UNL     1       9.834   5.028  23.385  0.00  0.00    -0.240 N 
ATOM     12  H   UNL     1      10.451   5.780  23.114  0.00  0.00    +0.159 HD
ATOM     13  C   UNL     1      10.428   3.806  23.578  0.00  0.00    +0.310 C 
ATOM     14  O   UNL     1      11.638   3.665  23.434  0.00  0.00    -0.252 OA
ATOM     15  N   UNL     1       9.563   2.782  23.907  0.00  0.00    -0.256 N 
ATOM     16  C   UNL     1       8.269   3.147  24.467  0.00  0.00    +0.124 C 
ENDBRANCH   1  15
BRANCH   4  17
ATOM     17  O   UNL     1       8.685  -1.190  21.906  0.00  0.00    -0.386 OA
ATOM     18  H   UNL     1       7.767  -1.294  21.590  0.00  0.00    +0.210 HD
ENDBRANCH   4  17
BRANCH   3  19
ATOM     19  C   UNL     1       7.091  -0.338  24.609  0.00  0.00    +0.190 C 
BRANCH  19  20
ATOM     20  O   UNL     1       6.220  -0.093  23.508  0.00  0.00    -0.392 OA
ATOM     21  H   UNL     1       6.291  -0.849  22.899  0.00  0.00    +0.210 HD
ENDBRANCH  19  20
ENDBRANCH   3  19
TORSDOF 4
ENDMDL
MODEL 7
REMARK VINA RESULT:      -5.6      2.042      2.706
REMARK  Name = 
REMARK  5 active torsions:
REMARK  status: ('A' for Active; 'I' for Inactive)
REMARK    1  A    between atoms: C_1  and  C_2
REMARK    2  A    between atoms: N_4  and  C_10
REMARK    3  A    between atoms: C_14  and  O_21
REMARK    4  A    between atoms: C_16  and  C_19
REMARK    5  A    between atoms: C_19  and  O_20
REMARK                            x       y       z     vdW  Elec       q    Type
REMARK                         _______ _______ _______ _____ _____    ______ ____
ROOT
ATOM      1  C   UNL     1       8.197  -2.162  22.898  0.00  0.00    +0.247 C 
ATOM      2  O   UNL     1       7.539  -0.888  23.016  0.00  0.00    -0.347 OA
ATOM      3  C   UNL     1       8.426   0.040  23.677  0.00  0.00    +0.177 C 
ATOM      4  C   UNL     1       9.603  -0.763  24.205  0.00  0.00    +0.183 C 
ATOM      5  C   UNL     1       9.674  -1.907  23.221  0.00  0.00    +0.244 C 
ATOM      6  F   UNL     1      10.310  -2.946  23.811  0.00  0.00    -0.238 F 
ENDROOT
BRANCH   1  15
ATOM      7  C   UNL     1       8.685  -3.820  26.475  0.00  0.00    +0.019 C 
ATOM      8  C   UNL     1       7.206  -3.770  26.102  0.00  0.00    +0.090 C 
ATOM      9  C   UNL     1       6.771  -5.115  25.568  0.00  0.00    +0.225 C 
ATOM     10  O   UNL     1       6.500  -6.055  26.316  0.00  0.00    -0.275 OA
ATOM     11  N   UNL     1       6.780  -5.272  24.209  0.00  0.00    -0.240 N 
ATOM     12  H   UNL     1       6.591  -6.202  23.864  0.00  0.00    +0.159 HD
ATOM     13  C   UNL     1       7.264  -4.379  23.288  0.00  0.00    +0.310 C 
ATOM     14  O   UNL     1       7.439  -4.712  22.120  0.00  0.00    -0.252 OA
ATOM     15  N   UNL     1       7.557  -3.125  23.787  0.00  0.00    -0.256 N 
ATOM     16  C   UNL     1       6.913  -2.731  25.032  0.00  0.00    +0.124 C 
ENDBRANCH   1  15
BRANCH   4  17
ATOM     17  O   UNL     1      10.796   0.016  24.222  0.00  0.00    -0.386 OA
ATOM     18  H   UNL     1      10.543   0.928  24.463  0.00  0.00    +0.210 HD
ENDBRANCH   4  17
BRANCH   3  19
ATOM     19  C   UNL     1       7.690   0.785  24.797  0.00  0.00    +0.190 C 
BRANCH  19  20
ATOM     20  O   UNL     1       8.594   1.457  25.668  0.00  0.00    -0.392 OA
ATOM     21  H   UNL     1       8.519   2.413  25.496  0.00  0.00    +0.210 HD
ENDBRANCH  19  20
ENDBRANCH   3  19
TORSDOF 4
ENDMDL
MODEL 8
REMARK VINA RESULT:      -5.6      1.998      5.203
REMARK  Name = 
REMARK  5 active torsions:
REMARK  status: ('A' for Active; 'I' for Inactive)
REMARK    1  A    between atoms: C_1  and  C_2
REMARK    2  A    between atoms: N_4  and  C_10
REMARK    3  A    between atoms: C_14  and  O_21
REMARK    4  A    between atoms: C_16  and  C_19
REMARK    5  A    between atoms: C_19  and  O_20
REMARK                            x       y       z     vdW  Elec       q    Type
REMARK                         _______ _______ _______ _____ _____    ______ ____
ROOT
ATOM      1  C   UNL     1       9.180  -2.784  23.295  0.00  0.00    +0.247 C 
ATOM      2  O   UNL     1       9.817  -3.681  24.222  0.00  0.00    -0.347 OA
ATOM      3  C   UNL     1       8.814  -4.535  24.815  0.00  0.00    +0.177 C 
ATOM      4  C   UNL     1       7.459  -3.981  24.411  0.00  0.00    +0.183 C 
ATOM      5  C   UNL     1       7.764  -3.332  23.081  0.00  0.00    +0.244 C 
ATOM      6  F   UNL     1       6.825  -2.388  22.835  0.00  0.00    -0.238 F 
ENDROOT
BRANCH   1  15
ATOM      7  C   UNL     1       6.936  -0.267  25.396  0.00  0.00    +0.019 C 
ATOM      8  C   UNL     1       8.419   0.036  25.598  0.00  0.00    +0.090 C 
ATOM      9  C   UNL     1       8.829   1.186  24.709  0.00  0.00    +0.225 C 
ATOM     10  O   UNL     1       8.598   2.358  25.012  0.00  0.00    -0.275 OA
ATOM     11  N   UNL     1       9.386   0.865  23.502  0.00  0.00    -0.240 N 
ATOM     12  H   UNL     1       9.560   1.634  22.869  0.00  0.00    +0.159 HD
ATOM     13  C   UNL     1       9.495  -0.391  22.961  0.00  0.00    +0.310 C 
ATOM     14  O   UNL     1       9.796  -0.544  21.782  0.00  0.00    -0.252 OA
ATOM     15  N   UNL     1       9.213  -1.427  23.830  0.00  0.00    -0.256 N 
ATOM     16  C   UNL     1       9.304  -1.152  25.256  0.00  0.00    +0.124 C 
ENDBRANCH   1  15
BRANCH   4  17
ATOM     17  O   UNL     1       6.488  -5.019  24.300  0.00  0.00    -0.386 OA
ATOM     18  H   UNL     1       6.033  -4.899  23.444  0.00  0.00    +0.210 HD
ENDBRANCH   4  17
BRANCH   3  19
ATOM     19  C   UNL     1       8.983  -4.586  26.339  0.00  0.00    +0.190 C 
BRANCH  19  20
ATOM     20  O   UNL     1       8.265  -5.674  26.914  0.00  0.00    -0.392 OA
ATOM     21  H   UNL     1       7.811  -6.144  26.192  0.00  0.00    +0.210 HD
ENDBRANCH  19  20
ENDBRANCH   3  19
TORSDOF 4
ENDMDL
MODEL 9
REMARK VINA RESULT:      -5.6      2.836      4.446
REMARK  Name = 
REMARK  5 active torsions:
REMARK  status: ('A' for Active; 'I' for Inactive)
REMARK    1  A    between atoms: C_1  and  C_2
REMARK    2  A    between atoms: N_4  and  C_10
REMARK    3  A    between atoms: C_14  and  O_21
REMARK    4  A    between atoms: C_16  and  C_19
REMARK    5  A    between atoms: C_19  and  O_20
REMARK                            x       y       z     vdW  Elec       q    Type
REMARK                         _______ _______ _______ _____ _____    ______ ____
ROOT
ATOM      1  C   UNL     1       6.904  -2.961  25.302  0.00  0.00    +0.247 C 
ATOM      2  O   UNL     1       7.747  -3.669  26.228  0.00  0.00    -0.347 OA
ATOM      3  C   UNL     1       9.056  -3.834  25.642  0.00  0.00    +0.177 C 
ATOM      4  C   UNL     1       8.952  -3.413  24.186  0.00  0.00    +0.183 C 
ATOM      5  C   UNL     1       7.840  -2.390  24.229  0.00  0.00    +0.244 C 
ATOM      6  F   UNL     1       7.292  -2.295  22.995  0.00  0.00    -0.238 F 
ENDROOT
BRANCH   1  15
ATOM      7  C   UNL     1       6.265  -5.390  22.224  0.00  0.00    +0.019 C 
ATOM      8  C   UNL     1       5.494  -5.864  23.454  0.00  0.00    +0.090 C 
ATOM      9  C   UNL     1       4.056  -5.409  23.358  0.00  0.00    +0.225 C 
ATOM     10  O   UNL     1       3.229  -6.007  22.668  0.00  0.00    -0.275 OA
ATOM     11  N   UNL     1       3.733  -4.244  23.998  0.00  0.00    -0.240 N 
ATOM     12  H   UNL     1       2.800  -3.891  23.843  0.00  0.00    +0.159 HD
ATOM     13  C   UNL     1       4.606  -3.381  24.611  0.00  0.00    +0.310 C 
ATOM     14  O   UNL     1       4.246  -2.258  24.949  0.00  0.00    -0.252 OA
ATOM     15  N   UNL     1       5.888  -3.866  24.776  0.00  0.00    -0.256 N 
ATOM     16  C   UNL     1       6.069  -5.310  24.747  0.00  0.00    +0.124 C 
ENDBRANCH   1  15
BRANCH   4  17
ATOM     17  O   UNL     1      10.179  -2.863  23.716  0.00  0.00    -0.386 OA
ATOM     18  H   UNL     1      10.437  -2.156  24.338  0.00  0.00    +0.210 HD
ENDBRANCH   4  17
BRANCH   3  19
ATOM     19  C   UNL     1       9.534  -5.284  25.789  0.00  0.00    +0.190 C 
BRANCH  19  20
ATOM     20  O   UNL     1       9.763  -5.895  24.522  0.00  0.00    -0.392 OA
ATOM     21  H   UNL     1       9.513  -5.254  23.834  0.00  0.00    +0.210 HD
ENDBRANCH  19  20
ENDBRANCH   3  19
TORSDOF 4
ENDMDL
