MODEL 1
REMARK VINA RESULT:      -6.3      0.000      0.000
REMARK  Name = 
REMARK  5 active torsions:
REMARK  status: ('A' for Active; 'I' for Inactive)
REMARK    1  A    between atoms: C_1  and  C_2
REMARK    2  A    between atoms: N_4  and  C_10
REMARK    3  A    between atoms: C_13  and  O_20
REMARK    4  A    between atoms: C_15  and  C_18
REMARK    5  A    between atoms: C_18  and  O_19
REMARK                            x       y       z     vdW  Elec       q    Type
REMARK                         _______ _______ _______ _____ _____    ______ ____
ROOT
ATOM      1  C   UNL     1       8.208  -3.934  24.278  0.00  0.00    +0.260 C 
ATOM      2  O   UNL     1       6.817  -3.881  24.661  0.00  0.00    -0.345 OA
ATOM      3  C   UNL     1       6.648  -4.738  25.816  0.00  0.00    +0.178 C 
ATOM      4  C   UNL     1       7.989  -5.419  26.086  0.00  0.00    +0.184 C 
ATOM      5  C   UNL     1       8.973  -4.423  25.505  0.00  0.00    +0.246 C 
ATOM      6  F   UNL     1      10.128  -5.042  25.172  0.00  0.00    -0.238 F 
ENDROOT
BRANCH   1  15
ATOM      7  C   UNL     1      10.721   0.350  24.843  0.00  0.00    +0.051 C 
ATOM      8  C   UNL     1       9.889  -0.616  24.065  0.00  0.00    +0.030 A 
ATOM      9  C   UNL     1       9.561  -0.249  22.667  0.00  0.00    +0.257 A 
ATOM     10  O   UNL     1       9.959   0.791  22.158  0.00  0.00    -0.267 OA
ATOM     11  N   UNL     1       8.796  -1.146  21.981  0.00  0.00    -0.275 N 
ATOM     12  H   UNL     1       8.569  -0.920  21.027  0.00  0.00    +0.173 HD
ATOM     13  C   UNL     1       8.343  -2.349  22.450  0.00  0.00    +0.331 A 
ATOM     14  O   UNL     1       7.698  -3.091  21.716  0.00  0.00    -0.246 OA
ATOM     15  N   UNL     1       8.660  -2.641  23.771  0.00  0.00    -0.271 N 
ATOM     16  C   UNL     1       9.426  -1.781  24.538  0.00  0.00    +0.102 A 
ENDBRANCH   1  15
BRANCH   4  17
ATOM     17  O   UNL     1       8.174  -5.677  27.477  0.00  0.00    -0.386 OA
ATOM     18  H   UNL     1       7.448  -6.230  27.810  0.00  0.00    +0.210 HD
ENDBRANCH   4  17
BRANCH   3  19
ATOM     19  C   UNL     1       5.523  -5.734  25.534  0.00  0.00    +0.190 C 
BRANCH  19  20
ATOM     20  O   UNL     1       5.499  -6.755  26.530  0.00  0.00    -0.392 OA
ATOM     21  H   UNL     1       5.275  -7.585  26.069  0.00  0.00    +0.210 HD
ENDBRANCH  19  20
ENDBRANCH   3  19
TORSDOF 4
ENDMDL
MODEL 2
REMARK VINA RESULT:      -6.2      4.037      6.040
REMARK  Name = 
REMARK  5 active torsions:
REMARK  status: ('A' for Active; 'I' for Inactive)
REMARK    1  A    between atoms: C_1  and  C_2
REMARK    2  A    between atoms: N_4  and  C_10
REMARK    3  A    between atoms: C_13  and  O_20
REMARK    4  A    between atoms: C_15  and  C_18
REMARK    5  A    between atoms: C_18  and  O_19
REMARK                            x       y       z     vdW  Elec       q    Type
REMARK                         _______ _______ _______ _____ _____    ______ ____
ROOT
ATOM      1  C   UNL     1       9.266   1.299  23.427  0.00  0.00    +0.260 C 
ATOM      2  O   UNL     1       9.792   0.416  24.441  0.00  0.00    -0.345 OA
ATOM      3  C   UNL     1      10.094  -0.849  23.807  0.00  0.00    +0.178 C 
ATOM      4  C   UNL     1       9.637  -0.757  22.351  0.00  0.00    +0.184 C 
ATOM      5  C   UNL     1       9.725   0.733  22.086  0.00  0.00    +0.246 C 
ATOM      6  F   UNL     1       8.896   1.081  21.076  0.00  0.00    -0.238 F 
ENDROOT
BRANCH   1  15
ATOM      7  C   UNL     1      12.672   4.948  23.140  0.00  0.00    +0.051 C 
ATOM      8  C   UNL     1      11.326   4.403  23.491  0.00  0.00    +0.030 A 
ATOM      9  C   UNL     1      10.343   5.354  24.063  0.00  0.00    +0.257 A 
ATOM     10  O   UNL     1      10.608   6.538  24.233  0.00  0.00    -0.267 OA
ATOM     11  N   UNL     1       9.125   4.829  24.381  0.00  0.00    -0.275 N 
ATOM     12  H   UNL     1       8.439   5.461  24.763  0.00  0.00    +0.173 HD
ATOM     13  C   UNL     1       8.725   3.536  24.188  0.00  0.00    +0.331 A 
ATOM     14  O   UNL     1       7.582   3.196  24.475  0.00  0.00    -0.246 OA
ATOM     15  N   UNL     1       9.686   2.678  23.666  0.00  0.00    -0.271 N 
ATOM     16  C   UNL     1      10.948   3.128  23.324  0.00  0.00    +0.102 A 
ENDBRANCH   1  15
BRANCH   4  17
ATOM     17  O   UNL     1      10.456  -1.551  21.494  0.00  0.00    -0.386 OA
ATOM     18  H   UNL     1      11.382  -1.502  21.783  0.00  0.00    +0.210 HD
ENDBRANCH   4  17
BRANCH   3  19
ATOM     19  C   UNL     1       9.396  -1.970  24.577  0.00  0.00    +0.190 C 
BRANCH  19  20
ATOM     20  O   UNL     1       9.837  -3.245  24.114  0.00  0.00    -0.392 OA
ATOM     21  H   UNL     1       9.797  -3.847  24.881  0.00  0.00    +0.210 HD
ENDBRANCH  19  20
ENDBRANCH   3  19
TORSDOF 4
ENDMDL
MODEL 3
REMARK VINA RESULT:      -6.1      2.423      5.971
REMARK  Name = 
REMARK  5 active torsions:
REMARK  status: ('A' for Active; 'I' for Inactive)
REMARK    1  A    between atoms: C_1  and  C_2
REMARK    2  A    between atoms: N_4  and  C_10
REMARK    3  A    between atoms: C_13  and  O_20
REMARK    4  A    between atoms: C_15  and  C_18
REMARK    5  A    between atoms: C_18  and  O_19
REMARK                            x       y       z     vdW  Elec       q    Type
REMARK                         _______ _______ _______ _____ _____    ______ ____
ROOT
ATOM      1  C   UNL     1       8.025  -3.272  24.044  0.00  0.00    +0.260 C 
ATOM      2  O   UNL     1       9.264  -2.540  24.161  0.00  0.00    -0.345 OA
ATOM      3  C   UNL     1       9.108  -1.297  23.437  0.00  0.00    +0.178 C 
ATOM      4  C   UNL     1       7.734  -1.321  22.767  0.00  0.00    +0.184 C 
ATOM      5  C   UNL     1       6.954  -2.249  23.679  0.00  0.00    +0.246 C 
ATOM      6  F   UNL     1       5.921  -2.808  23.009  0.00  0.00    -0.238 F 
ENDROOT
BRANCH   1  15
ATOM      7  C   UNL     1       5.249  -4.104  28.118  0.00  0.00    +0.051 C 
ATOM      8  C   UNL     1       6.381  -4.403  27.190  0.00  0.00    +0.030 A 
ATOM      9  C   UNL     1       7.226  -5.577  27.517  0.00  0.00    +0.257 A 
ATOM     10  O   UNL     1       7.008  -6.283  28.493  0.00  0.00    -0.267 OA
ATOM     11  N   UNL     1       8.256  -5.824  26.657  0.00  0.00    -0.275 N 
ATOM     12  H   UNL     1       8.837  -6.622  26.856  0.00  0.00    +0.173 HD
ATOM     13  C   UNL     1       8.551  -5.120  25.522  0.00  0.00    +0.331 A 
ATOM     14  O   UNL     1       9.481  -5.472  24.804  0.00  0.00    -0.246 OA
ATOM     15  N   UNL     1       7.742  -4.019  25.268  0.00  0.00    -0.271 N 
ATOM     16  C   UNL     1       6.681  -3.694  26.094  0.00  0.00    +0.102 A 
ENDBRANCH   1  15
BRANCH   4  17
ATOM     17  O   UNL     1       7.181  -0.011  22.658  0.00  0.00    -0.386 OA
ATOM     18  H   UNL     1       7.859   0.652  22.868  0.00  0.00    +0.210 HD
ENDBRANCH   4  17
BRANCH   3  19
ATOM     19  C   UNL     1      10.253  -1.159  22.435  0.00  0.00    +0.190 C 
BRANCH  19  20
ATOM     20  O   UNL     1       9.746  -0.878  21.131  0.00  0.00    -0.392 OA
ATOM     21  H   UNL     1      10.509  -0.599  20.591  0.00  0.00    +0.210 HD
ENDBRANCH  19  20
ENDBRANCH   3  19
TORSDOF 4
ENDMDL
MODEL 4
REMARK VINA RESULT:      -6.0      2.269      2.716
REMARK  Name = 
REMARK  5 active torsions:
REMARK  status: ('A' for Active; 'I' for Inactive)
REMARK    1  A    between atoms: C_1  and  C_2
REMARK    2  A    between atoms: N_4  and  C_10
REMARK    3  A    between atoms: C_13  and  O_20
REMARK    4  A    between atoms: C_15  and  C_18
REMARK    5  A    between atoms: C_18  and  O_19
REMARK                            x       y       z     vdW  Elec       q    Type
REMARK                         _______ _______ _______ _____ _____    ______ ____
ROOT
ATOM      1  C   UNL     1       7.229  -2.858  24.297  0.00  0.00    +0.260 C 
ATOM      2  O   UNL     1       7.439  -2.866  25.725  0.00  0.00    -0.345 OA
ATOM      3  C   UNL     1       8.160  -4.077  26.055  0.00  0.00    +0.178 C 
ATOM      4  C   UNL     1       8.309  -4.890  24.769  0.00  0.00    +0.184 C 
ATOM      5  C   UNL     1       8.262  -3.812  23.705  0.00  0.00    +0.246 C 
ATOM      6  F   UNL     1       7.859  -4.332  22.525  0.00  0.00    -0.238 F 
ENDROOT
BRANCH   1  15
ATOM      7  C   UNL     1       9.495   0.653  21.553  0.00  0.00    +0.051 C 
ATOM      8  C   UNL     1       8.395   0.147  22.428  0.00  0.00    +0.030 A 
ATOM      9  C   UNL     1       7.281   1.080  22.717  0.00  0.00    +0.257 A 
ATOM     10  O   UNL     1       7.246   2.214  22.254  0.00  0.00    -0.267 OA
ATOM     11  N   UNL     1       6.293   0.595  23.523  0.00  0.00    -0.275 N 
ATOM     12  H   UNL     1       5.522   1.210  23.725  0.00  0.00    +0.173 HD
ATOM     13  C   UNL     1       6.224  -0.666  24.050  0.00  0.00    +0.331 A 
ATOM     14  O   UNL     1       5.256  -0.997  24.726  0.00  0.00    -0.246 OA
ATOM     15  N   UNL     1       7.300  -1.499  23.766  0.00  0.00    -0.271 N 
ATOM     16  C   UNL     1       8.346  -1.081  22.963  0.00  0.00    +0.102 A 
ENDBRANCH   1  15
BRANCH   4  17
ATOM     17  O   UNL     1       9.512  -5.657  24.771  0.00  0.00    -0.386 OA
ATOM     18  H   UNL     1       9.438  -6.389  24.137  0.00  0.00    +0.210 HD
ENDBRANCH   4  17
BRANCH   3  19
ATOM     19  C   UNL     1       7.396  -4.828  27.146  0.00  0.00    +0.190 C 
BRANCH  19  20
ATOM     20  O   UNL     1       8.050  -6.057  27.458  0.00  0.00    -0.392 OA
ATOM     21  H   UNL     1       8.615  -6.272  26.692  0.00  0.00    +0.210 HD
ENDBRANCH  19  20
ENDBRANCH   3  19
TORSDOF 4
ENDMDL
MODEL 5
REMARK VINA RESULT:      -5.9      2.847      6.229
REMARK  Name = 
REMARK  5 active torsions:
REMARK  status: ('A' for Active; 'I' for Inactive)
REMARK    1  A    between atoms: C_1  and  C_2
REMARK    2  A    between atoms: N_4  and  C_10
REMARK    3  A    between atoms: C_13  and  O_20
REMARK    4  A    between atoms: C_15  and  C_18
REMARK    5  A    between atoms: C_18  and  O_19
REMARK                            x       y       z     vdW  Elec       q    Type
REMARK                         _______ _______ _______ _____ _____    ______ ____
ROOT
ATOM      1  C   UNL     1       7.105  -3.994  22.988  0.00  0.00    +0.260 C 
ATOM      2  O   UNL     1       8.272  -3.819  23.820  0.00  0.00    -0.345 OA
ATOM      3  C   UNL     1       8.607  -2.411  23.815  0.00  0.00    +0.178 C 
ATOM      4  C   UNL     1       7.647  -1.711  22.853  0.00  0.00    +0.184 C 
ATOM      5  C   UNL     1       6.438  -2.625  22.892  0.00  0.00    +0.246 C 
ATOM      6  F   UNL     1       5.710  -2.490  21.761  0.00  0.00    -0.238 F 
ENDROOT
BRANCH   1  15
ATOM      7  C   UNL     1       5.075  -6.462  26.832  0.00  0.00    +0.051 C 
ATOM      8  C   UNL     1       5.268  -6.184  25.377  0.00  0.00    +0.030 A 
ATOM      9  C   UNL     1       4.472  -6.995  24.425  0.00  0.00    +0.257 A 
ATOM     10  O   UNL     1       3.679  -7.849  24.803  0.00  0.00    -0.267 OA
ATOM     11  N   UNL     1       4.671  -6.725  23.103  0.00  0.00    -0.275 N 
ATOM     12  H   UNL     1       4.134  -7.259  22.440  0.00  0.00    +0.173 HD
ATOM     13  C   UNL     1       5.499  -5.765  22.589  0.00  0.00    +0.331 A 
ATOM     14  O   UNL     1       5.557  -5.588  21.377  0.00  0.00    -0.246 OA
ATOM     15  N   UNL     1       6.237  -5.042  23.519  0.00  0.00    -0.271 N 
ATOM     16  C   UNL     1       6.099  -5.260  24.878  0.00  0.00    +0.102 A 
ENDBRANCH   1  15
BRANCH   4  17
ATOM     17  O   UNL     1       7.380  -0.371  23.262  0.00  0.00    -0.386 OA
ATOM     18  H   UNL     1       8.159   0.186  23.099  0.00  0.00    +0.210 HD
ENDBRANCH   4  17
BRANCH   3  19
ATOM     19  C   UNL     1      10.073  -2.251  23.411  0.00  0.00    +0.190 C 
BRANCH  19  20
ATOM     20  O   UNL     1      10.302  -0.953  22.865  0.00  0.00    -0.392 OA
ATOM     21  H   UNL     1      10.452  -1.078  21.909  0.00  0.00    +0.210 HD
ENDBRANCH  19  20
ENDBRANCH   3  19
TORSDOF 4
ENDMDL
MODEL 6
REMARK VINA RESULT:      -5.8      2.672      6.450
REMARK  Name = 
REMARK  5 active torsions:
REMARK  status: ('A' for Active; 'I' for Inactive)
REMARK    1  A    between atoms: C_1  and  C_2
REMARK    2  A    between atoms: N_4  and  C_10
REMARK    3  A    between atoms: C_13  and  O_20
REMARK    4  A    between atoms: C_15  and  C_18
REMARK    5  A    between atoms: C_18  and  O_19
REMARK                            x       y       z     vdW  Elec       q    Type
REMARK                         _______ _______ _______ _____ _____    ______ ____
ROOT
ATOM      1  C   UNL     1       8.450   0.258  23.995  0.00  0.00    +0.260 C 
ATOM      2  O   UNL     1       7.425   0.656  23.059  0.00  0.00    -0.345 OA
ATOM      3  C   UNL     1       8.006   1.632  22.162  0.00  0.00    +0.178 C 
ATOM      4  C   UNL     1       9.431   1.910  22.641  0.00  0.00    +0.184 C 
ATOM      5  C   UNL     1       9.784   0.616  23.348  0.00  0.00    +0.246 C 
ATOM      6  F   UNL     1      10.755   0.831  24.264  0.00  0.00    -0.238 F 
ENDROOT
BRANCH   1  15
ATOM      7  C   UNL     1       7.461  -4.483  22.755  0.00  0.00    +0.051 C 
ATOM      8  C   UNL     1       7.863  -3.410  23.715  0.00  0.00    +0.030 A 
ATOM      9  C   UNL     1       8.206  -3.833  25.093  0.00  0.00    +0.257 A 
ATOM     10  O   UNL     1       8.176  -5.008  25.438  0.00  0.00    -0.267 OA
ATOM     11  N   UNL     1       8.563  -2.834  25.950  0.00  0.00    -0.275 N 
ATOM     12  H   UNL     1       8.809  -3.101  26.889  0.00  0.00    +0.173 HD
ATOM     13  C   UNL     1       8.666  -1.504  25.645  0.00  0.00    +0.331 A 
ATOM     14  O   UNL     1       9.044  -0.706  26.496  0.00  0.00    -0.246 OA
ATOM     15  N   UNL     1       8.318  -1.154  24.346  0.00  0.00    -0.271 N 
ATOM     16  C   UNL     1       7.937  -2.106  23.417  0.00  0.00    +0.102 A 
ENDBRANCH   1  15
BRANCH   4  17
ATOM     17  O   UNL     1      10.295   2.236  21.554  0.00  0.00    -0.386 OA
ATOM     18  H   UNL     1      10.706   1.429  21.206  0.00  0.00    +0.210 HD
ENDBRANCH   4  17
BRANCH   3  19
ATOM     19  C   UNL     1       7.128   2.884  22.156  0.00  0.00    +0.190 C 
BRANCH  19  20
ATOM     20  O   UNL     1       7.934   4.059  22.087  0.00  0.00    -0.392 OA
ATOM     21  H   UNL     1       8.738   3.874  22.608  0.00  0.00    +0.210 HD
ENDBRANCH  19  20
ENDBRANCH   3  19
TORSDOF 4
ENDMDL
MODEL 7
REMARK VINA RESULT:      -5.8      2.555      3.497
REMARK  Name = 
REMARK  5 active torsions:
REMARK  status: ('A' for Active; 'I' for Inactive)
REMARK    1  A    between atoms: C_1  and  C_2
REMARK    2  A    between atoms: N_4  and  C_10
REMARK    3  A    between atoms: C_13  and  O_20
REMARK    4  A    between atoms: C_15  and  C_18
REMARK    5  A    between atoms: C_18  and  O_19
REMARK                            x       y       z     vdW  Elec       q    Type
REMARK                         _______ _______ _______ _____ _____    ______ ____
ROOT
ATOM      1  C   UNL     1       7.710  -3.100  23.856  0.00  0.00    +0.260 C 
ATOM      2  O   UNL     1       8.073  -3.825  22.661  0.00  0.00    -0.345 OA
ATOM      3  C   UNL     1       6.881  -4.480  22.166  0.00  0.00    +0.178 C 
ATOM      4  C   UNL     1       5.758  -4.213  23.169  0.00  0.00    +0.184 C 
ATOM      5  C   UNL     1       6.198  -2.906  23.796  0.00  0.00    +0.246 C 
ATOM      6  F   UNL     1       5.652  -2.767  25.026  0.00  0.00    -0.238 F 
ENDROOT
BRANCH   1  15
ATOM      7  C   UNL     1       9.675   1.012  21.803  0.00  0.00    +0.051 C 
ATOM      8  C   UNL     1       9.371   0.110  22.954  0.00  0.00    +0.030 A 
ATOM      9  C   UNL     1       9.822   0.554  24.295  0.00  0.00    +0.257 A 
ATOM     10  O   UNL     1      10.408   1.616  24.464  0.00  0.00    -0.267 OA
ATOM     11  N   UNL     1       9.537  -0.291  25.327  0.00  0.00    -0.275 N 
ATOM     12  H   UNL     1       9.828  -0.005  26.248  0.00  0.00    +0.173 HD
ATOM     13  C   UNL     1       8.853  -1.473  25.241  0.00  0.00    +0.331 A 
ATOM     14  O   UNL     1       8.620  -2.123  26.254  0.00  0.00    -0.246 OA
ATOM     15  N   UNL     1       8.466  -1.855  23.962  0.00  0.00    -0.271 N 
ATOM     16  C   UNL     1       8.723  -1.059  22.860  0.00  0.00    +0.102 A 
ENDBRANCH   1  15
BRANCH   4  17
ATOM     17  O   UNL     1       4.485  -4.153  22.526  0.00  0.00    -0.386 OA
ATOM     18  H   UNL     1       3.994  -4.975  22.689  0.00  0.00    +0.210 HD
ENDBRANCH   4  17
BRANCH   3  19
ATOM     19  C   UNL     1       7.172  -5.969  21.984  0.00  0.00    +0.190 C 
BRANCH  19  20
ATOM     20  O   UNL     1       5.962  -6.724  22.029  0.00  0.00    -0.392 OA
ATOM     21  H   UNL     1       6.214  -7.659  21.908  0.00  0.00    +0.210 HD
ENDBRANCH  19  20
ENDBRANCH   3  19
TORSDOF 4
ENDMDL
MODEL 8
REMARK VINA RESULT:      -5.8      2.317      6.211
REMARK  Name = 
REMARK  5 active torsions:
REMARK  status: ('A' for Active; 'I' for Inactive)
REMARK    1  A    between atoms: C_1  and  C_2
REMARK    2  A    between atoms: N_4  and  C_10
REMARK    3  A    between atoms: C_13  and  O_20
REMARK    4  A    between atoms: C_15  and  C_18
REMARK    5  A    between atoms: C_18  and  O_19
REMARK                            x       y       z     vdW  Elec       q    Type
REMARK                         _______ _______ _______ _____ _____    ______ ____
ROOT
ATOM      1  C   UNL     1       9.055  -0.967  23.696  0.00  0.00    +0.260 C 
ATOM      2  O   UNL     1       8.529   0.201  24.363  0.00  0.00    -0.345 OA
ATOM      3  C   UNL     1       8.719   1.332  23.480  0.00  0.00    +0.178 C 
ATOM      4  C   UNL     1       9.486   0.838  22.255  0.00  0.00    +0.184 C 
ATOM      5  C   UNL     1       9.101  -0.628  22.209  0.00  0.00    +0.246 C 
ATOM      6  F   UNL     1      10.042  -1.341  21.552  0.00  0.00    -0.238 F 
ENDROOT
BRANCH   1  15
ATOM      7  C   UNL     1       4.646  -3.222  24.383  0.00  0.00    +0.051 C 
ATOM      8  C   UNL     1       6.138  -3.202  24.309  0.00  0.00    +0.030 A 
ATOM      9  C   UNL     1       6.839  -4.493  24.513  0.00  0.00    +0.257 A 
ATOM     10  O   UNL     1       6.232  -5.536  24.721  0.00  0.00    -0.267 OA
ATOM     11  N   UNL     1       8.201  -4.445  24.446  0.00  0.00    -0.275 N 
ATOM     12  H   UNL     1       8.696  -5.313  24.574  0.00  0.00    +0.173 HD
ATOM     13  C   UNL     1       8.961  -3.340  24.178  0.00  0.00    +0.331 A 
ATOM     14  O   UNL     1      10.181  -3.438  24.100  0.00  0.00    -0.246 OA
ATOM     15  N   UNL     1       8.260  -2.151  24.012  0.00  0.00    -0.271 N 
ATOM     16  C   UNL     1       6.879  -2.111  24.071  0.00  0.00    +0.102 A 
ENDBRANCH   1  15
BRANCH   4  17
ATOM     17  O   UNL     1       9.131   1.571  21.083  0.00  0.00    -0.386 OA
ATOM     18  H   UNL     1       9.793   1.424  20.388  0.00  0.00    +0.210 HD
ENDBRANCH   4  17
BRANCH   3  19
ATOM     19  C   UNL     1       9.458   2.434  24.239  0.00  0.00    +0.190 C 
BRANCH  19  20
ATOM     20  O   UNL     1      10.365   3.115  23.372  0.00  0.00    -0.392 OA
ATOM     21  H   UNL     1      10.107   2.879  22.462  0.00  0.00    +0.210 HD
ENDBRANCH  19  20
ENDBRANCH   3  19
TORSDOF 4
ENDMDL
MODEL 9
REMARK VINA RESULT:      -5.8      2.075      2.716
REMARK  Name = 
REMARK  5 active torsions:
REMARK  status: ('A' for Active; 'I' for Inactive)
REMARK    1  A    between atoms: C_1  and  C_2
REMARK    2  A    between atoms: N_4  and  C_10
REMARK    3  A    between atoms: C_13  and  O_20
REMARK    4  A    between atoms: C_15  and  C_18
REMARK    5  A    between atoms: C_18  and  O_19
REMARK                            x       y       z     vdW  Elec       q    Type
REMARK                         _______ _______ _______ _____ _____    ______ ____
ROOT
ATOM      1  C   UNL     1       8.325  -2.934  22.657  0.00  0.00    +0.260 C 
ATOM      2  O   UNL     1       7.049  -3.334  22.113  0.00  0.00    -0.345 OA
ATOM      3  C   UNL     1       6.567  -4.449  22.902  0.00  0.00    +0.178 C 
ATOM      4  C   UNL     1       7.654  -4.801  23.917  0.00  0.00    +0.184 C 
ATOM      5  C   UNL     1       8.373  -3.477  24.082  0.00  0.00    +0.246 C 
ATOM      6  F   UNL     1       9.640  -3.680  24.508  0.00  0.00    -0.238 F 
ENDROOT
BRANCH   1  15
ATOM      7  C   UNL     1       6.524   1.720  22.965  0.00  0.00    +0.051 C 
ATOM      8  C   UNL     1       7.615   0.722  22.744  0.00  0.00    +0.030 A 
ATOM      9  C   UNL     1       8.971   1.256  22.476  0.00  0.00    +0.257 A 
ATOM     10  O   UNL     1       9.202   2.459  22.446  0.00  0.00    -0.267 OA
ATOM     11  N   UNL     1       9.946   0.324  22.272  0.00  0.00    -0.275 N 
ATOM     12  H   UNL     1      10.877   0.666  22.096  0.00  0.00    +0.173 HD
ATOM     13  C   UNL     1       9.793  -1.034  22.328  0.00  0.00    +0.331 A 
ATOM     14  O   UNL     1      10.763  -1.768  22.171  0.00  0.00    -0.246 OA
ATOM     15  N   UNL     1       8.501  -1.486  22.566  0.00  0.00    -0.271 N 
ATOM     16  C   UNL     1       7.453  -0.607  22.775  0.00  0.00    +0.102 A 
ENDBRANCH   1  15
BRANCH   4  17
ATOM     17  O   UNL     1       7.097  -5.317  25.124  0.00  0.00    -0.386 OA
ATOM     18  H   UNL     1       6.758  -4.588  25.670  0.00  0.00    +0.210 HD
ENDBRANCH   4  17
BRANCH   3  19
ATOM     19  C   UNL     1       6.231  -5.610  21.966  0.00  0.00    +0.190 C 
BRANCH  19  20
ATOM     20  O   UNL     1       5.545  -6.641  22.675  0.00  0.00    -0.392 OA
ATOM     21  H   UNL     1       4.622  -6.341  22.775  0.00  0.00    +0.210 HD
ENDBRANCH  19  20
ENDBRANCH   3  19
TORSDOF 4
ENDMDL
