MODEL 1
REMARK VINA RESULT:      -6.0      0.000      0.000
REMARK  Name = 
REMARK  4 active torsions:
REMARK  status: ('A' for Active; 'I' for Inactive)
REMARK    1  A    between atoms: C_1  and  C_2
REMARK    2  A    between atoms: N_4  and  C_10
REMARK    3  A    between atoms: C_14  and  C_17
REMARK    4  A    between atoms: C_17  and  O_18
REMARK                            x       y       z     vdW  Elec       q    Type
REMARK                         _______ _______ _______ _____ _____    ______ ____
ROOT
ATOM      1  C   UNL     1       6.716  -3.045  26.852  0.00  0.00    +0.019 C 
ATOM      2  C   UNL     1       6.549  -4.430  26.239  0.00  0.00    +0.090 C 
ATOM      3  C   UNL     1       7.440  -5.427  26.947  0.00  0.00    +0.225 C 
ATOM      4  O   UNL     1       7.164  -5.877  28.057  0.00  0.00    -0.275 OA
ATOM      5  N   UNL     1       8.627  -5.738  26.337  0.00  0.00    -0.240 N 
ATOM      6  H   UNL     1       9.276  -6.270  26.898  0.00  0.00    +0.159 HD
ATOM      7  C   UNL     1       9.183  -5.072  25.277  0.00  0.00    +0.311 C 
ATOM      8  O   UNL     1      10.392  -5.131  25.076  0.00  0.00    -0.252 OA
ATOM      9  N   UNL     1       8.306  -4.315  24.529  0.00  0.00    -0.255 N 
ATOM     10  C   UNL     1       6.877  -4.457  24.753  0.00  0.00    +0.124 C 
ENDROOT
BRANCH   9  11
ATOM     11  C   UNL     1       8.851  -3.243  23.734  0.00  0.00    +0.234 C 
ATOM     12  O   UNL     1       9.354  -2.230  24.626  0.00  0.00    -0.346 OA
ATOM     13  C   UNL     1       9.225  -0.972  23.923  0.00  0.00    +0.169 C 
ATOM     14  C   UNL     1       8.067  -1.210  23.009  0.00  0.00    +0.006 C 
ATOM     15  C   UNL     1       7.846  -2.525  22.910  0.00  0.00    +0.022 C 
BRANCH  13  16
ATOM     16  C   UNL     1       9.061   0.173  24.929  0.00  0.00    +0.191 C 
BRANCH  16  17
ATOM     17  O   UNL     1      10.316   0.678  25.380  0.00  0.00    -0.392 OA
ATOM     18  H   UNL     1      10.885  -0.104  25.490  0.00  0.00    +0.210 HD
ENDBRANCH  16  17
ENDBRANCH  13  16
ENDBRANCH   9  11
TORSDOF 3
ENDMDL
MODEL 2
REMARK VINA RESULT:      -5.7      1.987      2.599
REMARK  Name = 
REMARK  4 active torsions:
REMARK  status: ('A' for Active; 'I' for Inactive)
REMARK    1  A    between atoms: C_1  and  C_2
REMARK    2  A    between atoms: N_4  and  C_10
REMARK    3  A    between atoms: C_14  and  C_17
REMARK    4  A    between atoms: C_17  and  O_18
REMARK                            x       y       z     vdW  Elec       q    Type
REMARK                         _______ _______ _______ _____ _____    ______ ____
ROOT
ATOM      1  C   UNL     1       6.382  -0.955  24.363  0.00  0.00    +0.019 C 
ATOM      2  C   UNL     1       6.280  -2.260  23.583  0.00  0.00    +0.090 C 
ATOM      3  C   UNL     1       6.467  -3.441  24.509  0.00  0.00    +0.225 C 
ATOM      4  O   UNL     1       5.581  -3.820  25.272  0.00  0.00    -0.275 OA
ATOM      5  N   UNL     1       7.710  -4.017  24.533  0.00  0.00    -0.240 N 
ATOM      6  H   UNL     1       7.862  -4.689  25.272  0.00  0.00    +0.159 HD
ATOM      7  C   UNL     1       8.848  -3.494  23.979  0.00  0.00    +0.311 C 
ATOM      8  O   UNL     1       9.951  -3.833  24.398  0.00  0.00    -0.252 OA
ATOM      9  N   UNL     1       8.646  -2.549  22.995  0.00  0.00    -0.255 N 
ATOM     10  C   UNL     1       7.307  -2.355  22.463  0.00  0.00    +0.124 C 
ENDROOT
BRANCH   9  11
ATOM     11  C   UNL     1       9.720  -1.630  22.714  0.00  0.00    +0.234 C 
ATOM     12  O   UNL     1       9.872  -0.752  23.847  0.00  0.00    -0.346 OA
ATOM     13  C   UNL     1      10.373   0.500  23.324  0.00  0.00    +0.169 C 
ATOM     14  C   UNL     1       9.838   0.525  21.929  0.00  0.00    +0.006 C 
ATOM     15  C   UNL     1       9.450  -0.707  21.583  0.00  0.00    +0.022 C 
BRANCH  13  16
ATOM     16  C   UNL     1       9.937   1.656  24.231  0.00  0.00    +0.191 C 
BRANCH  16  17
ATOM     17  O   UNL     1       9.254   1.198  25.396  0.00  0.00    -0.392 OA
ATOM     18  H   UNL     1       8.310   1.364  25.226  0.00  0.00    +0.210 HD
ENDBRANCH  16  17
ENDBRANCH  13  16
ENDBRANCH   9  11
TORSDOF 3
ENDMDL
MODEL 3
REMARK VINA RESULT:      -5.5      2.225      3.347
REMARK  Name = 
REMARK  4 active torsions:
REMARK  status: ('A' for Active; 'I' for Inactive)
REMARK    1  A    between atoms: C_1  and  C_2
REMARK    2  A    between atoms: N_4  and  C_10
REMARK    3  A    between atoms: C_14  and  C_17
REMARK    4  A    between atoms: C_17  and  O_18
REMARK                            x       y       z     vdW  Elec       q    Type
REMARK                         _______ _______ _______ _____ _____    ______ ____
ROOT
ATOM      1  C   UNL     1       6.171  -2.613  22.508  0.00  0.00    +0.019 C 
ATOM      2  C   UNL     1       7.462  -3.420  22.569  0.00  0.00    +0.090 C 
ATOM      3  C   UNL     1       7.372  -4.473  23.651  0.00  0.00    +0.225 C 
ATOM      4  O   UNL     1       6.725  -5.508  23.503  0.00  0.00    -0.275 OA
ATOM      5  N   UNL     1       7.967  -4.181  24.850  0.00  0.00    -0.240 N 
ATOM      6  H   UNL     1       7.755  -4.817  25.606  0.00  0.00    +0.159 HD
ATOM      7  C   UNL     1       8.432  -2.952  25.237  0.00  0.00    +0.311 C 
ATOM      8  O   UNL     1       8.547  -2.681  26.429  0.00  0.00    -0.252 OA
ATOM      9  N   UNL     1       8.689  -2.068  24.210  0.00  0.00    -0.255 N 
ATOM     10  C   UNL     1       8.683  -2.551  22.839  0.00  0.00    +0.124 C 
ENDROOT
BRANCH   9  11
ATOM     11  C   UNL     1       8.709  -0.661  24.523  0.00  0.00    +0.234 C 
ATOM     12  O   UNL     1       8.185   0.062  23.391  0.00  0.00    -0.346 OA
ATOM     13  C   UNL     1       8.832   1.356  23.403  0.00  0.00    +0.169 C 
ATOM     14  C   UNL     1      10.141   1.076  24.067  0.00  0.00    +0.006 C 
ATOM     15  C   UNL     1      10.071  -0.097  24.705  0.00  0.00    +0.022 C 
BRANCH  13  16
ATOM     16  C   UNL     1       8.909   1.912  21.977  0.00  0.00    +0.191 C 
BRANCH  16  17
ATOM     17  O   UNL     1      10.237   2.290  21.618  0.00  0.00    -0.392 OA
ATOM     18  H   UNL     1      10.820   1.780  22.206  0.00  0.00    +0.210 HD
ENDBRANCH  16  17
ENDBRANCH  13  16
ENDBRANCH   9  11
TORSDOF 3
ENDMDL
MODEL 4
REMARK VINA RESULT:      -5.5      2.456      5.174
REMARK  Name = 
REMARK  4 active torsions:
REMARK  status: ('A' for Active; 'I' for Inactive)
REMARK    1  A    between atoms: C_1  and  C_2
REMARK    2  A    between atoms: N_4  and  C_10
REMARK    3  A    between atoms: C_14  and  C_17
REMARK    4  A    between atoms: C_17  and  O_18
REMARK                            x       y       z     vdW  Elec       q    Type
REMARK                         _______ _______ _______ _____ _____    ______ ____
ROOT
ATOM      1  C   UNL     1       7.601  -4.974  23.480  0.00  0.00    +0.019 C 
ATOM      2  C   UNL     1       8.234  -4.013  24.479  0.00  0.00    +0.090 C 
ATOM      3  C   UNL     1       9.274  -4.731  25.311  0.00  0.00    +0.225 C 
ATOM      4  O   UNL     1      10.385  -5.013  24.866  0.00  0.00    -0.275 OA
ATOM      5  N   UNL     1       8.890  -5.144  26.559  0.00  0.00    -0.240 N 
ATOM      6  H   UNL     1       9.536  -5.762  27.029  0.00  0.00    +0.159 HD
ATOM      7  C   UNL     1       7.606  -5.173  27.035  0.00  0.00    +0.311 C 
ATOM      8  O   UNL     1       7.305  -5.928  27.955  0.00  0.00    -0.252 OA
ATOM      9  N   UNL     1       6.712  -4.358  26.373  0.00  0.00    -0.255 N 
ATOM     10  C   UNL     1       7.213  -3.385  25.417  0.00  0.00    +0.124 C 
ENDROOT
BRANCH   9  11
ATOM     11  C   UNL     1       5.309  -4.675  26.476  0.00  0.00    +0.234 C 
ATOM     12  O   UNL     1       5.057  -5.867  25.708  0.00  0.00    -0.346 OA
ATOM     13  C   UNL     1       3.691  -5.768  25.243  0.00  0.00    +0.169 C 
ATOM     14  C   UNL     1       3.465  -4.293  25.161  0.00  0.00    +0.006 C 
ATOM     15  C   UNL     1       4.410  -3.662  25.866  0.00  0.00    +0.022 C 
BRANCH  13  16
ATOM     16  C   UNL     1       3.528  -6.545  23.932  0.00  0.00    +0.191 C 
BRANCH  16  17
ATOM     17  O   UNL     1       4.584  -7.482  23.726  0.00  0.00    -0.392 OA
ATOM     18  H   UNL     1       4.441  -8.183  24.385  0.00  0.00    +0.210 HD
ENDBRANCH  16  17
ENDBRANCH  13  16
ENDBRANCH   9  11
TORSDOF 3
ENDMDL
MODEL 5
REMARK VINA RESULT:      -5.4      2.419      5.607
REMARK  Name = 
REMARK  4 active torsions:
REMARK  status: ('A' for Active; 'I' for Inactive)
REMARK    1  A    between atoms: C_1  and  C_2
REMARK    2  A    between atoms: N_4  and  C_10
REMARK    3  A    between atoms: C_14  and  C_17
REMARK    4  A    between atoms: C_17  and  O_18
REMARK                            x       y       z     vdW  Elec       q    Type
REMARK                         _______ _______ _______ _____ _____    ______ ____
ROOT
ATOM      1  C   UNL     1      10.640   0.305  24.832  0.00  0.00    +0.019 C 
ATOM      2  C   UNL     1      10.589  -0.079  23.358  0.00  0.00    +0.090 C 
ATOM      3  C   UNL     1       9.826   0.963  22.570  0.00  0.00    +0.225 C 
ATOM      4  O   UNL     1      10.318   2.051  22.277  0.00  0.00    -0.275 OA
ATOM      5  N   UNL     1       8.517   0.681  22.277  0.00  0.00    -0.240 N 
ATOM      6  H   UNL     1       7.982   1.451  21.902  0.00  0.00    +0.159 HD
ATOM      7  C   UNL     1       7.776  -0.337  22.817  0.00  0.00    +0.311 C 
ATOM      8  O   UNL     1       6.551  -0.264  22.837  0.00  0.00    -0.252 OA
ATOM      9  N   UNL     1       8.503  -1.373  23.363  0.00  0.00    -0.255 N 
ATOM     10  C   UNL     1       9.936  -1.435  23.128  0.00  0.00    +0.124 C 
ENDROOT
BRANCH   9  11
ATOM     11  C   UNL     1       7.854  -2.208  24.342  0.00  0.00    +0.234 C 
ATOM     12  O   UNL     1       8.849  -2.663  25.279  0.00  0.00    -0.346 OA
ATOM     13  C   UNL     1       8.396  -3.951  25.756  0.00  0.00    +0.169 C 
ATOM     14  C   UNL     1       7.588  -4.473  24.612  0.00  0.00    +0.006 C 
ATOM     15  C   UNL     1       7.285  -3.463  23.790  0.00  0.00    +0.022 C 
BRANCH  13  16
ATOM     16  C   UNL     1       9.599  -4.806  26.171  0.00  0.00    +0.191 C 
BRANCH  16  17
ATOM     17  O   UNL     1      10.331  -5.289  25.046  0.00  0.00    -0.392 OA
ATOM     18  H   UNL     1       9.681  -5.363  24.326  0.00  0.00    +0.210 HD
ENDBRANCH  16  17
ENDBRANCH  13  16
ENDBRANCH   9  11
TORSDOF 3
ENDMDL
MODEL 6
REMARK VINA RESULT:      -5.4      2.898      3.486
REMARK  Name = 
REMARK  4 active torsions:
REMARK  status: ('A' for Active; 'I' for Inactive)
REMARK    1  A    between atoms: C_1  and  C_2
REMARK    2  A    between atoms: N_4  and  C_10
REMARK    3  A    between atoms: C_14  and  C_17
REMARK    4  A    between atoms: C_17  and  O_18
REMARK                            x       y       z     vdW  Elec       q    Type
REMARK                         _______ _______ _______ _____ _____    ______ ____
ROOT
ATOM      1  C   UNL     1       6.544  -5.198  25.292  0.00  0.00    +0.019 C 
ATOM      2  C   UNL     1       5.130  -5.151  24.726  0.00  0.00    +0.090 C 
ATOM      3  C   UNL     1       4.837  -6.411  23.942  0.00  0.00    +0.225 C 
ATOM      4  O   UNL     1       4.588  -7.481  24.494  0.00  0.00    -0.275 OA
ATOM      5  N   UNL     1       4.957  -6.334  22.579  0.00  0.00    -0.240 N 
ATOM      6  H   UNL     1       4.922  -7.217  22.091  0.00  0.00    +0.159 HD
ATOM      7  C   UNL     1       5.530  -5.304  21.881  0.00  0.00    +0.311 C 
ATOM      8  O   UNL     1       5.973  -5.494  20.753  0.00  0.00    -0.252 OA
ATOM      9  N   UNL     1       5.612  -4.105  22.558  0.00  0.00    -0.255 N 
ATOM     10  C   UNL     1       4.903  -3.951  23.817  0.00  0.00    +0.124 C 
ENDROOT
BRANCH   9  11
ATOM     11  C   UNL     1       6.593  -3.148  22.113  0.00  0.00    +0.234 C 
ATOM     12  O   UNL     1       7.884  -3.563  22.600  0.00  0.00    -0.346 OA
ATOM     13  C   UNL     1       8.657  -2.353  22.779  0.00  0.00    +0.169 C 
ATOM     14  C   UNL     1       7.614  -1.320  23.059  0.00  0.00    +0.006 C 
ATOM     15  C   UNL     1       6.419  -1.788  22.683  0.00  0.00    +0.022 C 
BRANCH  13  16
ATOM     16  C   UNL     1       9.706  -2.562  23.877  0.00  0.00    +0.191 C 
BRANCH  16  17
ATOM     17  O   UNL     1       9.756  -1.467  24.789  0.00  0.00    -0.392 OA
ATOM     18  H   UNL     1       8.842  -1.138  24.850  0.00  0.00    +0.210 HD
ENDBRANCH  16  17
ENDBRANCH  13  16
ENDBRANCH   9  11
TORSDOF 3
ENDMDL
MODEL 7
REMARK VINA RESULT:      -5.3      1.981      5.191
REMARK  Name = 
REMARK  4 active torsions:
REMARK  status: ('A' for Active; 'I' for Inactive)
REMARK    1  A    between atoms: C_1  and  C_2
REMARK    2  A    between atoms: N_4  and  C_10
REMARK    3  A    between atoms: C_14  and  C_17
REMARK    4  A    between atoms: C_17  and  O_18
REMARK                            x       y       z     vdW  Elec       q    Type
REMARK                         _______ _______ _______ _____ _____    ______ ____
ROOT
ATOM      1  C   UNL     1       7.025   0.014  24.566  0.00  0.00    +0.019 C 
ATOM      2  C   UNL     1       8.427   0.233  25.121  0.00  0.00    +0.090 C 
ATOM      3  C   UNL     1       9.318   0.849  24.065  0.00  0.00    +0.225 C 
ATOM      4  O   UNL     1       9.245   2.038  23.760  0.00  0.00    -0.275 OA
ATOM      5  N   UNL     1      10.152  -0.001  23.387  0.00  0.00    -0.240 N 
ATOM      6  H   UNL     1      10.612   0.396  22.580  0.00  0.00    +0.159 HD
ATOM      7  C   UNL     1      10.095  -1.370  23.411  0.00  0.00    +0.311 C 
ATOM      8  O   UNL     1      10.566  -2.024  22.485  0.00  0.00    -0.252 OA
ATOM      9  N   UNL     1       9.436  -1.914  24.492  0.00  0.00    -0.255 N 
ATOM     10  C   UNL     1       9.073  -1.056  25.608  0.00  0.00    +0.124 C 
ENDROOT
BRANCH   9  11
ATOM     11  C   UNL     1       8.920  -3.254  24.361  0.00  0.00    +0.234 C 
ATOM     12  O   UNL     1       7.797  -3.396  25.252  0.00  0.00    -0.346 OA
ATOM     13  C   UNL     1       7.758  -4.790  25.636  0.00  0.00    +0.169 C 
ATOM     14  C   UNL     1       9.189  -5.211  25.532  0.00  0.00    +0.006 C 
ATOM     15  C   UNL     1       9.861  -4.314  24.803  0.00  0.00    +0.022 C 
BRANCH  13  16
ATOM     16  C   UNL     1       7.117  -4.932  27.020  0.00  0.00    +0.191 C 
BRANCH  16  17
ATOM     17  O   UNL     1       7.646  -6.038  27.749  0.00  0.00    -0.392 OA
ATOM     18  H   UNL     1       8.040  -5.655  28.551  0.00  0.00    +0.210 HD
ENDBRANCH  16  17
ENDBRANCH  13  16
ENDBRANCH   9  11
TORSDOF 3
ENDMDL
MODEL 8
REMARK VINA RESULT:      -5.3      2.584      3.415
REMARK  Name = 
REMARK  4 active torsions:
REMARK  status: ('A' for Active; 'I' for Inactive)
REMARK    1  A    between atoms: C_1  and  C_2
REMARK    2  A    between atoms: N_4  and  C_10
REMARK    3  A    between atoms: C_14  and  C_17
REMARK    4  A    between atoms: C_17  and  O_18
REMARK                            x       y       z     vdW  Elec       q    Type
REMARK                         _______ _______ _______ _____ _____    ______ ____
ROOT
ATOM      1  C   UNL     1       8.478  -0.587  26.763  0.00  0.00    +0.019 C 
ATOM      2  C   UNL     1       7.642  -1.358  25.749  0.00  0.00    +0.090 C 
ATOM      3  C   UNL     1       8.054  -2.814  25.727  0.00  0.00    +0.225 C 
ATOM      4  O   UNL     1       7.721  -3.600  26.610  0.00  0.00    -0.275 OA
ATOM      5  N   UNL     1       8.903  -3.200  24.723  0.00  0.00    -0.240 N 
ATOM      6  H   UNL     1       9.296  -4.126  24.821  0.00  0.00    +0.159 HD
ATOM      7  C   UNL     1       9.588  -2.362  23.883  0.00  0.00    +0.311 C 
ATOM      8  O   UNL     1      10.613  -2.747  23.327  0.00  0.00    -0.252 OA
ATOM      9  N   UNL     1       9.076  -1.087  23.775  0.00  0.00    -0.255 N 
ATOM     10  C   UNL     1       7.768  -0.797  24.339  0.00  0.00    +0.124 C 
ENDROOT
BRANCH   9  11
ATOM     11  C   UNL     1       9.961  -0.042  23.325  0.00  0.00    +0.234 C 
ATOM     12  O   UNL     1       9.612   1.174  24.015  0.00  0.00    -0.346 OA
ATOM     13  C   UNL     1       9.953   2.259  23.120  0.00  0.00    +0.169 C 
ATOM     14  C   UNL     1       9.817   1.639  21.767  0.00  0.00    +0.006 C 
ATOM     15  C   UNL     1       9.811   0.307  21.890  0.00  0.00    +0.022 C 
BRANCH  13  16
ATOM     16  C   UNL     1       9.052   3.466  23.398  0.00  0.00    +0.191 C 
BRANCH  16  17
ATOM     17  O   UNL     1       8.065   3.647  22.384  0.00  0.00    -0.392 OA
ATOM     18  H   UNL     1       7.729   2.755  22.187  0.00  0.00    +0.210 HD
ENDBRANCH  16  17
ENDBRANCH  13  16
ENDBRANCH   9  11
TORSDOF 3
ENDMDL
MODEL 9
REMARK VINA RESULT:      -5.3      3.207      6.106
REMARK  Name = 
REMARK  4 active torsions:
REMARK  status: ('A' for Active; 'I' for Inactive)
REMARK    1  A    between atoms: C_1  and  C_2
REMARK    2  A    between atoms: N_4  and  C_10
REMARK    3  A    between atoms: C_14  and  C_17
REMARK    4  A    between atoms: C_17  and  O_18
REMARK                            x       y       z     vdW  Elec       q    Type
REMARK                         _______ _______ _______ _____ _____    ______ ____
ROOT
ATOM      1  C   UNL     1       8.716   1.396  25.076  0.00  0.00    +0.019 C 
ATOM      2  C   UNL     1      10.052   1.615  24.376  0.00  0.00    +0.090 C 
ATOM      3  C   UNL     1       9.877   2.534  23.187  0.00  0.00    +0.225 C 
ATOM      4  O   UNL     1       9.737   3.749  23.316  0.00  0.00    -0.275 OA
ATOM      5  N   UNL     1       9.784   1.941  21.956  0.00  0.00    -0.240 N 
ATOM      6  H   UNL     1       9.502   2.552  21.202  0.00  0.00    +0.159 HD
ATOM      7  C   UNL     1       9.606   0.604  21.720  0.00  0.00    +0.311 C 
ATOM      8  O   UNL     1       9.116   0.223  20.661  0.00  0.00    -0.252 OA
ATOM      9  N   UNL     1       9.955  -0.231  22.761  0.00  0.00    -0.255 N 
ATOM     10  C   UNL     1      10.682   0.315  23.895  0.00  0.00    +0.124 C 
ENDROOT
BRANCH   9  11
ATOM     11  C   UNL     1       9.372  -1.548  22.791  0.00  0.00    +0.234 C 
ATOM     12  O   UNL     1       8.011  -1.430  23.251  0.00  0.00    -0.346 OA
ATOM     13  C   UNL     1       7.702  -2.672  23.926  0.00  0.00    +0.169 C 
ATOM     14  C   UNL     1       9.036  -3.130  24.423  0.00  0.00    +0.006 C 
ATOM     15  C   UNL     1      10.000  -2.470  23.772  0.00  0.00    +0.022 C 
BRANCH  13  16
ATOM     16  C   UNL     1       6.634  -2.431  24.998  0.00  0.00    +0.191 C 
BRANCH  16  17
ATOM     17  O   UNL     1       5.617  -3.431  24.979  0.00  0.00    -0.392 OA
ATOM     18  H   UNL     1       5.881  -4.083  25.651  0.00  0.00    +0.210 HD
ENDBRANCH  16  17
ENDBRANCH  13  16
ENDBRANCH   9  11
TORSDOF 3
ENDMDL
