MODEL 1
REMARK VINA RESULT:      -5.8      0.000      0.000
REMARK  Name = 
REMARK  11 active torsions:
REMARK  status: ('A' for Active; 'I' for Inactive)
REMARK    1  A    between atoms: C_1  and  C_2
REMARK    2  A    between atoms: N_4  and  C_5
REMARK    3  A    between atoms: C_7  and  N_26
REMARK    4  A    between atoms: C_10  and  C_23
REMARK    5  A    between atoms: C_13  and  C_15
REMARK    6  A    between atoms: C_15  and  C_17
REMARK    7  A    between atoms: C_15  and  O_22
REMARK    8  A    between atoms: C_17  and  C_19
REMARK    9  A    between atoms: C_17  and  O_21
REMARK   10  A    between atoms: C_19  and  O_20
REMARK   11  A    between atoms: C_23  and  O_25
REMARK                            x       y       z     vdW  Elec       q    Type
REMARK                         _______ _______ _______ _____ _____    ______ ____
ROOT
ATOM      1  C   UNL     1       5.291  -6.224  25.125  0.00  0.00    +0.145 C 
ATOM      2  C   UNL     1       5.802  -5.521  23.813  0.00  0.00    +0.174 C 
ATOM      3  O   UNL     1       7.245  -5.394  23.810  0.00  0.00    -0.357 OA
ATOM      4  C   UNL     1       7.792  -4.744  24.969  0.00  0.00    +0.230 C 
ATOM      5  C   UNL     1       7.498  -5.571  26.204  0.00  0.00    +0.089 C 
ATOM      6  C   UNL     1       5.993  -5.677  26.397  0.00  0.00    +0.214 C 
ENDROOT
BRANCH   6   7
ATOM      7  N   UNL     1       5.716  -6.601  27.504  0.00  0.00    -0.108 NA
ATOM      8  C   UNL     1       5.420  -6.183  28.671  0.00  0.00    +0.377 C 
ATOM      9  N   UNL     1       5.175  -7.062  29.661  0.00  0.00    -0.289 N 
ATOM     10  H   UNL     1       5.541  -6.779  30.561  0.00  0.00    +0.255 HD
ATOM     11  H   UNL     1       5.507  -7.992  29.411  0.00  0.00    +0.255 HD
ATOM     12  N   UNL     1       5.316  -4.924  29.145  0.00  0.00    -0.289 N 
ATOM     13  H   UNL     1       4.568  -4.812  29.820  0.00  0.00    +0.255 HD
ATOM     14  H   UNL     1       5.317  -4.180  28.462  0.00  0.00    +0.255 HD
ENDBRANCH   6   7
BRANCH   1  17
ATOM     15  C   UNL     1       1.526  -6.877  25.395  0.00  0.00    +0.109 C 
ATOM     16  C   UNL     1       2.974  -7.223  25.117  0.00  0.00    +0.210 C 
ATOM     17  N   UNL     1       3.827  -6.169  25.324  0.00  0.00    -0.307 N 
ATOM     18  H   UNL     1       3.463  -5.352  25.801  0.00  0.00    +0.149 HD
ATOM     19  O   UNL     1       3.325  -8.279  24.617  0.00  0.00    -0.276 OA
ENDBRANCH   1  17
BRANCH   4  20
ATOM     20  C   UNL     1       9.306  -4.563  24.825  0.00  0.00    +0.334 C 
ATOM     21  O   UNL     1       9.840  -3.587  24.313  0.00  0.00    -0.248 OA
BRANCH  20  22
ATOM     22  O   UNL     1      10.003  -5.611  25.322  0.00  0.00    -0.479 OA
ATOM     23  H   UNL     1      10.424  -6.103  24.586  0.00  0.00    +0.295 HD
ENDBRANCH  20  22
ENDBRANCH   4  20
BRANCH   2  24
ATOM     24  C   UNL     1       5.099  -4.168  23.453  0.00  0.00    +0.176 C 
BRANCH  24  25
ATOM     25  O   UNL     1       3.709  -4.345  23.130  0.00  0.00    -0.387 OA
ATOM     26  H   UNL     1       3.192  -4.069  23.908  0.00  0.00    +0.210 HD
ENDBRANCH  24  25
BRANCH  24  27
ATOM     27  C   UNL     1       5.672  -3.407  22.236  0.00  0.00    +0.171 C 
BRANCH  27  28
ATOM     28  O   UNL     1       6.311  -4.322  21.328  0.00  0.00    -0.387 OA
ATOM     29  H   UNL     1       7.259  -4.087  21.342  0.00  0.00    +0.210 HD
ENDBRANCH  27  28
BRANCH  27  30
ATOM     30  C   UNL     1       6.653  -2.284  22.555  0.00  0.00    +0.189 C 
BRANCH  30  31
ATOM     31  O   UNL     1       7.972  -2.699  22.192  0.00  0.00    -0.392 OA
ATOM     32  H   UNL     1       8.575  -2.131  22.712  0.00  0.00    +0.210 HD
ENDBRANCH  30  31
ENDBRANCH  27  30
ENDBRANCH  24  27
ENDBRANCH   2  24
TORSDOF 10
ENDMDL
MODEL 2
REMARK VINA RESULT:      -5.7      2.930      5.143
REMARK  Name = 
REMARK  11 active torsions:
REMARK  status: ('A' for Active; 'I' for Inactive)
REMARK    1  A    between atoms: C_1  and  C_2
REMARK    2  A    between atoms: N_4  and  C_5
REMARK    3  A    between atoms: C_7  and  N_26
REMARK    4  A    between atoms: C_10  and  C_23
REMARK    5  A    between atoms: C_13  and  C_15
REMARK    6  A    between atoms: C_15  and  C_17
REMARK    7  A    between atoms: C_15  and  O_22
REMARK    8  A    between atoms: C_17  and  C_19
REMARK    9  A    between atoms: C_17  and  O_21
REMARK   10  A    between atoms: C_19  and  O_20
REMARK   11  A    between atoms: C_23  and  O_25
REMARK                            x       y       z     vdW  Elec       q    Type
REMARK                         _______ _______ _______ _____ _____    ______ ____
ROOT
ATOM      1  C   UNL     1       7.285  -2.616  24.430  0.00  0.00    +0.145 C 
ATOM      2  C   UNL     1       7.682  -2.345  22.931  0.00  0.00    +0.174 C 
ATOM      3  O   UNL     1       6.943  -3.201  22.026  0.00  0.00    -0.357 OA
ATOM      4  C   UNL     1       7.034  -4.604  22.320  0.00  0.00    +0.230 C 
ATOM      5  C   UNL     1       6.418  -4.883  23.676  0.00  0.00    +0.089 C 
ATOM      6  C   UNL     1       7.192  -4.132  24.749  0.00  0.00    +0.214 C 
ENDROOT
BRANCH   6   7
ATOM      7  N   UNL     1       6.501  -4.285  26.034  0.00  0.00    -0.108 NA
ATOM      8  C   UNL     1       6.959  -5.033  26.959  0.00  0.00    +0.377 C 
ATOM      9  N   UNL     1       6.294  -5.151  28.125  0.00  0.00    -0.289 N 
ATOM     10  H   UNL     1       6.303  -6.086  28.510  0.00  0.00    +0.255 HD
ATOM     11  H   UNL     1       5.340  -4.805  28.034  0.00  0.00    +0.255 HD
ATOM     12  N   UNL     1       8.063  -5.807  26.987  0.00  0.00    -0.289 N 
ATOM     13  H   UNL     1       8.520  -5.821  27.892  0.00  0.00    +0.255 HD
ATOM     14  H   UNL     1       8.726  -5.679  26.236  0.00  0.00    +0.255 HD
ENDBRANCH   6   7
BRANCH   1  17
ATOM     15  C   UNL     1       8.868  -0.534  27.229  0.00  0.00    +0.109 C 
ATOM     16  C   UNL     1       7.750  -1.026  26.333  0.00  0.00    +0.210 C 
ATOM     17  N   UNL     1       8.165  -1.969  25.427  0.00  0.00    -0.307 N 
ATOM     18  H   UNL     1       9.085  -2.373  25.552  0.00  0.00    +0.149 HD
ATOM     19  O   UNL     1       6.638  -0.526  26.317  0.00  0.00    -0.276 OA
ENDBRANCH   1  17
BRANCH   4  20
ATOM     20  C   UNL     1       6.311  -5.430  21.252  0.00  0.00    +0.334 C 
ATOM     21  O   UNL     1       5.956  -4.995  20.163  0.00  0.00    -0.248 OA
BRANCH  20  22
ATOM     22  O   UNL     1       6.094  -6.708  21.644  0.00  0.00    -0.479 OA
ATOM     23  H   UNL     1       5.318  -6.739  22.242  0.00  0.00    +0.295 HD
ENDBRANCH  20  22
ENDBRANCH   4  20
BRANCH   2  24
ATOM     24  C   UNL     1       9.219  -2.364  22.624  0.00  0.00    +0.176 C 
BRANCH  24  25
ATOM     25  O   UNL     1       9.976  -2.989  23.675  0.00  0.00    -0.387 OA
ATOM     26  H   UNL     1      10.481  -3.719  23.275  0.00  0.00    +0.210 HD
ENDBRANCH  24  25
BRANCH  24  27
ATOM     27  C   UNL     1       9.893  -0.986  22.444  0.00  0.00    +0.171 C 
BRANCH  27  28
ATOM     28  O   UNL     1      10.026  -0.322  23.714  0.00  0.00    -0.387 OA
ATOM     29  H   UNL     1       9.154  -0.407  24.146  0.00  0.00    +0.210 HD
ENDBRANCH  27  28
BRANCH  27  30
ATOM     30  C   UNL     1       9.208  -0.031  21.472  0.00  0.00    +0.189 C 
BRANCH  30  31
ATOM     31  O   UNL     1       9.857   1.241  21.533  0.00  0.00    -0.392 OA
ATOM     32  H   UNL     1      10.809   1.052  21.417  0.00  0.00    +0.210 HD
ENDBRANCH  30  31
ENDBRANCH  27  30
ENDBRANCH  24  27
ENDBRANCH   2  24
TORSDOF 10
ENDMDL
MODEL 3
REMARK VINA RESULT:      -5.7      3.423      5.811
REMARK  Name = 
REMARK  11 active torsions:
REMARK  status: ('A' for Active; 'I' for Inactive)
REMARK    1  A    between atoms: C_1  and  C_2
REMARK    2  A    between atoms: N_4  and  C_5
REMARK    3  A    between atoms: C_7  and  N_26
REMARK    4  A    between atoms: C_10  and  C_23
REMARK    5  A    between atoms: C_13  and  C_15
REMARK    6  A    between atoms: C_15  and  C_17
REMARK    7  A    between atoms: C_15  and  O_22
REMARK    8  A    between atoms: C_17  and  C_19
REMARK    9  A    between atoms: C_17  and  O_21
REMARK   10  A    between atoms: C_19  and  O_20
REMARK   11  A    between atoms: C_23  and  O_25
REMARK                            x       y       z     vdW  Elec       q    Type
REMARK                         _______ _______ _______ _____ _____    ______ ____
ROOT
ATOM      1  C   UNL     1       8.086  -3.962  24.713  0.00  0.00    +0.145 C 
ATOM      2  C   UNL     1       8.360  -3.453  26.176  0.00  0.00    +0.174 C 
ATOM      3  O   UNL     1       7.965  -4.439  27.161  0.00  0.00    -0.357 OA
ATOM      4  C   UNL     1       6.608  -4.896  27.038  0.00  0.00    +0.230 C 
ATOM      5  C   UNL     1       6.427  -5.607  25.713  0.00  0.00    +0.089 C 
ATOM      6  C   UNL     1       6.693  -4.633  24.575  0.00  0.00    +0.214 C 
ENDROOT
BRANCH   6   7
ATOM      7  N   UNL     1       6.663  -5.364  23.302  0.00  0.00    -0.108 NA
ATOM      8  C   UNL     1       5.572  -5.603  22.689  0.00  0.00    +0.377 C 
ATOM      9  N   UNL     1       5.585  -6.280  21.525  0.00  0.00    -0.289 N 
ATOM     10  H   UNL     1       4.816  -6.929  21.418  0.00  0.00    +0.255 HD
ATOM     11  H   UNL     1       6.478  -6.750  21.389  0.00  0.00    +0.255 HD
ATOM     12  N   UNL     1       4.300  -5.300  23.023  0.00  0.00    -0.289 N 
ATOM     13  H   UNL     1       3.726  -5.051  22.226  0.00  0.00    +0.255 HD
ATOM     14  H   UNL     1       4.175  -4.655  23.790  0.00  0.00    +0.255 HD
ENDBRANCH   6   7
BRANCH   1  17
ATOM     15  C   UNL     1       9.265  -1.413  22.107  0.00  0.00    +0.109 C 
ATOM     16  C   UNL     1       9.425  -2.479  23.171  0.00  0.00    +0.210 C 
ATOM     17  N   UNL     1       8.226  -2.928  23.665  0.00  0.00    -0.307 N 
ATOM     18  H   UNL     1       7.382  -2.664  23.169  0.00  0.00    +0.149 HD
ATOM     19  O   UNL     1      10.503  -2.792  23.647  0.00  0.00    -0.276 OA
ENDBRANCH   1  17
BRANCH   4  20
ATOM     20  C   UNL     1       6.252  -5.852  28.182  0.00  0.00    +0.334 C 
ATOM     21  O   UNL     1       6.464  -5.622  29.366  0.00  0.00    -0.248 OA
BRANCH  20  22
ATOM     22  O   UNL     1       5.679  -6.996  27.741  0.00  0.00    -0.479 OA
ATOM     23  H   UNL     1       5.479  -7.577  28.505  0.00  0.00    +0.295 HD
ENDBRANCH  20  22
ENDBRANCH   4  20
BRANCH   2  24
ATOM     24  C   UNL     1       7.793  -2.032  26.516  0.00  0.00    +0.176 C 
BRANCH  24  25
ATOM     25  O   UNL     1       6.727  -1.645  25.632  0.00  0.00    -0.387 OA
ATOM     26  H   UNL     1       6.635  -2.348  24.964  0.00  0.00    +0.210 HD
ENDBRANCH  24  25
BRANCH  24  27
ATOM     27  C   UNL     1       8.797  -0.861  26.429  0.00  0.00    +0.171 C 
BRANCH  27  28
ATOM     28  O   UNL     1       9.136  -0.390  27.746  0.00  0.00    -0.387 OA
ATOM     29  H   UNL     1       8.310  -0.448  28.265  0.00  0.00    +0.210 HD
ENDBRANCH  27  28
BRANCH  27  30
ATOM     30  C   UNL     1       8.355   0.334  25.591  0.00  0.00    +0.189 C 
BRANCH  30  31
ATOM     31  O   UNL     1       9.506   1.095  25.219  0.00  0.00    -0.392 OA
ATOM     32  H   UNL     1       9.259   1.549  24.389  0.00  0.00    +0.210 HD
ENDBRANCH  30  31
ENDBRANCH  27  30
ENDBRANCH  24  27
ENDBRANCH   2  24
TORSDOF 10
ENDMDL
MODEL 4
REMARK VINA RESULT:      -5.6      3.275      4.840
REMARK  Name = 
REMARK  11 active torsions:
REMARK  status: ('A' for Active; 'I' for Inactive)
REMARK    1  A    between atoms: C_1  and  C_2
REMARK    2  A    between atoms: N_4  and  C_5
REMARK    3  A    between atoms: C_7  and  N_26
REMARK    4  A    between atoms: C_10  and  C_23
REMARK    5  A    between atoms: C_13  and  C_15
REMARK    6  A    between atoms: C_15  and  C_17
REMARK    7  A    between atoms: C_15  and  O_22
REMARK    8  A    between atoms: C_17  and  C_19
REMARK    9  A    between atoms: C_17  and  O_21
REMARK   10  A    between atoms: C_19  and  O_20
REMARK   11  A    between atoms: C_23  and  O_25
REMARK                            x       y       z     vdW  Elec       q    Type
REMARK                         _______ _______ _______ _____ _____    ______ ____
ROOT
ATOM      1  C   UNL     1       7.959  -2.884  25.451  0.00  0.00    +0.145 C 
ATOM      2  C   UNL     1       8.044  -3.589  24.046  0.00  0.00    +0.174 C 
ATOM      3  O   UNL     1       8.935  -2.877  23.153  0.00  0.00    -0.357 OA
ATOM      4  C   UNL     1       8.633  -1.481  22.993  0.00  0.00    +0.230 C 
ATOM      5  C   UNL     1       8.797  -0.769  24.319  0.00  0.00    +0.089 C 
ATOM      6  C   UNL     1       7.815  -1.344  25.329  0.00  0.00    +0.214 C 
ENDROOT
BRANCH   6   7
ATOM      7  N   UNL     1       8.082  -0.755  26.647  0.00  0.00    -0.108 NA
ATOM      8  C   UNL     1       7.415   0.237  27.089  0.00  0.00    +0.377 C 
ATOM      9  N   UNL     1       7.692   0.751  28.302  0.00  0.00    -0.289 N 
ATOM     10  H   UNL     1       7.631   1.760  28.344  0.00  0.00    +0.255 HD
ATOM     11  H   UNL     1       8.599   0.429  28.633  0.00  0.00    +0.255 HD
ATOM     12  N   UNL     1       6.414   0.938  26.516  0.00  0.00    -0.289 N 
ATOM     13  H   UNL     1       5.702   1.230  27.175  0.00  0.00    +0.255 HD
ATOM     14  H   UNL     1       6.010   0.549  25.676  0.00  0.00    +0.255 HD
ENDBRANCH   6   7
BRANCH   1  17
ATOM     15  C   UNL     1       5.773  -4.753  27.982  0.00  0.00    +0.109 C 
ATOM     16  C   UNL     1       7.038  -4.443  27.210  0.00  0.00    +0.210 C 
ATOM     17  N   UNL     1       6.888  -3.397  26.333  0.00  0.00    -0.307 N 
ATOM     18  H   UNL     1       6.051  -2.832  26.411  0.00  0.00    +0.149 HD
ATOM     19  O   UNL     1       8.035  -5.143  27.251  0.00  0.00    -0.276 OA
ENDBRANCH   1  17
BRANCH   4  20
ATOM     20  C   UNL     1       9.559  -0.842  21.953  0.00  0.00    +0.334 C 
ATOM     21  O   UNL     1       9.372   0.255  21.442  0.00  0.00    -0.248 OA
BRANCH  20  22
ATOM     22  O   UNL     1      10.616  -1.630  21.647  0.00  0.00    -0.479 OA
ATOM     23  H   UNL     1      10.628  -1.800  20.681  0.00  0.00    +0.295 HD
ENDBRANCH  20  22
ENDBRANCH   4  20
BRANCH   2  24
ATOM     24  C   UNL     1       6.670  -3.908  23.365  0.00  0.00    +0.176 C 
BRANCH  24  25
ATOM     25  O   UNL     1       5.981  -4.994  24.008  0.00  0.00    -0.387 OA
ATOM     26  H   UNL     1       6.409  -5.138  24.871  0.00  0.00    +0.210 HD
ENDBRANCH  24  25
BRANCH  24  27
ATOM     27  C   UNL     1       6.730  -4.330  21.879  0.00  0.00    +0.171 C 
BRANCH  27  28
ATOM     28  O   UNL     1       5.581  -3.833  21.169  0.00  0.00    -0.387 OA
ATOM     29  H   UNL     1       5.910  -3.089  20.628  0.00  0.00    +0.210 HD
ENDBRANCH  27  28
BRANCH  27  30
ATOM     30  C   UNL     1       6.845  -5.828  21.617  0.00  0.00    +0.189 C 
BRANCH  30  31
ATOM     31  O   UNL     1       5.534  -6.379  21.477  0.00  0.00    -0.392 OA
ATOM     32  H   UNL     1       4.956  -5.620  21.263  0.00  0.00    +0.210 HD
ENDBRANCH  30  31
ENDBRANCH  27  30
ENDBRANCH  24  27
ENDBRANCH   2  24
TORSDOF 10
ENDMDL
MODEL 5
REMARK VINA RESULT:      -5.5      3.644      5.020
REMARK  Name = 
REMARK  11 active torsions:
REMARK  status: ('A' for Active; 'I' for Inactive)
REMARK    1  A    between atoms: C_1  and  C_2
REMARK    2  A    between atoms: N_4  and  C_5
REMARK    3  A    between atoms: C_7  and  N_26
REMARK    4  A    between atoms: C_10  and  C_23
REMARK    5  A    between atoms: C_13  and  C_15
REMARK    6  A    between atoms: C_15  and  C_17
REMARK    7  A    between atoms: C_15  and  O_22
REMARK    8  A    between atoms: C_17  and  C_19
REMARK    9  A    between atoms: C_17  and  O_21
REMARK   10  A    between atoms: C_19  and  O_20
REMARK   11  A    between atoms: C_23  and  O_25
REMARK                            x       y       z     vdW  Elec       q    Type
REMARK                         _______ _______ _______ _____ _____    ______ ____
ROOT
ATOM      1  C   UNL     1       7.369  -2.566  23.672  0.00  0.00    +0.145 C 
ATOM      2  C   UNL     1       7.028  -1.045  23.452  0.00  0.00    +0.174 C 
ATOM      3  O   UNL     1       8.216  -0.279  23.132  0.00  0.00    -0.357 OA
ATOM      4  C   UNL     1       9.289  -0.418  24.077  0.00  0.00    +0.230 C 
ATOM      5  C   UNL     1       9.772  -1.853  24.095  0.00  0.00    +0.089 C 
ATOM      6  C   UNL     1       8.638  -2.764  24.543  0.00  0.00    +0.214 C 
ENDROOT
BRANCH   6   7
ATOM      7  N   UNL     1       9.067  -4.162  24.413  0.00  0.00    -0.108 NA
ATOM      8  C   UNL     1       9.317  -4.887  25.431  0.00  0.00    +0.377 C 
ATOM      9  N   UNL     1       9.710  -6.165  25.271  0.00  0.00    -0.289 N 
ATOM     10  H   UNL     1      10.421  -6.460  25.927  0.00  0.00    +0.255 HD
ATOM     11  H   UNL     1      10.008  -6.334  24.312  0.00  0.00    +0.255 HD
ATOM     12  N   UNL     1       9.277  -4.585  26.746  0.00  0.00    -0.289 N 
ATOM     13  H   UNL     1       8.942  -5.349  27.321  0.00  0.00    +0.255 HD
ATOM     14  H   UNL     1       8.841  -3.709  26.997  0.00  0.00    +0.255 HD
ENDBRANCH   6   7
BRANCH   1  17
ATOM     15  C   UNL     1       4.281  -4.728  24.354  0.00  0.00    +0.109 C 
ATOM     16  C   UNL     1       5.284  -3.977  23.503  0.00  0.00    +0.210 C 
ATOM     17  N   UNL     1       6.266  -3.368  24.243  0.00  0.00    -0.307 N 
ATOM     18  H   UNL     1       6.343  -3.616  25.222  0.00  0.00    +0.149 HD
ATOM     19  O   UNL     1       5.146  -3.805  22.304  0.00  0.00    -0.276 OA
ENDBRANCH   1  17
BRANCH   4  20
ATOM     20  C   UNL     1      10.455   0.507  23.712  0.00  0.00    +0.334 C 
ATOM     21  O   UNL     1      11.401   0.752  24.451  0.00  0.00    -0.248 OA
BRANCH  20  22
ATOM     22  O   UNL     1      10.326   1.040  22.475  0.00  0.00    -0.479 OA
ATOM     23  H   UNL     1       9.851   1.895  22.535  0.00  0.00    +0.295 HD
ENDBRANCH  20  22
ENDBRANCH   4  20
BRANCH   2  24
ATOM     24  C   UNL     1       6.188  -0.368  24.588  0.00  0.00    +0.176 C 
BRANCH  24  25
ATOM     25  O   UNL     1       4.903  -0.990  24.759  0.00  0.00    -0.387 OA
ATOM     26  H   UNL     1       4.288  -0.562  24.138  0.00  0.00    +0.210 HD
ENDBRANCH  24  25
BRANCH  24  27
ATOM     27  C   UNL     1       5.857   1.128  24.389  0.00  0.00    +0.171 C 
BRANCH  27  28
ATOM     28  O   UNL     1       5.875   1.464  22.989  0.00  0.00    -0.387 OA
ATOM     29  H   UNL     1       6.488   2.221  22.910  0.00  0.00    +0.210 HD
ENDBRANCH  27  28
BRANCH  27  30
ATOM     30  C   UNL     1       6.754   2.113  25.130  0.00  0.00    +0.189 C 
BRANCH  30  31
ATOM     31  O   UNL     1       7.705   2.660  24.214  0.00  0.00    -0.392 OA
ATOM     32  H   UNL     1       8.154   1.888  23.816  0.00  0.00    +0.210 HD
ENDBRANCH  30  31
ENDBRANCH  27  30
ENDBRANCH  24  27
ENDBRANCH   2  24
TORSDOF 10
ENDMDL
MODEL 6
REMARK VINA RESULT:      -5.3      2.902      5.357
REMARK  Name = 
REMARK  11 active torsions:
REMARK  status: ('A' for Active; 'I' for Inactive)
REMARK    1  A    between atoms: C_1  and  C_2
REMARK    2  A    between atoms: N_4  and  C_5
REMARK    3  A    between atoms: C_7  and  N_26
REMARK    4  A    between atoms: C_10  and  C_23
REMARK    5  A    between atoms: C_13  and  C_15
REMARK    6  A    between atoms: C_15  and  C_17
REMARK    7  A    between atoms: C_15  and  O_22
REMARK    8  A    between atoms: C_17  and  C_19
REMARK    9  A    between atoms: C_17  and  O_21
REMARK   10  A    between atoms: C_19  and  O_20
REMARK   11  A    between atoms: C_23  and  O_25
REMARK                            x       y       z     vdW  Elec       q    Type
REMARK                         _______ _______ _______ _____ _____    ______ ____
ROOT
ATOM      1  C   UNL     1       5.531  -5.047  24.758  0.00  0.00    +0.145 C 
ATOM      2  C   UNL     1       4.246  -5.705  25.385  0.00  0.00    +0.174 C 
ATOM      3  O   UNL     1       4.109  -5.364  26.786  0.00  0.00    -0.357 OA
ATOM      4  C   UNL     1       5.263  -5.659  27.590  0.00  0.00    +0.230 C 
ATOM      5  C   UNL     1       6.438  -4.826  27.123  0.00  0.00    +0.089 C 
ATOM      6  C   UNL     1       6.771  -5.183  25.682  0.00  0.00    +0.214 C 
ENDROOT
BRANCH   6   7
ATOM      7  N   UNL     1       7.809  -4.269  25.190  0.00  0.00    -0.108 NA
ATOM      8  C   UNL     1       9.027  -4.628  25.082  0.00  0.00    +0.377 C 
ATOM      9  N   UNL     1       9.951  -3.760  24.629  0.00  0.00    -0.289 N 
ATOM     10  H   UNL     1      10.843  -3.826  25.101  0.00  0.00    +0.255 HD
ATOM     11  H   UNL     1       9.595  -2.806  24.658  0.00  0.00    +0.255 HD
ATOM     12  N   UNL     1       9.617  -5.805  25.379  0.00  0.00    -0.289 N 
ATOM     13  H   UNL     1      10.352  -6.059  24.729  0.00  0.00    +0.255 HD
ATOM     14  H   UNL     1       9.004  -6.584  25.574  0.00  0.00    +0.255 HD
ENDBRANCH   6   7
BRANCH   1  17
ATOM     15  C   UNL     1       6.138  -5.592  21.015  0.00  0.00    +0.109 C 
ATOM     16  C   UNL     1       5.691  -4.836  22.249  0.00  0.00    +0.210 C 
ATOM     17  N   UNL     1       5.881  -5.542  23.410  0.00  0.00    -0.307 N 
ATOM     18  H   UNL     1       6.448  -6.381  23.365  0.00  0.00    +0.149 HD
ATOM     19  O   UNL     1       5.086  -3.777  22.201  0.00  0.00    -0.276 OA
ENDBRANCH   1  17
BRANCH   4  20
ATOM     20  C   UNL     1       4.984  -5.364  29.067  0.00  0.00    +0.334 C 
ATOM     21  O   UNL     1       5.849  -5.281  29.931  0.00  0.00    -0.248 OA
BRANCH  20  22
ATOM     22  O   UNL     1       3.664  -5.212  29.325  0.00  0.00    -0.479 OA
ATOM     23  H   UNL     1       3.155  -5.314  28.494  0.00  0.00    +0.295 HD
ENDBRANCH  20  22
ENDBRANCH   4  20
BRANCH   2  24
ATOM     24  C   UNL     1       4.087  -7.244  25.143  0.00  0.00    +0.176 C 
BRANCH  24  25
ATOM     25  O   UNL     1       4.561  -7.644  23.845  0.00  0.00    -0.387 OA
ATOM     26  H   UNL     1       3.965  -8.344  23.522  0.00  0.00    +0.210 HD
ENDBRANCH  24  25
BRANCH  24  27
ATOM     27  C   UNL     1       2.645  -7.796  25.202  0.00  0.00    +0.171 C 
BRANCH  27  28
ATOM     28  O   UNL     1       2.660  -9.234  25.267  0.00  0.00    -0.387 OA
ATOM     29  H   UNL     1       2.874  -9.452  26.195  0.00  0.00    +0.210 HD
ENDBRANCH  27  28
BRANCH  27  30
ATOM     30  C   UNL     1       1.724  -7.377  24.061  0.00  0.00    +0.189 C 
BRANCH  30  31
ATOM     31  O   UNL     1       1.935  -8.248  22.948  0.00  0.00    -0.392 OA
ATOM     32  H   UNL     1       2.564  -8.926  23.265  0.00  0.00    +0.210 HD
ENDBRANCH  30  31
ENDBRANCH  27  30
ENDBRANCH  24  27
ENDBRANCH   2  24
TORSDOF 10
ENDMDL
MODEL 7
REMARK VINA RESULT:      -5.2      4.265      6.229
REMARK  Name = 
REMARK  11 active torsions:
REMARK  status: ('A' for Active; 'I' for Inactive)
REMARK    1  A    between atoms: C_1  and  C_2
REMARK    2  A    between atoms: N_4  and  C_5
REMARK    3  A    between atoms: C_7  and  N_26
REMARK    4  A    between atoms: C_10  and  C_23
REMARK    5  A    between atoms: C_13  and  C_15
REMARK    6  A    between atoms: C_15  and  C_17
REMARK    7  A    between atoms: C_15  and  O_22
REMARK    8  A    between atoms: C_17  and  C_19
REMARK    9  A    between atoms: C_17  and  O_21
REMARK   10  A    between atoms: C_19  and  O_20
REMARK   11  A    between atoms: C_23  and  O_25
REMARK                            x       y       z     vdW  Elec       q    Type
REMARK                         _______ _______ _______ _____ _____    ______ ____
ROOT
ATOM      1  C   UNL     1       6.850  -2.980  24.043  0.00  0.00    +0.145 C 
ATOM      2  C   UNL     1       6.384  -3.384  25.491  0.00  0.00    +0.174 C 
ATOM      3  O   UNL     1       6.306  -2.229  26.362  0.00  0.00    -0.357 OA
ATOM      4  C   UNL     1       7.509  -1.446  26.426  0.00  0.00    +0.230 C 
ATOM      5  C   UNL     1       7.809  -0.858  25.063  0.00  0.00    +0.089 C 
ATOM      6  C   UNL     1       8.040  -1.984  24.065  0.00  0.00    +0.214 C 
ENDROOT
BRANCH   6   7
ATOM      7  N   UNL     1       8.181  -1.412  22.721  0.00  0.00    -0.108 NA
ATOM      8  C   UNL     1       9.316  -1.304  22.150  0.00  0.00    +0.377 C 
ATOM      9  N   UNL     1       9.404  -0.771  20.917  0.00  0.00    -0.289 N 
ATOM     10  H   UNL     1      10.214  -0.180  20.782  0.00  0.00    +0.255 HD
ATOM     11  H   UNL     1       8.549  -0.273  20.675  0.00  0.00    +0.255 HD
ATOM     12  N   UNL     1      10.547  -1.632  22.592  0.00  0.00    -0.289 N 
ATOM     13  H   UNL     1      11.147  -2.004  21.865  0.00  0.00    +0.255 HD
ATOM     14  H   UNL     1      10.594  -2.188  23.435  0.00  0.00    +0.255 HD
ENDBRANCH   6   7
BRANCH   1  17
ATOM     15  C   UNL     1       7.023  -5.746  21.399  0.00  0.00    +0.109 C 
ATOM     16  C   UNL     1       6.425  -4.556  22.119  0.00  0.00    +0.210 C 
ATOM     17  N   UNL     1       7.195  -4.120  23.167  0.00  0.00    -0.307 N 
ATOM     18  H   UNL     1       8.136  -4.487  23.247  0.00  0.00    +0.149 HD
ATOM     19  O   UNL     1       5.306  -4.128  21.888  0.00  0.00    -0.276 OA
ENDBRANCH   1  17
BRANCH   4  20
ATOM     20  C   UNL     1       7.365  -0.313  27.448  0.00  0.00    +0.334 C 
ATOM     21  O   UNL     1       6.298   0.194  27.773  0.00  0.00    -0.248 OA
BRANCH  20  22
ATOM     22  O   UNL     1       8.556   0.080  27.957  0.00  0.00    -0.479 OA
ATOM     23  H   UNL     1       8.987  -0.678  28.405  0.00  0.00    +0.295 HD
ENDBRANCH  20  22
ENDBRANCH   4  20
BRANCH   2  24
ATOM     24  C   UNL     1       7.179  -4.560  26.155  0.00  0.00    +0.176 C 
BRANCH  24  25
ATOM     25  O   UNL     1       7.450  -5.626  25.228  0.00  0.00    -0.387 OA
ATOM     26  H   UNL     1       6.644  -6.170  25.168  0.00  0.00    +0.210 HD
ENDBRANCH  24  25
BRANCH  24  27
ATOM     27  C   UNL     1       6.485  -5.263  27.343  0.00  0.00    +0.171 C 
BRANCH  27  28
ATOM     28  O   UNL     1       7.425  -6.090  28.055  0.00  0.00    -0.387 OA
ATOM     29  H   UNL     1       6.901  -6.835  28.410  0.00  0.00    +0.210 HD
ENDBRANCH  27  28
BRANCH  27  30
ATOM     30  C   UNL     1       5.266  -6.111  26.996  0.00  0.00    +0.189 C 
BRANCH  30  31
ATOM     31  O   UNL     1       5.301  -7.315  27.766  0.00  0.00    -0.392 OA
ATOM     32  H   UNL     1       5.900  -7.916  27.280  0.00  0.00    +0.210 HD
ENDBRANCH  30  31
ENDBRANCH  27  30
ENDBRANCH  24  27
ENDBRANCH   2  24
TORSDOF 10
ENDMDL
MODEL 8
REMARK VINA RESULT:      -5.2      1.844      2.216
REMARK  Name = 
REMARK  11 active torsions:
REMARK  status: ('A' for Active; 'I' for Inactive)
REMARK    1  A    between atoms: C_1  and  C_2
REMARK    2  A    between atoms: N_4  and  C_5
REMARK    3  A    between atoms: C_7  and  N_26
REMARK    4  A    between atoms: C_10  and  C_23
REMARK    5  A    between atoms: C_13  and  C_15
REMARK    6  A    between atoms: C_15  and  C_17
REMARK    7  A    between atoms: C_15  and  O_22
REMARK    8  A    between atoms: C_17  and  C_19
REMARK    9  A    between atoms: C_17  and  O_21
REMARK   10  A    between atoms: C_19  and  O_20
REMARK   11  A    between atoms: C_23  and  O_25
REMARK                            x       y       z     vdW  Elec       q    Type
REMARK                         _______ _______ _______ _____ _____    ______ ____
ROOT
ATOM      1  C   UNL     1       5.364  -5.220  24.467  0.00  0.00    +0.145 C 
ATOM      2  C   UNL     1       5.940  -4.200  23.417  0.00  0.00    +0.174 C 
ATOM      3  O   UNL     1       7.388  -4.235  23.387  0.00  0.00    -0.357 OA
ATOM      4  C   UNL     1       8.018  -4.045  24.665  0.00  0.00    +0.230 C 
ATOM      5  C   UNL     1       7.641  -5.180  25.594  0.00  0.00    +0.089 C 
ATOM      6  C   UNL     1       6.136  -5.179  25.813  0.00  0.00    +0.214 C 
ENDROOT
BRANCH   6   7
ATOM      7  N   UNL     1       5.763  -6.368  26.589  0.00  0.00    -0.108 NA
ATOM      8  C   UNL     1       5.599  -6.323  27.852  0.00  0.00    +0.377 C 
ATOM      9  N   UNL     1       5.260  -7.436  28.529  0.00  0.00    -0.289 N 
ATOM     10  H   UNL     1       5.713  -7.523  29.430  0.00  0.00    +0.255 HD
ATOM     11  H   UNL     1       5.419  -8.268  27.963  0.00  0.00    +0.255 HD
ATOM     12  N   UNL     1       5.731  -5.291  28.711  0.00  0.00    -0.289 N 
ATOM     13  H   UNL     1       5.047  -5.303  29.459  0.00  0.00    +0.255 HD
ATOM     14  H   UNL     1       5.824  -4.371  28.305  0.00  0.00    +0.255 HD
ENDBRANCH   6   7
BRANCH   1  17
ATOM     15  C   UNL     1       1.533  -5.195  24.422  0.00  0.00    +0.109 C 
ATOM     16  C   UNL     1       2.921  -5.474  23.886  0.00  0.00    +0.210 C 
ATOM     17  N   UNL     1       3.918  -5.072  24.739  0.00  0.00    -0.307 N 
ATOM     18  H   UNL     1       3.656  -4.813  25.683  0.00  0.00    +0.149 HD
ATOM     19  O   UNL     1       3.131  -5.874  22.753  0.00  0.00    -0.276 OA
ENDBRANCH   1  17
BRANCH   4  20
ATOM     20  C   UNL     1       9.542  -3.991  24.517  0.00  0.00    +0.334 C 
ATOM     21  O   UNL     1      10.151  -3.088  23.957  0.00  0.00    -0.248 OA
BRANCH  20  22
ATOM     22  O   UNL     1      10.154  -5.066  25.068  0.00  0.00    -0.479 OA
ATOM     23  H   UNL     1       9.628  -5.386  25.830  0.00  0.00    +0.295 HD
ENDBRANCH  20  22
ENDBRANCH   4  20
BRANCH   2  24
ATOM     24  C   UNL     1       5.397  -2.735  23.527  0.00  0.00    +0.176 C 
BRANCH  24  25
ATOM     25  O   UNL     1       6.107  -1.824  22.670  0.00  0.00    -0.387 OA
ATOM     26  H   UNL     1       6.804  -2.333  22.220  0.00  0.00    +0.210 HD
ENDBRANCH  24  25
BRANCH  24  27
ATOM     27  C   UNL     1       5.485  -2.080  24.924  0.00  0.00    +0.171 C 
BRANCH  27  28
ATOM     28  O   UNL     1       4.176  -1.973  25.512  0.00  0.00    -0.387 OA
ATOM     29  H   UNL     1       3.757  -2.845  25.378  0.00  0.00    +0.210 HD
ENDBRANCH  27  28
BRANCH  27  30
ATOM     30  C   UNL     1       6.149  -0.708  24.977  0.00  0.00    +0.189 C 
BRANCH  30  31
ATOM     31  O   UNL     1       5.191   0.287  24.609  0.00  0.00    -0.392 OA
ATOM     32  H   UNL     1       5.176   0.920  25.354  0.00  0.00    +0.210 HD
ENDBRANCH  30  31
ENDBRANCH  27  30
ENDBRANCH  24  27
ENDBRANCH   2  24
TORSDOF 10
ENDMDL
MODEL 9
REMARK VINA RESULT:      -5.2      3.695      6.132
REMARK  Name = 
REMARK  11 active torsions:
REMARK  status: ('A' for Active; 'I' for Inactive)
REMARK    1  A    between atoms: C_1  and  C_2
REMARK    2  A    between atoms: N_4  and  C_5
REMARK    3  A    between atoms: C_7  and  N_26
REMARK    4  A    between atoms: C_10  and  C_23
REMARK    5  A    between atoms: C_13  and  C_15
REMARK    6  A    between atoms: C_15  and  C_17
REMARK    7  A    between atoms: C_15  and  O_22
REMARK    8  A    between atoms: C_17  and  C_19
REMARK    9  A    between atoms: C_17  and  O_21
REMARK   10  A    between atoms: C_19  and  O_20
REMARK   11  A    between atoms: C_23  and  O_25
REMARK                            x       y       z     vdW  Elec       q    Type
REMARK                         _______ _______ _______ _____ _____    ______ ____
ROOT
ATOM      1  C   UNL     1       7.245  -2.898  24.664  0.00  0.00    +0.145 C 
ATOM      2  C   UNL     1       6.634  -4.313  24.982  0.00  0.00    +0.174 C 
ATOM      3  O   UNL     1       6.704  -5.189  23.830  0.00  0.00    -0.357 OA
ATOM      4  C   UNL     1       6.119  -4.650  22.633  0.00  0.00    +0.230 C 
ATOM      5  C   UNL     1       6.882  -3.415  22.202  0.00  0.00    +0.089 C 
ATOM      6  C   UNL     1       6.781  -2.353  23.287  0.00  0.00    +0.214 C 
ENDROOT
BRANCH   6   7
ATOM      7  N   UNL     1       7.645  -1.221  22.930  0.00  0.00    -0.108 NA
ATOM      8  C   UNL     1       7.234  -0.016  22.988  0.00  0.00    +0.377 C 
ATOM      9  N   UNL     1       8.056   0.996  22.650  0.00  0.00    -0.289 N 
ATOM     10  H   UNL     1       7.599   1.745  22.145  0.00  0.00    +0.255 HD
ATOM     11  H   UNL     1       8.863   0.650  22.135  0.00  0.00    +0.255 HD
ATOM     12  N   UNL     1       6.026   0.476  23.335  0.00  0.00    -0.289 N 
ATOM     13  H   UNL     1       6.082   1.347  23.851  0.00  0.00    +0.255 HD
ATOM     14  H   UNL     1       5.378  -0.170  23.761  0.00  0.00    +0.255 HD
ENDBRANCH   6   7
BRANCH   1  17
ATOM     15  C   UNL     1       7.413  -0.153  27.331  0.00  0.00    +0.109 C 
ATOM     16  C   UNL     1       7.965  -1.127  26.311  0.00  0.00    +0.210 C 
ATOM     17  N   UNL     1       6.990  -1.870  25.697  0.00  0.00    -0.307 N 
ATOM     18  H   UNL     1       6.026  -1.588  25.829  0.00  0.00    +0.149 HD
ATOM     19  O   UNL     1       9.158  -1.335  26.164  0.00  0.00    -0.276 OA
ENDBRANCH   1  17
BRANCH   4  20
ATOM     20  C   UNL     1       6.146  -5.685  21.504  0.00  0.00    +0.334 C 
ATOM     21  O   UNL     1       5.980  -5.421  20.319  0.00  0.00    -0.248 OA
BRANCH  20  22
ATOM     22  O   UNL     1       6.366  -6.941  21.958  0.00  0.00    -0.479 OA
ATOM     23  H   UNL     1       5.533  -7.456  21.914  0.00  0.00    +0.295 HD
ENDBRANCH  20  22
ENDBRANCH   4  20
BRANCH   2  24
ATOM     24  C   UNL     1       5.203  -4.304  25.620  0.00  0.00    +0.176 C 
BRANCH  24  25
ATOM     25  O   UNL     1       5.177  -3.635  26.893  0.00  0.00    -0.387 OA
ATOM     26  H   UNL     1       5.837  -2.919  26.857  0.00  0.00    +0.210 HD
ENDBRANCH  24  25
BRANCH  24  27
ATOM     27  C   UNL     1       4.581  -5.688  25.912  0.00  0.00    +0.171 C 
BRANCH  27  28
ATOM     28  O   UNL     1       5.605  -6.633  26.272  0.00  0.00    -0.387 OA
ATOM     29  H   UNL     1       6.379  -6.095  26.530  0.00  0.00    +0.210 HD
ENDBRANCH  27  28
BRANCH  27  30
ATOM     30  C   UNL     1       3.744  -6.293  24.789  0.00  0.00    +0.189 C 
BRANCH  30  31
ATOM     31  O   UNL     1       4.477  -7.359  24.183  0.00  0.00    -0.392 OA
ATOM     32  H   UNL     1       5.207  -6.927  23.697  0.00  0.00    +0.210 HD
ENDBRANCH  30  31
ENDBRANCH  27  30
ENDBRANCH  24  27
ENDBRANCH   2  24
TORSDOF 10
ENDMDL
