MODEL 1
REMARK VINA RESULT:      -7.2      0.000      0.000
REMARK  Name = 
REMARK  16 active torsions:
REMARK  status: ('A' for Active; 'I' for Inactive)
REMARK    1  A    between atoms: C_1  and  C_2
REMARK    2  A    between atoms: C_2  and  C_3
REMARK    3  A    between atoms: C_2  and  O_4
REMARK    4  A    between atoms: O_4  and  C_5
REMARK    5  A    between atoms: C_5  and  C_7
REMARK    6  A    between atoms: C_7  and  C_8
REMARK    7  A    between atoms: C_7  and  N_9
REMARK    8  A    between atoms: N_9  and  P_10
REMARK    9  A    between atoms: P_10  and  O_12
REMARK   10  A    between atoms: P_10  and  O_30
REMARK   11  A    between atoms: O_12  and  C_13
REMARK   12  A    between atoms: C_13  and  C_14
REMARK   13  A    between atoms: C_15  and  O_29
REMARK   14  A    between atoms: C_16  and  C_27
REMARK   15  A    between atoms: C_17  and  N_19
REMARK   16  A    between atoms: O_30  and  C_31
REMARK                            x       y       z     vdW  Elec       q    Type
REMARK                         _______ _______ _______ _____ _____    ______ ____
ROOT
ATOM      1  O   UNL     1       9.125  -1.741  24.779  0.00  0.00    -0.284 OA
ENDROOT
BRANCH   1   2
ATOM      2  P   UNL     1       8.708  -3.295  24.921  0.00  0.00    +0.462 P 
ATOM      3  O   UNL     1       9.847  -4.191  24.531  0.00  0.00    -0.228 OA
BRANCH   2   4
ATOM      4  N   UNL     1       7.326  -3.489  24.074  0.00  0.00    -0.199 NA
ATOM      5  H   UNL     1       6.659  -3.975  24.667  0.00  0.00    +0.135 HD
BRANCH   4   6
ATOM      6  C   UNL     1       7.328  -4.147  22.762  0.00  0.00    +0.171 C 
ATOM      7  C   UNL     1       6.451  -3.303  21.836  0.00  0.00    +0.036 C 
BRANCH   6   8
ATOM      8  C   UNL     1       6.758  -5.563  22.861  0.00  0.00    +0.325 C 
ATOM      9  O   UNL     1       6.955  -6.427  22.011  0.00  0.00    -0.249 OA
BRANCH   8  10
ATOM     10  O   UNL     1       6.034  -5.738  24.002  0.00  0.00    -0.461 OA
BRANCH  10  12
ATOM     11  C   UNL     1       4.191  -7.086  24.807  0.00  0.00    +0.052 C 
ATOM     12  C   UNL     1       4.624  -6.002  23.829  0.00  0.00    +0.170 C 
ATOM     13  C   UNL     1       3.826  -4.729  24.100  0.00  0.00    +0.052 C 
ENDBRANCH  10  12
ENDBRANCH   8  10
ENDBRANCH   6   8
ENDBRANCH   4   6
ENDBRANCH   2   4
BRANCH   2  14
ATOM     14  O   UNL     1       8.314  -3.388  26.488  0.00  0.00    -0.413 OA
BRANCH  14  15
ATOM     15  C   UNL     1       7.137  -3.943  26.902  0.00  0.00    +0.131 A 
ATOM     16  C   UNL     1       7.144  -5.301  27.229  0.00  0.00    +0.046 A 
ATOM     17  C   UNL     1       5.999  -5.889  27.770  0.00  0.00    +0.004 A 
ATOM     18  C   UNL     1       4.849  -5.124  27.966  0.00  0.00    +0.000 A 
ATOM     19  C   UNL     1       4.829  -3.784  27.584  0.00  0.00    +0.004 A 
ATOM     20  C   UNL     1       5.969  -3.199  27.036  0.00  0.00    +0.046 A 
ENDBRANCH  14  15
ENDBRANCH   2  14
ENDBRANCH   1   2
BRANCH   1  21
ATOM     21  C   UNL     1       9.879  -1.435  23.609  0.00  0.00    +0.206 C 
BRANCH  21  22
ATOM     22  C   UNL     1       9.517  -0.059  23.082  0.00  0.00    +0.179 C 
ATOM     23  O   UNL     1       9.646   0.896  24.149  0.00  0.00    -0.345 OA
ATOM     24  C   UNL     1       8.793   2.022  23.818  0.00  0.00    +0.263 C 
ATOM     25  C   UNL     1       8.023   1.656  22.531  0.00  0.00    +0.182 C 
ATOM     26  F   UNL     1       8.717   2.068  21.426  0.00  0.00    -0.235 F 
ATOM     27  C   UNL     1       6.613   2.214  22.444  0.00  0.00    +0.055 C 
ATOM     28  C   UNL     1       8.092   0.136  22.580  0.00  0.00    +0.187 C 
BRANCH  24  29
ATOM     29  N   UNL     1       9.635   3.210  23.738  0.00  0.00    -0.271 N 
ATOM     30  C   UNL     1       9.101   4.413  24.170  0.00  0.00    +0.331 A 
ATOM     31  O   UNL     1       7.944   4.548  24.562  0.00  0.00    -0.246 OA
ATOM     32  N   UNL     1       9.965   5.477  24.169  0.00  0.00    -0.275 N 
ATOM     33  H   UNL     1       9.616   6.339  24.555  0.00  0.00    +0.173 HD
ATOM     34  C   UNL     1      11.300   5.419  23.895  0.00  0.00    +0.254 A 
ATOM     35  O   UNL     1      12.071   6.350  24.098  0.00  0.00    -0.268 OA
ATOM     36  C   UNL     1      11.783   4.150  23.340  0.00  0.00    +0.088 A 
ATOM     37  C   UNL     1      10.939   3.119  23.287  0.00  0.00    +0.098 A 
ENDBRANCH  24  29
BRANCH  28  38
ATOM     38  O   UNL     1       7.116  -0.363  23.489  0.00  0.00    -0.386 OA
ATOM     39  H   UNL     1       7.578  -0.759  24.255  0.00  0.00    +0.210 HD
ENDBRANCH  28  38
ENDBRANCH  21  22
ENDBRANCH   1  21
TORSDOF 12
ENDMDL
MODEL 2
REMARK VINA RESULT:      -6.9      2.398      4.662
REMARK  Name = 
REMARK  16 active torsions:
REMARK  status: ('A' for Active; 'I' for Inactive)
REMARK    1  A    between atoms: C_1  and  C_2
REMARK    2  A    between atoms: C_2  and  C_3
REMARK    3  A    between atoms: C_2  and  O_4
REMARK    4  A    between atoms: O_4  and  C_5
REMARK    5  A    between atoms: C_5  and  C_7
REMARK    6  A    between atoms: C_7  and  C_8
REMARK    7  A    between atoms: C_7  and  N_9
REMARK    8  A    between atoms: N_9  and  P_10
REMARK    9  A    between atoms: P_10  and  O_12
REMARK   10  A    between atoms: P_10  and  O_30
REMARK   11  A    between atoms: O_12  and  C_13
REMARK   12  A    between atoms: C_13  and  C_14
REMARK   13  A    between atoms: C_15  and  O_29
REMARK   14  A    between atoms: C_16  and  C_27
REMARK   15  A    between atoms: C_17  and  N_19
REMARK   16  A    between atoms: O_30  and  C_31
REMARK                            x       y       z     vdW  Elec       q    Type
REMARK                         _______ _______ _______ _____ _____    ______ ____
ROOT
ATOM      1  O   UNL     1       7.825  -1.547  24.338  0.00  0.00    -0.284 OA
ENDROOT
BRANCH   1   2
ATOM      2  P   UNL     1       8.618  -2.528  23.329  0.00  0.00    +0.462 P 
ATOM      3  O   UNL     1       7.925  -2.599  22.000  0.00  0.00    -0.228 OA
BRANCH   2   4
ATOM      4  N   UNL     1       8.809  -3.949  24.110  0.00  0.00    -0.199 NA
ATOM      5  H   UNL     1       8.494  -4.692  23.493  0.00  0.00    +0.135 HD
BRANCH   4   6
ATOM      6  C   UNL     1       8.210  -4.174  25.431  0.00  0.00    +0.171 C 
ATOM      7  C   UNL     1       9.282  -4.825  26.304  0.00  0.00    +0.036 C 
BRANCH   6   8
ATOM      8  C   UNL     1       6.997  -5.100  25.330  0.00  0.00    +0.325 C 
ATOM      9  O   UNL     1       6.773  -6.003  26.130  0.00  0.00    -0.249 OA
BRANCH   8  10
ATOM     10  O   UNL     1       6.206  -4.783  24.266  0.00  0.00    -0.461 OA
BRANCH  10  12
ATOM     11  C   UNL     1       4.285  -5.634  23.063  0.00  0.00    +0.052 C 
ATOM     12  C   UNL     1       5.730  -5.891  23.472  0.00  0.00    +0.170 C 
ATOM     13  C   UNL     1       6.592  -6.034  22.219  0.00  0.00    +0.052 C 
ENDBRANCH  10  12
ENDBRANCH   8  10
ENDBRANCH   6   8
ENDBRANCH   4   6
ENDBRANCH   2   4
BRANCH   2  14
ATOM     14  O   UNL     1      10.076  -1.827  23.266  0.00  0.00    -0.413 OA
BRANCH  14  15
ATOM     15  C   UNL     1      10.219  -0.475  23.156  0.00  0.00    +0.131 A 
ATOM     16  C   UNL     1       9.818   0.121  21.957  0.00  0.00    +0.046 A 
ATOM     17  C   UNL     1       9.832   1.512  21.837  0.00  0.00    +0.004 A 
ATOM     18  C   UNL     1      10.261   2.300  22.905  0.00  0.00    +0.000 A 
ATOM     19  C   UNL     1      10.715   1.699  24.077  0.00  0.00    +0.004 A 
ATOM     20  C   UNL     1      10.709   0.311  24.195  0.00  0.00    +0.046 A 
ENDBRANCH  14  15
ENDBRANCH   2  14
ENDBRANCH   1   2
BRANCH   1  21
ATOM     21  C   UNL     1       6.490  -1.245  23.942  0.00  0.00    +0.206 C 
BRANCH  21  22
ATOM     22  C   UNL     1       6.110   0.161  24.364  0.00  0.00    +0.179 C 
ATOM     23  O   UNL     1       7.288   0.987  24.347  0.00  0.00    -0.345 OA
ATOM     24  C   UNL     1       7.046   2.094  25.253  0.00  0.00    +0.263 C 
ATOM     25  C   UNL     1       5.683   1.843  25.935  0.00  0.00    +0.182 C 
ATOM     26  F   UNL     1       4.675   2.425  25.216  0.00  0.00    -0.235 F 
ATOM     27  C   UNL     1       5.585   2.327  27.372  0.00  0.00    +0.055 C 
ATOM     28  C   UNL     1       5.556   0.335  25.772  0.00  0.00    +0.187 C 
BRANCH  24  29
ATOM     29  N   UNL     1       7.153   3.329  24.485  0.00  0.00    -0.271 N 
ATOM     30  C   UNL     1       7.729   4.427  25.101  0.00  0.00    +0.331 A 
ATOM     31  O   UNL     1       8.101   4.439  26.273  0.00  0.00    -0.246 OA
ATOM     32  N   UNL     1       7.899   5.530  24.305  0.00  0.00    -0.275 N 
ATOM     33  H   UNL     1       8.388   6.308  24.716  0.00  0.00    +0.173 HD
ATOM     34  C   UNL     1       7.660   5.589  22.964  0.00  0.00    +0.254 A 
ATOM     35  O   UNL     1       8.011   6.526  22.257  0.00  0.00    -0.268 OA
ATOM     36  C   UNL     1       6.952   4.438  22.391  0.00  0.00    +0.088 A 
ATOM     37  C   UNL     1       6.733   3.377  23.168  0.00  0.00    +0.098 A 
ENDBRANCH  24  29
BRANCH  28  38
ATOM     38  O   UNL     1       6.344  -0.325  26.759  0.00  0.00    -0.386 OA
ATOM     39  H   UNL     1       6.916  -0.981  26.311  0.00  0.00    +0.210 HD
ENDBRANCH  28  38
ENDBRANCH  21  22
ENDBRANCH   1  21
TORSDOF 12
ENDMDL
MODEL 3
REMARK VINA RESULT:      -6.7      2.128      3.067
REMARK  Name = 
REMARK  16 active torsions:
REMARK  status: ('A' for Active; 'I' for Inactive)
REMARK    1  A    between atoms: C_1  and  C_2
REMARK    2  A    between atoms: C_2  and  C_3
REMARK    3  A    between atoms: C_2  and  O_4
REMARK    4  A    between atoms: O_4  and  C_5
REMARK    5  A    between atoms: C_5  and  C_7
REMARK    6  A    between atoms: C_7  and  C_8
REMARK    7  A    between atoms: C_7  and  N_9
REMARK    8  A    between atoms: N_9  and  P_10
REMARK    9  A    between atoms: P_10  and  O_12
REMARK   10  A    between atoms: P_10  and  O_30
REMARK   11  A    between atoms: O_12  and  C_13
REMARK   12  A    between atoms: C_13  and  C_14
REMARK   13  A    between atoms: C_15  and  O_29
REMARK   14  A    between atoms: C_16  and  C_27
REMARK   15  A    between atoms: C_17  and  N_19
REMARK   16  A    between atoms: O_30  and  C_31
REMARK                            x       y       z     vdW  Elec       q    Type
REMARK                         _______ _______ _______ _____ _____    ______ ____
ROOT
ATOM      1  O   UNL     1       7.948  -3.623  26.360  0.00  0.00    -0.284 OA
ENDROOT
BRANCH   1   2
ATOM      2  P   UNL     1       7.072  -4.939  26.027  0.00  0.00    +0.462 P 
ATOM      3  O   UNL     1       7.533  -6.108  26.847  0.00  0.00    -0.228 OA
BRANCH   2   4
ATOM      4  N   UNL     1       7.126  -5.140  24.408  0.00  0.00    -0.199 NA
ATOM      5  H   UNL     1       7.552  -4.311  24.001  0.00  0.00    +0.135 HD
BRANCH   4   6
ATOM      6  C   UNL     1       5.912  -5.447  23.641  0.00  0.00    +0.171 C 
ATOM      7  C   UNL     1       6.339  -6.308  22.452  0.00  0.00    +0.036 C 
BRANCH   6   8
ATOM      8  C   UNL     1       5.248  -4.166  23.136  0.00  0.00    +0.325 C 
ATOM      9  O   UNL     1       5.850  -3.104  23.002  0.00  0.00    -0.249 OA
BRANCH   8  10
ATOM     10  O   UNL     1       3.931  -4.361  22.842  0.00  0.00    -0.461 OA
BRANCH  10  12
ATOM     11  C   UNL     1       2.415  -4.145  24.717  0.00  0.00    +0.052 C 
ATOM     12  C   UNL     1       3.166  -5.111  23.811  0.00  0.00    +0.170 C 
ATOM     13  C   UNL     1       2.164  -6.010  23.089  0.00  0.00    +0.052 C 
ENDBRANCH  10  12
ENDBRANCH   8  10
ENDBRANCH   6   8
ENDBRANCH   4   6
ENDBRANCH   2   4
BRANCH   2  14
ATOM     14  O   UNL     1       5.576  -4.440  26.388  0.00  0.00    -0.413 OA
BRANCH  14  15
ATOM     15  C   UNL     1       4.899  -4.922  27.471  0.00  0.00    +0.131 A 
ATOM     16  C   UNL     1       4.171  -6.103  27.303  0.00  0.00    +0.046 A 
ATOM     17  C   UNL     1       3.559  -6.702  28.405  0.00  0.00    +0.004 A 
ATOM     18  C   UNL     1       3.662  -6.112  29.666  0.00  0.00    +0.000 A 
ATOM     19  C   UNL     1       4.340  -4.905  29.817  0.00  0.00    +0.004 A 
ATOM     20  C   UNL     1       4.944  -4.302  28.715  0.00  0.00    +0.046 A 
ENDBRANCH  14  15
ENDBRANCH   2  14
ENDBRANCH   1   2
BRANCH   1  21
ATOM     21  C   UNL     1       7.318  -2.392  26.019  0.00  0.00    +0.206 C 
BRANCH  21  22
ATOM     22  C   UNL     1       8.296  -1.465  25.322  0.00  0.00    +0.179 C 
ATOM     23  O   UNL     1       7.560  -0.559  24.481  0.00  0.00    -0.345 OA
ATOM     24  C   UNL     1       8.470  -0.104  23.446  0.00  0.00    +0.263 C 
ATOM     25  C   UNL     1       9.792  -0.881  23.620  0.00  0.00    +0.182 C 
ATOM     26  F   UNL     1      10.645  -0.195  24.440  0.00  0.00    -0.235 F 
ATOM     27  C   UNL     1      10.526  -1.198  22.328  0.00  0.00    +0.055 C 
ATOM     28  C   UNL     1       9.306  -2.107  24.380  0.00  0.00    +0.187 C 
BRANCH  24  29
ATOM     29  N   UNL     1       8.568   1.347  23.546  0.00  0.00    -0.271 N 
ATOM     30  C   UNL     1       8.615   2.076  22.370  0.00  0.00    +0.331 A 
ATOM     31  O   UNL     1       8.636   1.570  21.250  0.00  0.00    -0.246 OA
ATOM     32  N   UNL     1       8.604   3.439  22.518  0.00  0.00    -0.275 N 
ATOM     33  H   UNL     1       8.557   3.981  21.671  0.00  0.00    +0.173 HD
ATOM     34  C   UNL     1       8.438   4.111  23.693  0.00  0.00    +0.254 A 
ATOM     35  O   UNL     1       8.236   5.318  23.756  0.00  0.00    -0.268 OA
ATOM     36  C   UNL     1       8.504   3.295  24.910  0.00  0.00    +0.088 A 
ATOM     37  C   UNL     1       8.567   1.969  24.782  0.00  0.00    +0.098 A 
ENDBRANCH  24  29
BRANCH  28  38
ATOM     38  O   UNL     1       8.705  -3.029  23.475  0.00  0.00    -0.386 OA
ATOM     39  H   UNL     1       8.476  -3.843  23.968  0.00  0.00    +0.210 HD
ENDBRANCH  28  38
ENDBRANCH  21  22
ENDBRANCH   1  21
TORSDOF 12
ENDMDL
MODEL 4
REMARK VINA RESULT:      -6.6      2.076      3.013
REMARK  Name = 
REMARK  16 active torsions:
REMARK  status: ('A' for Active; 'I' for Inactive)
REMARK    1  A    between atoms: C_1  and  C_2
REMARK    2  A    between atoms: C_2  and  C_3
REMARK    3  A    between atoms: C_2  and  O_4
REMARK    4  A    between atoms: O_4  and  C_5
REMARK    5  A    between atoms: C_5  and  C_7
REMARK    6  A    between atoms: C_7  and  C_8
REMARK    7  A    between atoms: C_7  and  N_9
REMARK    8  A    between atoms: N_9  and  P_10
REMARK    9  A    between atoms: P_10  and  O_12
REMARK   10  A    between atoms: P_10  and  O_30
REMARK   11  A    between atoms: O_12  and  C_13
REMARK   12  A    between atoms: C_13  and  C_14
REMARK   13  A    between atoms: C_15  and  O_29
REMARK   14  A    between atoms: C_16  and  C_27
REMARK   15  A    between atoms: C_17  and  N_19
REMARK   16  A    between atoms: O_30  and  C_31
REMARK                            x       y       z     vdW  Elec       q    Type
REMARK                         _______ _______ _______ _____ _____    ______ ____
ROOT
ATOM      1  O   UNL     1       7.161  -2.615  25.889  0.00  0.00    -0.284 OA
ENDROOT
BRANCH   1   2
ATOM      2  P   UNL     1       7.014  -4.218  26.019  0.00  0.00    +0.462 P 
ATOM      3  O   UNL     1       8.229  -4.911  25.477  0.00  0.00    -0.228 OA
BRANCH   2   4
ATOM      4  N   UNL     1       5.594  -4.616  25.319  0.00  0.00    -0.199 NA
ATOM      5  H   UNL     1       5.749  -5.435  24.737  0.00  0.00    +0.135 HD
BRANCH   4   6
ATOM      6  C   UNL     1       4.836  -3.637  24.530  0.00  0.00    +0.171 C 
ATOM      7  C   UNL     1       3.397  -4.146  24.447  0.00  0.00    +0.036 C 
BRANCH   6   8
ATOM      8  C   UNL     1       5.417  -3.504  23.122  0.00  0.00    +0.325 C 
ATOM      9  O   UNL     1       5.924  -2.468  22.700  0.00  0.00    -0.249 OA
BRANCH   8  10
ATOM     10  O   UNL     1       5.316  -4.668  22.421  0.00  0.00    -0.461 OA
BRANCH  10  12
ATOM     11  C   UNL     1       7.407  -5.888  22.464  0.00  0.00    +0.052 C 
ATOM     12  C   UNL     1       6.464  -5.035  21.625  0.00  0.00    +0.170 C 
ATOM     13  C   UNL     1       6.010  -5.834  20.406  0.00  0.00    +0.052 C 
ENDBRANCH  10  12
ENDBRANCH   8  10
ENDBRANCH   6   8
ENDBRANCH   4   6
ENDBRANCH   2   4
BRANCH   2  14
ATOM     14  O   UNL     1       6.818  -4.403  27.615  0.00  0.00    -0.413 OA
BRANCH  14  15
ATOM     15  C   UNL     1       5.645  -4.855  28.148  0.00  0.00    +0.131 A 
ATOM     16  C   UNL     1       5.525  -6.230  28.367  0.00  0.00    +0.046 A 
ATOM     17  C   UNL     1       4.396  -6.731  29.018  0.00  0.00    +0.004 A 
ATOM     18  C   UNL     1       3.387  -5.861  29.432  0.00  0.00    +0.000 A 
ATOM     19  C   UNL     1       3.485  -4.499  29.160  0.00  0.00    +0.004 A 
ATOM     20  C   UNL     1       4.608  -3.999  28.503  0.00  0.00    +0.046 A 
ENDBRANCH  14  15
ENDBRANCH   2  14
ENDBRANCH   1   2
BRANCH   1  21
ATOM     21  C   UNL     1       8.404  -2.095  26.355  0.00  0.00    +0.206 C 
BRANCH  21  22
ATOM     22  C   UNL     1       9.009  -1.155  25.330  0.00  0.00    +0.179 C 
ATOM     23  O   UNL     1       7.972  -0.310  24.803  0.00  0.00    -0.345 OA
ATOM     24  C   UNL     1       8.414   0.144  23.497  0.00  0.00    +0.263 C 
ATOM     25  C   UNL     1       9.746  -0.573  23.186  0.00  0.00    +0.182 C 
ATOM     26  F   UNL     1      10.804   0.175  23.622  0.00  0.00    -0.235 F 
ATOM     27  C   UNL     1       9.969  -0.906  21.720  0.00  0.00    +0.055 C 
ATOM     28  C   UNL     1       9.634  -1.790  24.094  0.00  0.00    +0.187 C 
BRANCH  24  29
ATOM     29  N   UNL     1       8.470   1.600  23.527  0.00  0.00    -0.271 N 
ATOM     30  C   UNL     1       8.196   2.284  22.354  0.00  0.00    +0.331 A 
ATOM     31  O   UNL     1       7.965   1.734  21.279  0.00  0.00    -0.246 OA
ATOM     32  N   UNL     1       8.161   3.650  22.461  0.00  0.00    -0.275 N 
ATOM     33  H   UNL     1       7.885   4.156  21.636  0.00  0.00    +0.173 HD
ATOM     34  C   UNL     1       8.257   4.362  23.620  0.00  0.00    +0.254 A 
ATOM     35  O   UNL     1       8.023   5.562  23.695  0.00  0.00    -0.268 OA
ATOM     36  C   UNL     1       8.654   3.597  24.807  0.00  0.00    +0.088 A 
ATOM     37  C   UNL     1       8.742   2.270  24.707  0.00  0.00    +0.098 A 
ENDBRANCH  24  29
BRANCH  28  38
ATOM     38  O   UNL     1       8.791  -2.766  23.491  0.00  0.00    -0.386 OA
ATOM     39  H   UNL     1       9.134  -2.963  22.596  0.00  0.00    +0.210 HD
ENDBRANCH  28  38
ENDBRANCH  21  22
ENDBRANCH   1  21
TORSDOF 12
ENDMDL
MODEL 5
REMARK VINA RESULT:      -6.6      2.823      8.644
REMARK  Name = 
REMARK  16 active torsions:
REMARK  status: ('A' for Active; 'I' for Inactive)
REMARK    1  A    between atoms: C_1  and  C_2
REMARK    2  A    between atoms: C_2  and  C_3
REMARK    3  A    between atoms: C_2  and  O_4
REMARK    4  A    between atoms: O_4  and  C_5
REMARK    5  A    between atoms: C_5  and  C_7
REMARK    6  A    between atoms: C_7  and  C_8
REMARK    7  A    between atoms: C_7  and  N_9
REMARK    8  A    between atoms: N_9  and  P_10
REMARK    9  A    between atoms: P_10  and  O_12
REMARK   10  A    between atoms: P_10  and  O_30
REMARK   11  A    between atoms: O_12  and  C_13
REMARK   12  A    between atoms: C_13  and  C_14
REMARK   13  A    between atoms: C_15  and  O_29
REMARK   14  A    between atoms: C_16  and  C_27
REMARK   15  A    between atoms: C_17  and  N_19
REMARK   16  A    between atoms: O_30  and  C_31
REMARK                            x       y       z     vdW  Elec       q    Type
REMARK                         _______ _______ _______ _____ _____    ______ ____
ROOT
ATOM      1  O   UNL     1       8.552  -3.086  23.338  0.00  0.00    -0.284 OA
ENDROOT
BRANCH   1   2
ATOM      2  P   UNL     1       8.955  -2.148  24.590  0.00  0.00    +0.462 P 
ATOM      3  O   UNL     1       9.112  -2.964  25.839  0.00  0.00    -0.228 OA
BRANCH   2   4
ATOM      4  N   UNL     1       7.848  -0.951  24.655  0.00  0.00    -0.199 NA
ATOM      5  H   UNL     1       8.167  -0.193  24.057  0.00  0.00    +0.135 HD
BRANCH   4   6
ATOM      6  C   UNL     1       7.433  -0.370  25.938  0.00  0.00    +0.171 C 
ATOM      7  C   UNL     1       6.183  -1.125  26.389  0.00  0.00    +0.036 C 
BRANCH   6   8
ATOM      8  C   UNL     1       7.109   1.116  25.785  0.00  0.00    +0.325 C 
ATOM      9  O   UNL     1       6.654   1.802  26.696  0.00  0.00    -0.249 OA
BRANCH   8  10
ATOM     10  O   UNL     1       7.404   1.572  24.535  0.00  0.00    -0.461 OA
BRANCH  10  12
ATOM     11  C   UNL     1       7.333   3.966  24.181  0.00  0.00    +0.052 C 
ATOM     12  C   UNL     1       6.580   2.650  24.038  0.00  0.00    +0.170 C 
ATOM     13  C   UNL     1       6.255   2.411  22.565  0.00  0.00    +0.052 C 
ENDBRANCH  10  12
ENDBRANCH   8  10
ENDBRANCH   6   8
ENDBRANCH   4   6
ENDBRANCH   2   4
BRANCH   2  14
ATOM     14  O   UNL     1      10.336  -1.482  24.071  0.00  0.00    -0.413 OA
BRANCH  14  15
ATOM     15  C   UNL     1      10.383  -0.205  23.592  0.00  0.00    +0.131 A 
ATOM     16  C   UNL     1       9.931   0.011  22.287  0.00  0.00    +0.046 A 
ATOM     17  C   UNL     1       9.846   1.313  21.790  0.00  0.00    +0.004 A 
ATOM     18  C   UNL     1      10.225   2.391  22.591  0.00  0.00    +0.000 A 
ATOM     19  C   UNL     1      10.729   2.166  23.869  0.00  0.00    +0.004 A 
ATOM     20  C   UNL     1      10.823   0.866  24.363  0.00  0.00    +0.046 A 
ENDBRANCH  14  15
ENDBRANCH   2  14
ENDBRANCH   1   2
BRANCH   1  21
ATOM     21  C   UNL     1       7.290  -2.779  22.752  0.00  0.00    +0.206 C 
BRANCH  21  22
ATOM     22  C   UNL     1       6.163  -3.421  23.538  0.00  0.00    +0.179 C 
ATOM     23  O   UNL     1       6.638  -4.650  24.115  0.00  0.00    -0.345 OA
ATOM     24  C   UNL     1       5.476  -5.487  24.350  0.00  0.00    +0.263 C 
ATOM     25  C   UNL     1       4.250  -4.750  23.768  0.00  0.00    +0.182 C 
ATOM     26  F   UNL     1       3.670  -3.961  24.723  0.00  0.00    -0.235 F 
ATOM     27  C   UNL     1       3.178  -5.651  23.179  0.00  0.00    +0.055 C 
ATOM     28  C   UNL     1       4.922  -3.833  22.756  0.00  0.00    +0.187 C 
BRANCH  24  29
ATOM     29  N   UNL     1       5.421  -5.781  25.777  0.00  0.00    -0.271 N 
ATOM     30  C   UNL     1       4.801  -6.954  26.173  0.00  0.00    +0.331 A 
ATOM     31  O   UNL     1       4.246  -7.732  25.399  0.00  0.00    -0.246 OA
ATOM     32  N   UNL     1       4.866  -7.234  27.513  0.00  0.00    -0.275 N 
ATOM     33  H   UNL     1       4.490  -8.121  27.805  0.00  0.00    +0.173 HD
ATOM     34  C   UNL     1       5.573  -6.528  28.441  0.00  0.00    +0.254 A 
ATOM     35  O   UNL     1       5.766  -6.922  29.585  0.00  0.00    -0.268 OA
ATOM     36  C   UNL     1       6.116  -5.242  27.987  0.00  0.00    +0.088 A 
ATOM     37  C   UNL     1       6.014  -4.933  26.694  0.00  0.00    +0.098 A 
ENDBRANCH  24  29
BRANCH  28  38
ATOM     38  O   UNL     1       5.235  -4.565  21.575  0.00  0.00    -0.386 OA
ATOM     39  H   UNL     1       5.707  -3.970  20.958  0.00  0.00    +0.210 HD
ENDBRANCH  28  38
ENDBRANCH  21  22
ENDBRANCH   1  21
TORSDOF 12
ENDMDL
MODEL 6
REMARK VINA RESULT:      -6.6      1.630      3.251
REMARK  Name = 
REMARK  16 active torsions:
REMARK  status: ('A' for Active; 'I' for Inactive)
REMARK    1  A    between atoms: C_1  and  C_2
REMARK    2  A    between atoms: C_2  and  C_3
REMARK    3  A    between atoms: C_2  and  O_4
REMARK    4  A    between atoms: O_4  and  C_5
REMARK    5  A    between atoms: C_5  and  C_7
REMARK    6  A    between atoms: C_7  and  C_8
REMARK    7  A    between atoms: C_7  and  N_9
REMARK    8  A    between atoms: N_9  and  P_10
REMARK    9  A    between atoms: P_10  and  O_12
REMARK   10  A    between atoms: P_10  and  O_30
REMARK   11  A    between atoms: O_12  and  C_13
REMARK   12  A    between atoms: C_13  and  C_14
REMARK   13  A    between atoms: C_15  and  O_29
REMARK   14  A    between atoms: C_16  and  C_27
REMARK   15  A    between atoms: C_17  and  N_19
REMARK   16  A    between atoms: O_30  and  C_31
REMARK                            x       y       z     vdW  Elec       q    Type
REMARK                         _______ _______ _______ _____ _____    ______ ____
ROOT
ATOM      1  O   UNL     1       7.447  -0.725  25.376  0.00  0.00    -0.284 OA
ENDROOT
BRANCH   1   2
ATOM      2  P   UNL     1       6.638  -2.092  25.668  0.00  0.00    +0.462 P 
ATOM      3  O   UNL     1       5.967  -2.039  27.009  0.00  0.00    -0.228 OA
BRANCH   2   4
ATOM      4  N   UNL     1       7.694  -3.317  25.447  0.00  0.00    -0.199 NA
ATOM      5  H   UNL     1       7.328  -3.921  24.716  0.00  0.00    +0.135 HD
BRANCH   4   6
ATOM      6  C   UNL     1       8.112  -4.169  26.568  0.00  0.00    +0.171 C 
ATOM      7  C   UNL     1       9.418  -4.847  26.152  0.00  0.00    +0.036 C 
BRANCH   6   8
ATOM      8  C   UNL     1       7.055  -5.231  26.871  0.00  0.00    +0.325 C 
ATOM      9  O   UNL     1       6.648  -6.032  26.034  0.00  0.00    -0.249 OA
BRANCH   8  10
ATOM     10  O   UNL     1       6.647  -5.182  28.170  0.00  0.00    -0.461 OA
BRANCH  10  12
ATOM     11  C   UNL     1       5.021  -6.793  28.959  0.00  0.00    +0.052 C 
ATOM     12  C   UNL     1       5.237  -5.391  28.404  0.00  0.00    +0.170 C 
ATOM     13  C   UNL     1       4.726  -4.364  29.413  0.00  0.00    +0.052 C 
ENDBRANCH  10  12
ENDBRANCH   8  10
ENDBRANCH   6   8
ENDBRANCH   4   6
ENDBRANCH   2   4
BRANCH   2  14
ATOM     14  O   UNL     1       5.603  -2.135  24.424  0.00  0.00    -0.413 OA
BRANCH  14  15
ATOM     15  C   UNL     1       5.483  -3.236  23.626  0.00  0.00    +0.131 A 
ATOM     16  C   UNL     1       6.372  -3.355  22.554  0.00  0.00    +0.046 A 
ATOM     17  C   UNL     1       6.370  -4.517  21.780  0.00  0.00    +0.004 A 
ATOM     18  C   UNL     1       5.473  -5.546  22.068  0.00  0.00    +0.000 A 
ATOM     19  C   UNL     1       4.551  -5.398  23.101  0.00  0.00    +0.004 A 
ATOM     20  C   UNL     1       4.546  -4.235  23.870  0.00  0.00    +0.046 A 
ENDBRANCH  14  15
ENDBRANCH   2  14
ENDBRANCH   1   2
BRANCH   1  21
ATOM     21  C   UNL     1       8.457  -0.837  24.377  0.00  0.00    +0.206 C 
BRANCH  21  22
ATOM     22  C   UNL     1       8.523   0.425  23.538  0.00  0.00    +0.179 C 
ATOM     23  O   UNL     1       8.758   1.549  24.405  0.00  0.00    -0.345 OA
ATOM     24  C   UNL     1       8.265   2.728  23.717  0.00  0.00    +0.263 C 
ATOM     25  C   UNL     1       7.592   2.254  22.411  0.00  0.00    +0.182 C 
ATOM     26  F   UNL     1       8.497   2.236  21.386  0.00  0.00    -0.235 F 
ATOM     27  C   UNL     1       6.391   3.074  21.972  0.00  0.00    +0.055 C 
ATOM     28  C   UNL     1       7.267   0.809  22.766  0.00  0.00    +0.187 C 
BRANCH  24  29
ATOM     29  N   UNL     1       9.383   3.649  23.556  0.00  0.00    -0.271 N 
ATOM     30  C   UNL     1       9.126   5.006  23.667  0.00  0.00    +0.331 A 
ATOM     31  O   UNL     1       8.005   5.479  23.836  0.00  0.00    -0.246 OA
ATOM     32  N   UNL     1      10.226   5.822  23.610  0.00  0.00    -0.275 N 
ATOM     33  H   UNL     1      10.065   6.803  23.769  0.00  0.00    +0.173 HD
ATOM     34  C   UNL     1      11.525   5.408  23.570  0.00  0.00    +0.254 A 
ATOM     35  O   UNL     1      12.478   6.163  23.720  0.00  0.00    -0.268 OA
ATOM     36  C   UNL     1      11.730   3.973  23.344  0.00  0.00    +0.088 A 
ATOM     37  C   UNL     1      10.664   3.172  23.346  0.00  0.00    +0.098 A 
ENDBRANCH  24  29
BRANCH  28  38
ATOM     38  O   UNL     1       6.092   0.762  23.569  0.00  0.00    -0.386 OA
ATOM     39  H   UNL     1       6.228   1.332  24.352  0.00  0.00    +0.210 HD
ENDBRANCH  28  38
ENDBRANCH  21  22
ENDBRANCH   1  21
TORSDOF 12
ENDMDL
MODEL 7
REMARK VINA RESULT:      -6.4      2.922      8.376
REMARK  Name = 
REMARK  16 active torsions:
REMARK  status: ('A' for Active; 'I' for Inactive)
REMARK    1  A    between atoms: C_1  and  C_2
REMARK    2  A    between atoms: C_2  and  C_3
REMARK    3  A    between atoms: C_2  and  O_4
REMARK    4  A    between atoms: O_4  and  C_5
REMARK    5  A    between atoms: C_5  and  C_7
REMARK    6  A    between atoms: C_7  and  C_8
REMARK    7  A    between atoms: C_7  and  N_9
REMARK    8  A    between atoms: N_9  and  P_10
REMARK    9  A    between atoms: P_10  and  O_12
REMARK   10  A    between atoms: P_10  and  O_30
REMARK   11  A    between atoms: O_12  and  C_13
REMARK   12  A    between atoms: C_13  and  C_14
REMARK   13  A    between atoms: C_15  and  O_29
REMARK   14  A    between atoms: C_16  and  C_27
REMARK   15  A    between atoms: C_17  and  N_19
REMARK   16  A    between atoms: O_30  and  C_31
REMARK                            x       y       z     vdW  Elec       q    Type
REMARK                         _______ _______ _______ _____ _____    ______ ____
ROOT
ATOM      1  O   UNL     1       8.126  -3.152  22.507  0.00  0.00    -0.284 OA
ENDROOT
BRANCH   1   2
ATOM      2  P   UNL     1       9.071  -2.664  23.722  0.00  0.00    +0.462 P 
ATOM      3  O   UNL     1       9.649  -3.839  24.454  0.00  0.00    -0.228 OA
BRANCH   2   4
ATOM      4  N   UNL     1       8.183  -1.631  24.621  0.00  0.00    -0.199 NA
ATOM      5  H   UNL     1       8.354  -0.688  24.279  0.00  0.00    +0.135 HD
BRANCH   4   6
ATOM      6  C   UNL     1       8.296  -1.608  26.084  0.00  0.00    +0.171 C 
ATOM      7  C   UNL     1       7.280  -2.613  26.628  0.00  0.00    +0.036 C 
BRANCH   6   8
ATOM      8  C   UNL     1       7.988  -0.215  26.634  0.00  0.00    +0.325 C 
ATOM      9  O   UNL     1       7.587  -0.018  27.778  0.00  0.00    -0.249 OA
BRANCH   8  10
ATOM     10  O   UNL     1       8.229   0.758  25.711  0.00  0.00    -0.461 OA
BRANCH  10  12
ATOM     11  C   UNL     1       7.808   3.139  25.596  0.00  0.00    +0.052 C 
ATOM     12  C   UNL     1       7.191   1.748  25.541  0.00  0.00    +0.170 C 
ATOM     13  C   UNL     1       6.509   1.550  24.189  0.00  0.00    +0.052 C 
ENDBRANCH  10  12
ENDBRANCH   8  10
ENDBRANCH   6   8
ENDBRANCH   4   6
ENDBRANCH   2   4
BRANCH   2  14
ATOM     14  O   UNL     1      10.177  -1.775  22.942  0.00  0.00    -0.413 OA
BRANCH  14  15
ATOM     15  C   UNL     1      10.117  -0.412  22.917  0.00  0.00    +0.131 A 
ATOM     16  C   UNL     1      10.800   0.282  23.919  0.00  0.00    +0.046 A 
ATOM     17  C   UNL     1      10.870   1.676  23.872  0.00  0.00    +0.004 A 
ATOM     18  C   UNL     1      10.244   2.370  22.836  0.00  0.00    +0.000 A 
ATOM     19  C   UNL     1       9.515   1.677  21.873  0.00  0.00    +0.004 A 
ATOM     20  C   UNL     1       9.439   0.287  21.924  0.00  0.00    +0.046 A 
ENDBRANCH  14  15
ENDBRANCH   2  14
ENDBRANCH   1   2
BRANCH   1  21
ATOM     21  C   UNL     1       7.642  -4.486  22.633  0.00  0.00    +0.206 C 
BRANCH  21  22
ATOM     22  C   UNL     1       6.264  -4.499  23.267  0.00  0.00    +0.179 C 
ATOM     23  O   UNL     1       6.327  -5.236  24.501  0.00  0.00    -0.345 OA
ATOM     24  C   UNL     1       4.985  -5.714  24.781  0.00  0.00    +0.263 C 
ATOM     25  C   UNL     1       4.099  -5.333  23.576  0.00  0.00    +0.182 C 
ATOM     26  F   UNL     1       3.525  -4.107  23.773  0.00  0.00    -0.235 F 
ATOM     27  C   UNL     1       2.997  -6.326  23.249  0.00  0.00    +0.055 C 
ATOM     28  C   UNL     1       5.149  -5.182  22.485  0.00  0.00    +0.187 C 
BRANCH  24  29
ATOM     29  N   UNL     1       4.577  -5.164  26.068  0.00  0.00    -0.271 N 
ATOM     30  C   UNL     1       4.904  -5.876  27.210  0.00  0.00    +0.331 A 
ATOM     31  O   UNL     1       5.467  -6.969  27.198  0.00  0.00    -0.246 OA
ATOM     32  N   UNL     1       4.588  -5.268  28.397  0.00  0.00    -0.275 N 
ATOM     33  H   UNL     1       4.891  -5.736  29.235  0.00  0.00    +0.173 HD
ATOM     34  C   UNL     1       4.098  -4.003  28.538  0.00  0.00    +0.254 A 
ATOM     35  O   UNL     1       4.017  -3.428  29.617  0.00  0.00    -0.268 OA
ATOM     36  C   UNL     1       3.670  -3.343  27.300  0.00  0.00    +0.088 A 
ATOM     37  C   UNL     1       3.924  -3.946  26.138  0.00  0.00    +0.098 A 
ENDBRANCH  24  29
BRANCH  28  38
ATOM     38  O   UNL     1       5.526  -6.466  21.997  0.00  0.00    -0.386 OA
ATOM     39  H   UNL     1       4.796  -6.815  21.447  0.00  0.00    +0.210 HD
ENDBRANCH  28  38
ENDBRANCH  21  22
ENDBRANCH   1  21
TORSDOF 12
ENDMDL
MODEL 8
REMARK VINA RESULT:      -6.4      2.219      4.127
REMARK  Name = 
REMARK  16 active torsions:
REMARK  status: ('A' for Active; 'I' for Inactive)
REMARK    1  A    between atoms: C_1  and  C_2
REMARK    2  A    between atoms: C_2  and  C_3
REMARK    3  A    between atoms: C_2  and  O_4
REMARK    4  A    between atoms: O_4  and  C_5
REMARK    5  A    between atoms: C_5  and  C_7
REMARK    6  A    between atoms: C_7  and  C_8
REMARK    7  A    between atoms: C_7  and  N_9
REMARK    8  A    between atoms: N_9  and  P_10
REMARK    9  A    between atoms: P_10  and  O_12
REMARK   10  A    between atoms: P_10  and  O_30
REMARK   11  A    between atoms: O_12  and  C_13
REMARK   12  A    between atoms: C_13  and  C_14
REMARK   13  A    between atoms: C_15  and  O_29
REMARK   14  A    between atoms: C_16  and  C_27
REMARK   15  A    between atoms: C_17  and  N_19
REMARK   16  A    between atoms: O_30  and  C_31
REMARK                            x       y       z     vdW  Elec       q    Type
REMARK                         _______ _______ _______ _____ _____    ______ ____
ROOT
ATOM      1  O   UNL     1       7.500  -2.972  25.760  0.00  0.00    -0.284 OA
ENDROOT
BRANCH   1   2
ATOM      2  P   UNL     1       6.121  -3.132  26.585  0.00  0.00    +0.462 P 
ATOM      3  O   UNL     1       5.724  -1.831  27.219  0.00  0.00    -0.228 OA
BRANCH   2   4
ATOM      4  N   UNL     1       6.329  -4.388  27.606  0.00  0.00    -0.199 NA
ATOM      5  H   UNL     1       6.950  -5.058  27.160  0.00  0.00    +0.135 HD
BRANCH   4   6
ATOM      6  C   UNL     1       5.180  -5.126  28.145  0.00  0.00    +0.171 C 
ATOM      7  C   UNL     1       5.246  -5.010  29.668  0.00  0.00    +0.036 C 
BRANCH   6   8
ATOM      8  C   UNL     1       5.238  -6.599  27.738  0.00  0.00    +0.325 C 
ATOM      9  O   UNL     1       5.562  -7.497  28.510  0.00  0.00    -0.249 OA
BRANCH   8  10
ATOM     10  O   UNL     1       4.873  -6.779  26.437  0.00  0.00    -0.461 OA
BRANCH  10  12
ATOM     11  C   UNL     1       2.636  -5.855  26.499  0.00  0.00    +0.052 C 
ATOM     12  C   UNL     1       3.481  -7.086  26.202  0.00  0.00    +0.170 C 
ATOM     13  C   UNL     1       3.284  -7.494  24.743  0.00  0.00    +0.052 C 
ENDBRANCH  10  12
ENDBRANCH   8  10
ENDBRANCH   6   8
ENDBRANCH   4   6
ENDBRANCH   2   4
BRANCH   2  14
ATOM     14  O   UNL     1       5.102  -3.630  25.430  0.00  0.00    -0.413 OA
BRANCH  14  15
ATOM     15  C   UNL     1       5.546  -4.038  24.206  0.00  0.00    +0.131 A 
ATOM     16  C   UNL     1       5.341  -3.175  23.126  0.00  0.00    +0.046 A 
ATOM     17  C   UNL     1       5.881  -3.489  21.877  0.00  0.00    +0.004 A 
ATOM     18  C   UNL     1       6.607  -4.668  21.708  0.00  0.00    +0.000 A 
ATOM     19  C   UNL     1       6.759  -5.553  22.773  0.00  0.00    +0.004 A 
ATOM     20  C   UNL     1       6.214  -5.244  24.018  0.00  0.00    +0.046 A 
ENDBRANCH  14  15
ENDBRANCH   2  14
ENDBRANCH   1   2
BRANCH   1  21
ATOM     21  C   UNL     1       8.462  -2.120  26.375  0.00  0.00    +0.206 C 
BRANCH  21  22
ATOM     22  C   UNL     1       9.077  -1.181  25.355  0.00  0.00    +0.179 C 
ATOM     23  O   UNL     1       8.039  -0.357  24.796  0.00  0.00    -0.345 OA
ATOM     24  C   UNL     1       8.505   0.091  23.496  0.00  0.00    +0.263 C 
ATOM     25  C   UNL     1       9.853  -0.608  23.222  0.00  0.00    +0.182 C 
ATOM     26  F   UNL     1      10.890   0.161  23.675  0.00  0.00    -0.235 F 
ATOM     27  C   UNL     1      10.115  -0.952  21.766  0.00  0.00    +0.055 C 
ATOM     28  C   UNL     1       9.740  -1.818  24.140  0.00  0.00    +0.187 C 
BRANCH  24  29
ATOM     29  N   UNL     1       8.537   1.549  23.513  0.00  0.00    -0.271 N 
ATOM     30  C   UNL     1       8.267   2.216  22.330  0.00  0.00    +0.331 A 
ATOM     31  O   UNL     1       8.059   1.654  21.258  0.00  0.00    -0.246 OA
ATOM     32  N   UNL     1       8.210   3.583  22.423  0.00  0.00    -0.275 N 
ATOM     33  H   UNL     1       7.937   4.077  21.590  0.00  0.00    +0.173 HD
ATOM     34  C   UNL     1       8.280   4.307  23.576  0.00  0.00    +0.254 A 
ATOM     35  O   UNL     1       8.027   5.504  23.637  0.00  0.00    -0.268 OA
ATOM     36  C   UNL     1       8.674   3.559  24.776  0.00  0.00    +0.088 A 
ATOM     37  C   UNL     1       8.784   2.233  24.689  0.00  0.00    +0.098 A 
ENDBRANCH  24  29
BRANCH  28  38
ATOM     38  O   UNL     1       8.925  -2.813  23.528  0.00  0.00    -0.386 OA
ATOM     39  H   UNL     1       8.767  -2.555  22.597  0.00  0.00    +0.210 HD
ENDBRANCH  28  38
ENDBRANCH  21  22
ENDBRANCH   1  21
TORSDOF 12
ENDMDL
MODEL 9
REMARK VINA RESULT:      -6.3      3.310      8.685
REMARK  Name = 
REMARK  16 active torsions:
REMARK  status: ('A' for Active; 'I' for Inactive)
REMARK    1  A    between atoms: C_1  and  C_2
REMARK    2  A    between atoms: C_2  and  C_3
REMARK    3  A    between atoms: C_2  and  O_4
REMARK    4  A    between atoms: O_4  and  C_5
REMARK    5  A    between atoms: C_5  and  C_7
REMARK    6  A    between atoms: C_7  and  C_8
REMARK    7  A    between atoms: C_7  and  N_9
REMARK    8  A    between atoms: N_9  and  P_10
REMARK    9  A    between atoms: P_10  and  O_12
REMARK   10  A    between atoms: P_10  and  O_30
REMARK   11  A    between atoms: O_12  and  C_13
REMARK   12  A    between atoms: C_13  and  C_14
REMARK   13  A    between atoms: C_15  and  O_29
REMARK   14  A    between atoms: C_16  and  C_27
REMARK   15  A    between atoms: C_17  and  N_19
REMARK   16  A    between atoms: O_30  and  C_31
REMARK                            x       y       z     vdW  Elec       q    Type
REMARK                         _______ _______ _______ _____ _____    ______ ____
ROOT
ATOM      1  O   UNL     1       8.261  -3.833  23.592  0.00  0.00    -0.284 OA
ENDROOT
BRANCH   1   2
ATOM      2  P   UNL     1       8.703  -2.462  24.323  0.00  0.00    +0.462 P 
ATOM      3  O   UNL     1       9.377  -2.749  25.633  0.00  0.00    -0.228 OA
BRANCH   2   4
ATOM      4  N   UNL     1       7.371  -1.521  24.399  0.00  0.00    -0.199 NA
ATOM      5  H   UNL     1       7.594  -0.624  23.977  0.00  0.00    +0.135 HD
BRANCH   4   6
ATOM      6  C   UNL     1       6.695  -1.264  25.676  0.00  0.00    +0.171 C 
ATOM      7  C   UNL     1       5.216  -1.035  25.364  0.00  0.00    +0.036 C 
BRANCH   6   8
ATOM      8  C   UNL     1       7.275  -0.025  26.360  0.00  0.00    +0.325 C 
ATOM      9  O   UNL     1       8.205  -0.073  27.160  0.00  0.00    -0.249 OA
BRANCH   8  10
ATOM     10  O   UNL     1       6.647   1.115  25.957  0.00  0.00    -0.461 OA
BRANCH  10  12
ATOM     11  C   UNL     1       6.528   2.204  23.798  0.00  0.00    +0.052 C 
ATOM     12  C   UNL     1       7.378   1.955  25.037  0.00  0.00    +0.170 C 
ATOM     13  C   UNL     1       7.701   3.290  25.705  0.00  0.00    +0.052 C 
ENDBRANCH  10  12
ENDBRANCH   8  10
ENDBRANCH   6   8
ENDBRANCH   4   6
ENDBRANCH   2   4
BRANCH   2  14
ATOM     14  O   UNL     1       9.683  -1.800  23.218  0.00  0.00    -0.413 OA
BRANCH  14  15
ATOM     15  C   UNL     1       9.853  -0.449  23.126  0.00  0.00    +0.131 A 
ATOM     16  C   UNL     1      10.495   0.194  24.188  0.00  0.00    +0.046 A 
ATOM     17  C   UNL     1      10.800   1.553  24.093  0.00  0.00    +0.004 A 
ATOM     18  C   UNL     1      10.450   2.267  22.946  0.00  0.00    +0.000 A 
ATOM     19  C   UNL     1       9.760   1.635  21.915  0.00  0.00    +0.004 A 
ATOM     20  C   UNL     1       9.447   0.280  22.013  0.00  0.00    +0.046 A 
ENDBRANCH  14  15
ENDBRANCH   2  14
ENDBRANCH   1   2
BRANCH   1  21
ATOM     21  C   UNL     1       8.426  -5.006  24.384  0.00  0.00    +0.206 C 
BRANCH  21  22
ATOM     22  C   UNL     1       7.096  -5.456  24.958  0.00  0.00    +0.179 C 
ATOM     23  O   UNL     1       6.085  -4.497  24.602  0.00  0.00    -0.345 OA
ATOM     24  C   UNL     1       5.020  -4.617  25.580  0.00  0.00    +0.263 C 
ATOM     25  C   UNL     1       5.484  -5.631  26.647  0.00  0.00    +0.182 C 
ATOM     26  F   UNL     1       5.091  -6.896  26.306  0.00  0.00    -0.235 F 
ATOM     27  C   UNL     1       5.001  -5.346  28.058  0.00  0.00    +0.055 C 
ATOM     28  C   UNL     1       6.995  -5.555  26.475  0.00  0.00    +0.187 C 
BRANCH  24  29
ATOM     29  N   UNL     1       3.797  -4.962  24.865  0.00  0.00    -0.271 N 
ATOM     30  C   UNL     1       2.624  -4.335  25.248  0.00  0.00    +0.331 A 
ATOM     31  O   UNL     1       2.542  -3.548  26.189  0.00  0.00    -0.246 OA
ATOM     32  N   UNL     1       1.524  -4.617  24.479  0.00  0.00    -0.275 N 
ATOM     33  H   UNL     1       0.683  -4.108  24.696  0.00  0.00    +0.173 HD
ATOM     34  C   UNL     1       1.522  -5.355  23.333  0.00  0.00    +0.254 A 
ATOM     35  O   UNL     1       0.563  -5.417  22.573  0.00  0.00    -0.268 OA
ATOM     36  C   UNL     1       2.763  -6.081  23.038  0.00  0.00    +0.088 A 
ATOM     37  C   UNL     1       3.828  -5.855  23.809  0.00  0.00    +0.098 A 
ENDBRANCH  24  29
BRANCH  28  38
ATOM     38  O   UNL     1       7.498  -4.398  27.136  0.00  0.00    -0.386 OA
ATOM     39  H   UNL     1       8.157  -4.683  27.801  0.00  0.00    +0.210 HD
ENDBRANCH  28  38
ENDBRANCH  21  22
ENDBRANCH   1  21
TORSDOF 12
ENDMDL
