MODEL 1
REMARK VINA RESULT:      -6.3      0.000      0.000
REMARK  Name = 
REMARK  11 active torsions:
REMARK  status: ('A' for Active; 'I' for Inactive)
REMARK    1  A    between atoms: C_1  and  C_2
REMARK    2  A    between atoms: N_4  and  C_5
REMARK    3  A    between atoms: C_6  and  C_19
REMARK    4  A    between atoms: C_9  and  C_16
REMARK    5  A    between atoms: C_11  and  N_12
REMARK    6  A    between atoms: C_16  and  O_18
REMARK    7  A    between atoms: C_19  and  C_20
REMARK    8  A    between atoms: C_19  and  O_24
REMARK    9  A    between atoms: C_20  and  C_21
REMARK   10  A    between atoms: C_20  and  O_23
REMARK   11  A    between atoms: C_21  and  O_22
REMARK                            x       y       z     vdW  Elec       q    Type
REMARK                         _______ _______ _______ _____ _____    ______ ____
ROOT
ATOM      1  C   UNL     1       8.605  -2.496  23.895  0.00  0.00    +0.160 C 
ATOM      2  C   UNL     1       8.457  -4.045  23.923  0.00  0.00    +0.238 C 
ATOM      3  C   UNL     1       7.491  -4.581  22.929  0.00  0.00    +0.071 C 
ATOM      4  C   UNL     1       6.923  -3.840  21.974  0.00  0.00    +0.204 C 
ATOM      5  O   UNL     1       7.124  -2.504  21.812  0.00  0.00    -0.477 OA
ATOM      6  C   UNL     1       8.052  -1.789  22.626  0.00  0.00    +0.229 C 
ENDROOT
BRANCH   2   7
ATOM      7  N   UNL     1       8.001  -4.465  25.257  0.00  0.00    -0.104 NA
ATOM      8  C   UNL     1       8.669  -5.332  25.918  0.00  0.00    +0.377 C 
ATOM      9  N   UNL     1       8.309  -5.607  27.190  0.00  0.00    -0.289 N 
ATOM     10  H   UNL     1       8.388  -6.585  27.436  0.00  0.00    +0.255 HD
ATOM     11  H   UNL     1       7.377  -5.255  27.388  0.00  0.00    +0.255 HD
ATOM     12  N   UNL     1       9.773  -6.034  25.586  0.00  0.00    -0.289 N 
ATOM     13  H   UNL     1      10.427  -6.144  26.352  0.00  0.00    +0.255 HD
ATOM     14  H   UNL     1      10.249  -5.773  24.735  0.00  0.00    +0.255 HD
ENDBRANCH   2   7
BRANCH   1  17
ATOM     15  C   UNL     1       7.948  -0.507  27.080  0.00  0.00    +0.109 C 
ATOM     16  C   UNL     1       8.636  -0.869  25.798  0.00  0.00    +0.210 C 
ATOM     17  N   UNL     1       8.026  -1.883  25.107  0.00  0.00    -0.305 N 
ATOM     18  H   UNL     1       7.249  -2.395  25.519  0.00  0.00    +0.149 HD
ATOM     19  O   UNL     1       9.643  -0.295  25.394  0.00  0.00    -0.276 OA
ENDBRANCH   1  17
BRANCH   4  20
ATOM     20  C   UNL     1       6.025  -4.497  20.974  0.00  0.00    +0.372 C 
ATOM     21  O   UNL     1       5.753  -4.060  19.867  0.00  0.00    -0.242 OA
BRANCH  20  22
ATOM     22  O   UNL     1       5.500  -5.634  21.487  0.00  0.00    -0.475 OA
ATOM     23  H   UNL     1       6.205  -6.294  21.680  0.00  0.00    +0.296 HD
ENDBRANCH  20  22
ENDBRANCH   4  20
BRANCH   6  24
ATOM     24  C   UNL     1       9.184  -1.199  21.742  0.00  0.00    +0.187 C 
BRANCH  24  25
ATOM     25  O   UNL     1      10.451  -1.797  22.019  0.00  0.00    -0.385 OA
ATOM     26  H   UNL     1      11.072  -1.106  22.352  0.00  0.00    +0.210 HD
ENDBRANCH  24  25
BRANCH  24  27
ATOM     27  C   UNL     1       9.287   0.338  21.884  0.00  0.00    +0.172 C 
BRANCH  27  28
ATOM     28  O   UNL     1      10.364   0.716  22.766  0.00  0.00    -0.387 OA
ATOM     29  H   UNL     1      11.112   0.117  22.584  0.00  0.00    +0.210 HD
ENDBRANCH  27  28
BRANCH  27  30
ATOM     30  C   UNL     1       7.995   0.967  22.424  0.00  0.00    +0.189 C 
BRANCH  30  31
ATOM     31  O   UNL     1       8.295   1.762  23.574  0.00  0.00    -0.392 OA
ATOM     32  H   UNL     1       9.009   1.296  24.051  0.00  0.00    +0.210 HD
ENDBRANCH  30  31
ENDBRANCH  27  30
ENDBRANCH  24  27
ENDBRANCH   6  24
TORSDOF 10
ENDMDL
MODEL 2
REMARK VINA RESULT:      -6.0      1.272      1.402
REMARK  Name = 
REMARK  11 active torsions:
REMARK  status: ('A' for Active; 'I' for Inactive)
REMARK    1  A    between atoms: C_1  and  C_2
REMARK    2  A    between atoms: N_4  and  C_5
REMARK    3  A    between atoms: C_6  and  C_19
REMARK    4  A    between atoms: C_9  and  C_16
REMARK    5  A    between atoms: C_11  and  N_12
REMARK    6  A    between atoms: C_16  and  O_18
REMARK    7  A    between atoms: C_19  and  C_20
REMARK    8  A    between atoms: C_19  and  O_24
REMARK    9  A    between atoms: C_20  and  C_21
REMARK   10  A    between atoms: C_20  and  O_23
REMARK   11  A    between atoms: C_21  and  O_22
REMARK                            x       y       z     vdW  Elec       q    Type
REMARK                         _______ _______ _______ _____ _____    ______ ____
ROOT
ATOM      1  C   UNL     1       8.111  -2.631  24.525  0.00  0.00    +0.160 C 
ATOM      2  C   UNL     1       7.725  -4.095  24.890  0.00  0.00    +0.238 C 
ATOM      3  C   UNL     1       7.065  -4.841  23.787  0.00  0.00    +0.071 C 
ATOM      4  C   UNL     1       6.962  -4.380  22.538  0.00  0.00    +0.204 C 
ATOM      5  O   UNL     1       7.408  -3.161  22.126  0.00  0.00    -0.477 OA
ATOM      6  C   UNL     1       8.118  -2.294  23.008  0.00  0.00    +0.229 C 
ENDROOT
BRANCH   2   7
ATOM      7  N   UNL     1       6.800  -4.082  26.033  0.00  0.00    -0.104 NA
ATOM      8  C   UNL     1       6.966  -4.903  26.999  0.00  0.00    +0.377 C 
ATOM      9  N   UNL     1       6.188  -4.789  28.097  0.00  0.00    -0.289 N 
ATOM     10  H   UNL     1       5.905  -5.676  28.492  0.00  0.00    +0.255 HD
ATOM     11  H   UNL     1       5.381  -4.199  27.912  0.00  0.00    +0.255 HD
ATOM     12  N   UNL     1       7.867  -5.893  27.169  0.00  0.00    -0.289 N 
ATOM     13  H   UNL     1       8.208  -5.970  28.120  0.00  0.00    +0.255 HD
ATOM     14  H   UNL     1       8.623  -5.950  26.504  0.00  0.00    +0.255 HD
ENDBRANCH   2   7
BRANCH   1  17
ATOM     15  C   UNL     1       6.763   0.176  26.723  0.00  0.00    +0.109 C 
ATOM     16  C   UNL     1       7.782  -0.585  25.930  0.00  0.00    +0.210 C 
ATOM     17  N   UNL     1       7.269  -1.661  25.254  0.00  0.00    -0.305 N 
ATOM     18  H   UNL     1       6.305  -1.952  25.400  0.00  0.00    +0.149 HD
ATOM     19  O   UNL     1       8.964  -0.260  25.874  0.00  0.00    -0.276 OA
ENDBRANCH   1  17
BRANCH   4  20
ATOM     20  C   UNL     1       6.349  -5.247  21.484  0.00  0.00    +0.372 C 
ATOM     21  O   UNL     1       5.913  -4.863  20.411  0.00  0.00    -0.242 OA
BRANCH  20  22
ATOM     22  O   UNL     1       6.292  -6.532  21.906  0.00  0.00    -0.475 OA
ATOM     23  H   UNL     1       7.141  -6.806  22.324  0.00  0.00    +0.296 HD
ENDBRANCH  20  22
ENDBRANCH   4  20
BRANCH   6  24
ATOM     24  C   UNL     1       9.553  -2.051  22.467  0.00  0.00    +0.187 C 
BRANCH  24  25
ATOM     25  O   UNL     1      10.545  -2.699  23.264  0.00  0.00    -0.385 OA
ATOM     26  H   UNL     1      10.730  -3.595  22.890  0.00  0.00    +0.210 HD
ENDBRANCH  24  25
BRANCH  24  27
ATOM     27  C   UNL     1       9.879  -0.543  22.348  0.00  0.00    +0.172 C 
BRANCH  27  28
ATOM     28  O   UNL     1      10.549  -0.053  23.527  0.00  0.00    -0.387 OA
ATOM     29  H   UNL     1      11.402  -0.522  23.593  0.00  0.00    +0.210 HD
ENDBRANCH  27  28
BRANCH  27  30
ATOM     30  C   UNL     1       8.624   0.314  22.130  0.00  0.00    +0.189 C 
BRANCH  30  31
ATOM     31  O   UNL     1       8.848   1.223  21.050  0.00  0.00    -0.392 OA
ATOM     32  H   UNL     1       8.107   1.860  21.069  0.00  0.00    +0.210 HD
ENDBRANCH  30  31
ENDBRANCH  27  30
ENDBRANCH  24  27
ENDBRANCH   6  24
TORSDOF 10
ENDMDL
MODEL 3
REMARK VINA RESULT:      -5.7      4.500      7.531
REMARK  Name = 
REMARK  11 active torsions:
REMARK  status: ('A' for Active; 'I' for Inactive)
REMARK    1  A    between atoms: C_1  and  C_2
REMARK    2  A    between atoms: N_4  and  C_5
REMARK    3  A    between atoms: C_6  and  C_19
REMARK    4  A    between atoms: C_9  and  C_16
REMARK    5  A    between atoms: C_11  and  N_12
REMARK    6  A    between atoms: C_16  and  O_18
REMARK    7  A    between atoms: C_19  and  C_20
REMARK    8  A    between atoms: C_19  and  O_24
REMARK    9  A    between atoms: C_20  and  C_21
REMARK   10  A    between atoms: C_20  and  O_23
REMARK   11  A    between atoms: C_21  and  O_22
REMARK                            x       y       z     vdW  Elec       q    Type
REMARK                         _______ _______ _______ _____ _____    ______ ____
ROOT
ATOM      1  C   UNL     1       5.844  -5.572  24.947  0.00  0.00    +0.160 C 
ATOM      2  C   UNL     1       7.107  -5.474  25.852  0.00  0.00    +0.238 C 
ATOM      3  C   UNL     1       6.807  -5.251  27.290  0.00  0.00    +0.071 C 
ATOM      4  C   UNL     1       5.577  -5.302  27.807  0.00  0.00    +0.204 C 
ATOM      5  O   UNL     1       4.445  -5.524  27.085  0.00  0.00    -0.477 OA
ATOM      6  C   UNL     1       4.501  -5.812  25.689  0.00  0.00    +0.229 C 
ENDROOT
BRANCH   2   7
ATOM      7  N   UNL     1       7.947  -4.356  25.395  0.00  0.00    -0.104 NA
ATOM      8  C   UNL     1       9.201  -4.531  25.213  0.00  0.00    +0.377 C 
ATOM      9  N   UNL     1       9.928  -3.532  24.669  0.00  0.00    -0.289 N 
ATOM     10  H   UNL     1      10.850  -3.430  25.075  0.00  0.00    +0.255 HD
ATOM     11  H   UNL     1       9.419  -2.653  24.696  0.00  0.00    +0.255 HD
ATOM     12  N   UNL     1       9.979  -5.613  25.423  0.00  0.00    -0.289 N 
ATOM     13  H   UNL     1      10.686  -5.746  24.709  0.00  0.00    +0.255 HD
ATOM     14  H   UNL     1       9.515  -6.481  25.644  0.00  0.00    +0.255 HD
ENDBRANCH   2   7
BRANCH   1  17
ATOM     15  C   UNL     1       5.499  -3.181  21.999  0.00  0.00    +0.109 C 
ATOM     16  C   UNL     1       5.407  -4.483  22.735  0.00  0.00    +0.210 C 
ATOM     17  N   UNL     1       5.729  -4.394  24.064  0.00  0.00    -0.305 N 
ATOM     18  H   UNL     1       6.105  -3.529  24.447  0.00  0.00    +0.149 HD
ATOM     19  O   UNL     1       5.056  -5.531  22.200  0.00  0.00    -0.276 OA
ENDBRANCH   1  17
BRANCH   4  20
ATOM     20  C   UNL     1       5.395  -5.142  29.284  0.00  0.00    +0.372 C 
ATOM     21  O   UNL     1       4.571  -4.423  29.825  0.00  0.00    -0.242 OA
BRANCH  20  22
ATOM     22  O   UNL     1       6.317  -5.871  29.954  0.00  0.00    -0.475 OA
ATOM     23  H   UNL     1       7.061  -5.304  30.263  0.00  0.00    +0.296 HD
ENDBRANCH  20  22
ENDBRANCH   4  20
BRANCH   6  24
ATOM     24  C   UNL     1       3.927  -7.230  25.420  0.00  0.00    +0.187 C 
BRANCH  24  25
ATOM     25  O   UNL     1       4.068  -7.617  24.053  0.00  0.00    -0.385 OA
ATOM     26  H   UNL     1       5.023  -7.587  23.802  0.00  0.00    +0.210 HD
ENDBRANCH  24  25
BRANCH  24  27
ATOM     27  C   UNL     1       2.443  -7.344  25.846  0.00  0.00    +0.172 C 
BRANCH  27  28
ATOM     28  O   UNL     1       2.318  -7.613  27.258  0.00  0.00    -0.387 OA
ATOM     29  H   UNL     1       1.694  -6.958  27.624  0.00  0.00    +0.210 HD
ENDBRANCH  27  28
BRANCH  27  30
ATOM     30  C   UNL     1       1.698  -8.453  25.090  0.00  0.00    +0.189 C 
BRANCH  30  31
ATOM     31  O   UNL     1       2.359  -9.703  25.301  0.00  0.00    -0.392 OA
ATOM     32  H   UNL     1       3.210  -9.494  25.731  0.00  0.00    +0.210 HD
ENDBRANCH  30  31
ENDBRANCH  27  30
ENDBRANCH  24  27
ENDBRANCH   6  24
TORSDOF 10
ENDMDL
MODEL 4
REMARK VINA RESULT:      -5.7      2.798      4.987
REMARK  Name = 
REMARK  11 active torsions:
REMARK  status: ('A' for Active; 'I' for Inactive)
REMARK    1  A    between atoms: C_1  and  C_2
REMARK    2  A    between atoms: N_4  and  C_5
REMARK    3  A    between atoms: C_6  and  C_19
REMARK    4  A    between atoms: C_9  and  C_16
REMARK    5  A    between atoms: C_11  and  N_12
REMARK    6  A    between atoms: C_16  and  O_18
REMARK    7  A    between atoms: C_19  and  C_20
REMARK    8  A    between atoms: C_19  and  O_24
REMARK    9  A    between atoms: C_20  and  C_21
REMARK   10  A    between atoms: C_20  and  O_23
REMARK   11  A    between atoms: C_21  and  O_22
REMARK                            x       y       z     vdW  Elec       q    Type
REMARK                         _______ _______ _______ _____ _____    ______ ____
ROOT
ATOM      1  C   UNL     1       8.375  -2.067  24.445  0.00  0.00    +0.160 C 
ATOM      2  C   UNL     1       7.107  -1.746  23.601  0.00  0.00    +0.238 C 
ATOM      3  C   UNL     1       6.735  -2.813  22.634  0.00  0.00    +0.071 C 
ATOM      4  C   UNL     1       7.315  -4.015  22.599  0.00  0.00    +0.204 C 
ATOM      5  O   UNL     1       8.337  -4.404  23.409  0.00  0.00    -0.477 OA
ATOM      6  C   UNL     1       8.824  -3.555  24.447  0.00  0.00    +0.229 C 
ENDROOT
BRANCH   2   7
ATOM      7  N   UNL     1       7.334  -0.512  22.834  0.00  0.00    -0.104 NA
ATOM      8  C   UNL     1       6.713   0.560  23.150  0.00  0.00    +0.377 C 
ATOM      9  N   UNL     1       7.032   1.711  22.520  0.00  0.00    -0.289 N 
ATOM     10  H   UNL     1       6.235   2.302  22.318  0.00  0.00    +0.255 HD
ATOM     11  H   UNL     1       7.573   1.529  21.680  0.00  0.00    +0.255 HD
ATOM     12  N   UNL     1       5.776   0.790  24.094  0.00  0.00    -0.289 N 
ATOM     13  H   UNL     1       5.883   1.684  24.560  0.00  0.00    +0.255 HD
ATOM     14  H   UNL     1       5.596   0.052  24.757  0.00  0.00    +0.255 HD
ENDBRANCH   2   7
BRANCH   1  17
ATOM     15  C   UNL     1      11.050   0.639  24.220  0.00  0.00    +0.109 C 
ATOM     16  C   UNL     1      10.008  -0.219  24.874  0.00  0.00    +0.210 C 
ATOM     17  N   UNL     1       9.506  -1.199  24.059  0.00  0.00    -0.305 N 
ATOM     18  H   UNL     1       9.757  -1.232  23.073  0.00  0.00    +0.149 HD
ATOM     19  O   UNL     1       9.654  -0.069  26.039  0.00  0.00    -0.276 OA
ENDBRANCH   1  17
BRANCH   4  20
ATOM     20  C   UNL     1       6.809  -5.045  21.638  0.00  0.00    +0.372 C 
ATOM     21  O   UNL     1       7.240  -6.180  21.521  0.00  0.00    -0.242 OA
BRANCH  20  22
ATOM     22  O   UNL     1       5.828  -4.525  20.863  0.00  0.00    -0.475 OA
ATOM     23  H   UNL     1       5.954  -4.773  19.918  0.00  0.00    +0.296 HD
ENDBRANCH  20  22
ENDBRANCH   4  20
BRANCH   6  24
ATOM     24  C   UNL     1       8.607  -4.232  25.828  0.00  0.00    +0.187 C 
BRANCH  24  25
ATOM     25  O   UNL     1       9.232  -5.514  25.903  0.00  0.00    -0.385 OA
ATOM     26  H   UNL     1       8.764  -6.141  25.301  0.00  0.00    +0.210 HD
ENDBRANCH  24  25
BRANCH  24  27
ATOM     27  C   UNL     1       7.105  -4.360  26.179  0.00  0.00    +0.172 C 
BRANCH  27  28
ATOM     28  O   UNL     1       6.708  -3.384  27.164  0.00  0.00    -0.387 OA
ATOM     29  H   UNL     1       6.599  -2.532  26.701  0.00  0.00    +0.210 HD
ENDBRANCH  27  28
BRANCH  27  30
ATOM     30  C   UNL     1       6.745  -5.749  26.723  0.00  0.00    +0.189 C 
BRANCH  30  31
ATOM     31  O   UNL     1       7.495  -6.006  27.914  0.00  0.00    -0.392 OA
ATOM     32  H   UNL     1       8.200  -6.634  27.664  0.00  0.00    +0.210 HD
ENDBRANCH  30  31
ENDBRANCH  27  30
ENDBRANCH  24  27
ENDBRANCH   6  24
TORSDOF 10
ENDMDL
MODEL 5
REMARK VINA RESULT:      -5.5      2.070      5.496
REMARK  Name = 
REMARK  11 active torsions:
REMARK  status: ('A' for Active; 'I' for Inactive)
REMARK    1  A    between atoms: C_1  and  C_2
REMARK    2  A    between atoms: N_4  and  C_5
REMARK    3  A    between atoms: C_6  and  C_19
REMARK    4  A    between atoms: C_9  and  C_16
REMARK    5  A    between atoms: C_11  and  N_12
REMARK    6  A    between atoms: C_16  and  O_18
REMARK    7  A    between atoms: C_19  and  C_20
REMARK    8  A    between atoms: C_19  and  O_24
REMARK    9  A    between atoms: C_20  and  C_21
REMARK   10  A    between atoms: C_20  and  O_23
REMARK   11  A    between atoms: C_21  and  O_22
REMARK                            x       y       z     vdW  Elec       q    Type
REMARK                         _______ _______ _______ _____ _____    ______ ____
ROOT
ATOM      1  C   UNL     1       6.439  -2.793  24.085  0.00  0.00    +0.160 C 
ATOM      2  C   UNL     1       6.562  -1.247  24.230  0.00  0.00    +0.238 C 
ATOM      3  C   UNL     1       7.667  -0.649  23.437  0.00  0.00    +0.071 C 
ATOM      4  C   UNL     1       8.387  -1.328  22.540  0.00  0.00    +0.204 C 
ATOM      5  O   UNL     1       8.231  -2.652  22.267  0.00  0.00    -0.477 OA
ATOM      6  C   UNL     1       7.194  -3.418  22.880  0.00  0.00    +0.229 C 
ENDROOT
BRANCH   2   7
ATOM      7  N   UNL     1       6.796  -0.910  25.643  0.00  0.00    -0.104 NA
ATOM      8  C   UNL     1       6.103   0.005  26.205  0.00  0.00    +0.377 C 
ATOM      9  N   UNL     1       6.242   0.209  27.533  0.00  0.00    -0.289 N 
ATOM     10  H   UNL     1       6.213   1.184  27.802  0.00  0.00    +0.255 HD
ATOM     11  H   UNL     1       7.081  -0.242  27.885  0.00  0.00    +0.255 HD
ATOM     12  N   UNL     1       5.155   0.825  25.705  0.00  0.00    -0.289 N 
ATOM     13  H   UNL     1       4.382   0.984  26.341  0.00  0.00    +0.255 HD
ATOM     14  H   UNL     1       4.826   0.637  24.771  0.00  0.00    +0.255 HD
ENDBRANCH   2   7
BRANCH   1  17
ATOM     15  C   UNL     1       6.637  -5.017  27.174  0.00  0.00    +0.109 C 
ATOM     16  C   UNL     1       6.173  -4.581  25.816  0.00  0.00    +0.210 C 
ATOM     17  N   UNL     1       6.827  -3.478  25.334  0.00  0.00    -0.305 N 
ATOM     18  H   UNL     1       7.476  -2.963  25.924  0.00  0.00    +0.149 HD
ATOM     19  O   UNL     1       5.301  -5.172  25.186  0.00  0.00    -0.276 OA
ENDBRANCH   1  17
BRANCH   4  20
ATOM     20  C   UNL     1       9.425  -0.608  21.737  0.00  0.00    +0.372 C 
ATOM     21  O   UNL     1       9.335   0.535  21.320  0.00  0.00    -0.242 OA
BRANCH  20  22
ATOM     22  O   UNL     1      10.473  -1.426  21.481  0.00  0.00    -0.475 OA
ATOM     23  H   UNL     1      10.564  -2.114  22.180  0.00  0.00    +0.296 HD
ENDBRANCH  20  22
ENDBRANCH   4  20
BRANCH   6  24
ATOM     24  C   UNL     1       6.224  -3.954  21.793  0.00  0.00    +0.187 C 
BRANCH  24  25
ATOM     25  O   UNL     1       4.890  -4.094  22.284  0.00  0.00    -0.385 OA
ATOM     26  H   UNL     1       4.280  -4.267  21.527  0.00  0.00    +0.210 HD
ENDBRANCH  24  25
BRANCH  24  27
ATOM     27  C   UNL     1       6.707  -5.299  21.198  0.00  0.00    +0.172 C 
BRANCH  27  28
ATOM     28  O   UNL     1       5.880  -5.715  20.091  0.00  0.00    -0.387 OA
ATOM     29  H   UNL     1       5.136  -6.227  20.461  0.00  0.00    +0.210 HD
ENDBRANCH  27  28
BRANCH  27  30
ATOM     30  C   UNL     1       6.709  -6.432  22.234  0.00  0.00    +0.189 C 
BRANCH  30  31
ATOM     31  O   UNL     1       5.364  -6.746  22.603  0.00  0.00    -0.392 OA
ATOM     32  H   UNL     1       5.304  -6.601  23.567  0.00  0.00    +0.210 HD
ENDBRANCH  30  31
ENDBRANCH  27  30
ENDBRANCH  24  27
ENDBRANCH   6  24
TORSDOF 10
ENDMDL
MODEL 6
REMARK VINA RESULT:      -5.3      2.376      3.012
REMARK  Name = 
REMARK  11 active torsions:
REMARK  status: ('A' for Active; 'I' for Inactive)
REMARK    1  A    between atoms: C_1  and  C_2
REMARK    2  A    between atoms: N_4  and  C_5
REMARK    3  A    between atoms: C_6  and  C_19
REMARK    4  A    between atoms: C_9  and  C_16
REMARK    5  A    between atoms: C_11  and  N_12
REMARK    6  A    between atoms: C_16  and  O_18
REMARK    7  A    between atoms: C_19  and  C_20
REMARK    8  A    between atoms: C_19  and  O_24
REMARK    9  A    between atoms: C_20  and  C_21
REMARK   10  A    between atoms: C_20  and  O_23
REMARK   11  A    between atoms: C_21  and  O_22
REMARK                            x       y       z     vdW  Elec       q    Type
REMARK                         _______ _______ _______ _____ _____    ______ ____
ROOT
ATOM      1  C   UNL     1       7.247  -1.217  23.888  0.00  0.00    +0.160 C 
ATOM      2  C   UNL     1       6.491  -2.387  24.582  0.00  0.00    +0.238 C 
ATOM      3  C   UNL     1       6.317  -3.590  23.726  0.00  0.00    +0.071 C 
ATOM      4  C   UNL     1       6.899  -3.741  22.533  0.00  0.00    +0.204 C 
ATOM      5  O   UNL     1       7.688  -2.807  21.935  0.00  0.00    -0.477 OA
ATOM      6  C   UNL     1       8.030  -1.591  22.599  0.00  0.00    +0.229 C 
ENDROOT
BRANCH   2   7
ATOM      7  N   UNL     1       5.151  -1.930  24.982  0.00  0.00    -0.104 NA
ATOM      8  C   UNL     1       4.697  -2.219  26.142  0.00  0.00    +0.377 C 
ATOM      9  N   UNL     1       3.524  -1.681  26.538  0.00  0.00    -0.289 N 
ATOM     10  H   UNL     1       2.941  -2.315  27.070  0.00  0.00    +0.255 HD
ATOM     11  H   UNL     1       3.015  -1.294  25.749  0.00  0.00    +0.255 HD
ATOM     12  N   UNL     1       5.227  -2.963  27.135  0.00  0.00    -0.289 N 
ATOM     13  H   UNL     1       5.058  -2.582  28.060  0.00  0.00    +0.255 HD
ATOM     14  H   UNL     1       6.186  -3.258  27.032  0.00  0.00    +0.255 HD
ENDBRANCH   2   7
BRANCH   1  17
ATOM     15  C   UNL     1       5.464   2.151  23.790  0.00  0.00    +0.109 C 
ATOM     16  C   UNL     1       6.590   1.194  24.043  0.00  0.00    +0.210 C 
ATOM     17  N   UNL     1       6.340  -0.083  23.616  0.00  0.00    -0.305 N 
ATOM     18  H   UNL     1       5.418  -0.343  23.273  0.00  0.00    +0.149 HD
ATOM     19  O   UNL     1       7.648   1.531  24.566  0.00  0.00    -0.276 OA
ENDBRANCH   1  17
BRANCH   4  20
ATOM     20  C   UNL     1       6.723  -5.027  21.789  0.00  0.00    +0.372 C 
ATOM     21  O   UNL     1       7.321  -6.066  22.013  0.00  0.00    -0.242 OA
BRANCH  20  22
ATOM     22  O   UNL     1       5.835  -4.869  20.779  0.00  0.00    -0.475 OA
ATOM     23  H   UNL     1       6.159  -5.296  19.953  0.00  0.00    +0.296 HD
ENDBRANCH  20  22
ENDBRANCH   4  20
BRANCH   6  24
ATOM     24  C   UNL     1       9.568  -1.517  22.804  0.00  0.00    +0.187 C 
BRANCH  24  25
ATOM     25  O   UNL     1       9.955  -1.918  24.119  0.00  0.00    -0.385 OA
ATOM     26  H   UNL     1      10.571  -2.687  24.057  0.00  0.00    +0.210 HD
ENDBRANCH  24  25
BRANCH  24  27
ATOM     27  C   UNL     1      10.125  -0.105  22.501  0.00  0.00    +0.172 C 
BRANCH  27  28
ATOM     28  O   UNL     1      10.212   0.696  23.697  0.00  0.00    -0.387 OA
ATOM     29  H   UNL     1       9.528   1.389  23.633  0.00  0.00    +0.210 HD
ENDBRANCH  27  28
BRANCH  27  30
ATOM     30  C   UNL     1       9.266   0.660  21.484  0.00  0.00    +0.189 C 
BRANCH  30  31
ATOM     31  O   UNL     1       9.693   2.023  21.428  0.00  0.00    -0.392 OA
ATOM     32  H   UNL     1       8.885   2.567  21.509  0.00  0.00    +0.210 HD
ENDBRANCH  30  31
ENDBRANCH  27  30
ENDBRANCH  24  27
ENDBRANCH   6  24
TORSDOF 10
ENDMDL
MODEL 7
REMARK VINA RESULT:      -5.3      3.132      5.341
REMARK  Name = 
REMARK  11 active torsions:
REMARK  status: ('A' for Active; 'I' for Inactive)
REMARK    1  A    between atoms: C_1  and  C_2
REMARK    2  A    between atoms: N_4  and  C_5
REMARK    3  A    between atoms: C_6  and  C_19
REMARK    4  A    between atoms: C_9  and  C_16
REMARK    5  A    between atoms: C_11  and  N_12
REMARK    6  A    between atoms: C_16  and  O_18
REMARK    7  A    between atoms: C_19  and  C_20
REMARK    8  A    between atoms: C_19  and  O_24
REMARK    9  A    between atoms: C_20  and  C_21
REMARK   10  A    between atoms: C_20  and  O_23
REMARK   11  A    between atoms: C_21  and  O_22
REMARK                            x       y       z     vdW  Elec       q    Type
REMARK                         _______ _______ _______ _____ _____    ______ ____
ROOT
ATOM      1  C   UNL     1       8.011  -2.011  24.136  0.00  0.00    +0.160 C 
ATOM      2  C   UNL     1       7.565  -1.196  25.386  0.00  0.00    +0.238 C 
ATOM      3  C   UNL     1       6.153  -1.427  25.790  0.00  0.00    +0.071 C 
ATOM      4  C   UNL     1       5.375  -2.371  25.255  0.00  0.00    +0.204 C 
ATOM      5  O   UNL     1       5.756  -3.210  24.253  0.00  0.00    -0.477 OA
ATOM      6  C   UNL     1       7.088  -3.198  23.743  0.00  0.00    +0.229 C 
ENDROOT
BRANCH   2   7
ATOM      7  N   UNL     1       7.717   0.241  25.108  0.00  0.00    -0.104 NA
ATOM      8  C   UNL     1       8.847   0.811  25.292  0.00  0.00    +0.377 C 
ATOM      9  N   UNL     1       9.002   2.096  24.908  0.00  0.00    -0.289 N 
ATOM     10  H   UNL     1       9.561   2.649  25.545  0.00  0.00    +0.255 HD
ATOM     11  H   UNL     1       8.102   2.536  24.736  0.00  0.00    +0.255 HD
ATOM     12  N   UNL     1      10.009   0.327  25.778  0.00  0.00    -0.289 N 
ATOM     13  H   UNL     1      10.828   0.684  25.297  0.00  0.00    +0.255 HD
ATOM     14  H   UNL     1      10.074  -0.669  25.917  0.00  0.00    +0.255 HD
ENDBRANCH   2   7
BRANCH   1  17
ATOM     15  C   UNL     1       9.438  -0.025  21.213  0.00  0.00    +0.109 C 
ATOM     16  C   UNL     1       9.388  -1.103  22.253  0.00  0.00    +0.210 C 
ATOM     17  N   UNL     1       8.222  -1.128  22.972  0.00  0.00    -0.305 N 
ATOM     18  H   UNL     1       7.529  -0.391  22.859  0.00  0.00    +0.149 HD
ATOM     19  O   UNL     1      10.301  -1.904  22.430  0.00  0.00    -0.276 OA
ENDBRANCH   1  17
BRANCH   4  20
ATOM     20  C   UNL     1       3.992  -2.572  25.792  0.00  0.00    +0.372 C 
ATOM     21  O   UNL     1       3.345  -3.604  25.719  0.00  0.00    -0.242 OA
BRANCH  20  22
ATOM     22  O   UNL     1       3.524  -1.422  26.330  0.00  0.00    -0.475 OA
ATOM     23  H   UNL     1       3.488  -1.481  27.313  0.00  0.00    +0.296 HD
ENDBRANCH  20  22
ENDBRANCH   4  20
BRANCH   6  24
ATOM     24  C   UNL     1       7.762  -4.574  23.995  0.00  0.00    +0.187 C 
BRANCH  24  25
ATOM     25  O   UNL     1       6.818  -5.572  24.384  0.00  0.00    -0.385 OA
ATOM     26  H   UNL     1       6.998  -5.846  25.316  0.00  0.00    +0.210 HD
ENDBRANCH  24  25
BRANCH  24  27
ATOM     27  C   UNL     1       8.891  -4.481  25.049  0.00  0.00    +0.172 C 
BRANCH  27  28
ATOM     28  O   UNL     1       9.900  -5.489  24.833  0.00  0.00    -0.387 OA
ATOM     29  H   UNL     1       9.536  -6.132  24.197  0.00  0.00    +0.210 HD
ENDBRANCH  27  28
BRANCH  27  30
ATOM     30  C   UNL     1       8.370  -4.638  26.484  0.00  0.00    +0.189 C 
BRANCH  30  31
ATOM     31  O   UNL     1       8.301  -6.026  26.819  0.00  0.00    -0.392 OA
ATOM     32  H   UNL     1       9.222  -6.352  26.826  0.00  0.00    +0.210 HD
ENDBRANCH  30  31
ENDBRANCH  27  30
ENDBRANCH  24  27
ENDBRANCH   6  24
TORSDOF 10
ENDMDL
MODEL 8
REMARK VINA RESULT:      -5.2      2.407      4.443
REMARK  Name = 
REMARK  11 active torsions:
REMARK  status: ('A' for Active; 'I' for Inactive)
REMARK    1  A    between atoms: C_1  and  C_2
REMARK    2  A    between atoms: N_4  and  C_5
REMARK    3  A    between atoms: C_6  and  C_19
REMARK    4  A    between atoms: C_9  and  C_16
REMARK    5  A    between atoms: C_11  and  N_12
REMARK    6  A    between atoms: C_16  and  O_18
REMARK    7  A    between atoms: C_19  and  C_20
REMARK    8  A    between atoms: C_19  and  O_24
REMARK    9  A    between atoms: C_20  and  C_21
REMARK   10  A    between atoms: C_20  and  O_23
REMARK   11  A    between atoms: C_21  and  O_22
REMARK                            x       y       z     vdW  Elec       q    Type
REMARK                         _______ _______ _______ _____ _____    ______ ____
ROOT
ATOM      1  C   UNL     1       7.010  -2.978  24.562  0.00  0.00    +0.160 C 
ATOM      2  C   UNL     1       8.557  -3.138  24.638  0.00  0.00    +0.238 C 
ATOM      3  C   UNL     1       9.297  -2.386  23.592  0.00  0.00    +0.071 C 
ATOM      4  C   UNL     1       8.724  -1.509  22.763  0.00  0.00    +0.204 C 
ATOM      5  O   UNL     1       7.393  -1.222  22.744  0.00  0.00    -0.477 OA
ATOM      6  C   UNL     1       6.497  -1.794  23.695  0.00  0.00    +0.229 C 
ENDROOT
BRANCH   2   7
ATOM      7  N   UNL     1       8.904  -4.560  24.493  0.00  0.00    -0.104 NA
ATOM      8  C   UNL     1       9.344  -5.217  25.499  0.00  0.00    +0.377 C 
ATOM      9  N   UNL     1       9.533  -6.548  25.379  0.00  0.00    -0.289 N 
ATOM     10  H   UNL     1      10.359  -6.889  25.854  0.00  0.00    +0.255 HD
ATOM     11  H   UNL     1       9.531  -6.831  24.403  0.00  0.00    +0.255 HD
ATOM     12  N   UNL     1       9.621  -4.818  26.757  0.00  0.00    -0.289 N 
ATOM     13  H   UNL     1       9.357  -5.497  27.463  0.00  0.00    +0.255 HD
ATOM     14  H   UNL     1       9.336  -3.888  27.022  0.00  0.00    +0.255 HD
ENDBRANCH   2   7
BRANCH   1  17
ATOM     15  C   UNL     1       5.048  -6.238  24.335  0.00  0.00    +0.109 C 
ATOM     16  C   UNL     1       5.456  -4.911  24.901  0.00  0.00    +0.210 C 
ATOM     17  N   UNL     1       6.364  -4.234  24.131  0.00  0.00    -0.305 N 
ATOM     18  H   UNL     1       6.786  -4.679  23.318  0.00  0.00    +0.149 HD
ATOM     19  O   UNL     1       5.001  -4.463  25.950  0.00  0.00    -0.276 OA
ENDBRANCH   1  17
BRANCH   4  20
ATOM     20  C   UNL     1       9.576  -0.746  21.799  0.00  0.00    +0.372 C 
ATOM     21  O   UNL     1       9.279   0.313  21.271  0.00  0.00    -0.242 OA
BRANCH  20  22
ATOM     22  O   UNL     1      10.720  -1.423  21.543  0.00  0.00    -0.475 OA
ATOM     23  H   UNL     1      10.578  -2.108  20.850  0.00  0.00    +0.296 HD
ENDBRANCH  20  22
ENDBRANCH   4  20
BRANCH   6  24
ATOM     24  C   UNL     1       5.856  -0.672  24.556  0.00  0.00    +0.187 C 
BRANCH  24  25
ATOM     25  O   UNL     1       6.726   0.450  24.712  0.00  0.00    -0.385 OA
ATOM     26  H   UNL     1       7.493   0.356  24.098  0.00  0.00    +0.210 HD
ENDBRANCH  24  25
BRANCH  24  27
ATOM     27  C   UNL     1       5.412  -1.189  25.945  0.00  0.00    +0.172 C 
BRANCH  27  28
ATOM     28  O   UNL     1       4.034  -1.614  25.935  0.00  0.00    -0.387 OA
ATOM     29  H   UNL     1       3.797  -1.852  26.851  0.00  0.00    +0.210 HD
ENDBRANCH  27  28
BRANCH  27  30
ATOM     30  C   UNL     1       5.569  -0.130  27.045  0.00  0.00    +0.189 C 
BRANCH  30  31
ATOM     31  O   UNL     1       6.914  -0.140  27.529  0.00  0.00    -0.392 OA
ATOM     32  H   UNL     1       6.931  -0.766  28.279  0.00  0.00    +0.210 HD
ENDBRANCH  30  31
ENDBRANCH  27  30
ENDBRANCH  24  27
ENDBRANCH   6  24
TORSDOF 10
ENDMDL
MODEL 9
REMARK VINA RESULT:      -5.1      3.421      4.532
REMARK  Name = 
REMARK  11 active torsions:
REMARK  status: ('A' for Active; 'I' for Inactive)
REMARK    1  A    between atoms: C_1  and  C_2
REMARK    2  A    between atoms: N_4  and  C_5
REMARK    3  A    between atoms: C_6  and  C_19
REMARK    4  A    between atoms: C_9  and  C_16
REMARK    5  A    between atoms: C_11  and  N_12
REMARK    6  A    between atoms: C_16  and  O_18
REMARK    7  A    between atoms: C_19  and  C_20
REMARK    8  A    between atoms: C_19  and  O_24
REMARK    9  A    between atoms: C_20  and  C_21
REMARK   10  A    between atoms: C_20  and  O_23
REMARK   11  A    between atoms: C_21  and  O_22
REMARK                            x       y       z     vdW  Elec       q    Type
REMARK                         _______ _______ _______ _____ _____    ______ ____
ROOT
ATOM      1  C   UNL     1       8.287   0.397  25.075  0.00  0.00    +0.160 C 
ATOM      2  C   UNL     1       8.221  -0.303  26.463  0.00  0.00    +0.238 C 
ATOM      3  C   UNL     1       8.444  -1.772  26.414  0.00  0.00    +0.071 C 
ATOM      4  C   UNL     1       8.839  -2.425  25.318  0.00  0.00    +0.204 C 
ATOM      5  O   UNL     1       9.050  -1.842  24.106  0.00  0.00    -0.477 OA
ATOM      6  C   UNL     1       8.941  -0.430  23.933  0.00  0.00    +0.229 C 
ENDROOT
BRANCH   2   7
ATOM      7  N   UNL     1       6.896  -0.075  27.059  0.00  0.00    -0.104 NA
ATOM      8  C   UNL     1       6.788   0.601  28.139  0.00  0.00    +0.377 C 
ATOM      9  N   UNL     1       5.557   0.911  28.598  0.00  0.00    -0.289 N 
ATOM     10  H   UNL     1       5.471   0.862  29.605  0.00  0.00    +0.255 HD
ATOM     11  H   UNL     1       4.846   0.344  28.145  0.00  0.00    +0.255 HD
ATOM     12  N   UNL     1       7.732   1.151  28.932  0.00  0.00    -0.289 N 
ATOM     13  H   UNL     1       7.472   2.059  29.300  0.00  0.00    +0.255 HD
ATOM     14  H   UNL     1       8.680   1.154  28.590  0.00  0.00    +0.255 HD
ENDBRANCH   2   7
BRANCH   1  17
ATOM     15  C   UNL     1       5.290   2.437  23.897  0.00  0.00    +0.109 C 
ATOM     16  C   UNL     1       6.738   2.109  24.106  0.00  0.00    +0.210 C 
ATOM     17  N   UNL     1       6.953   0.871  24.653  0.00  0.00    -0.305 N 
ATOM     18  H   UNL     1       6.172   0.308  24.982  0.00  0.00    +0.149 HD
ATOM     19  O   UNL     1       7.648   2.871  23.795  0.00  0.00    -0.276 OA
ENDBRANCH   1  17
BRANCH   4  20
ATOM     20  C   UNL     1       9.112  -3.894  25.398  0.00  0.00    +0.372 C 
ATOM     21  O   UNL     1       9.516  -4.593  24.483  0.00  0.00    -0.242 OA
BRANCH  20  22
ATOM     22  O   UNL     1       8.795  -4.366  26.627  0.00  0.00    -0.475 OA
ATOM     23  H   UNL     1       8.821  -5.351  26.645  0.00  0.00    +0.296 HD
ENDBRANCH  20  22
ENDBRANCH   4  20
BRANCH   6  24
ATOM     24  C   UNL     1      10.312   0.155  23.496  0.00  0.00    +0.187 C 
BRANCH  24  25
ATOM     25  O   UNL     1      10.911   0.947  24.523  0.00  0.00    -0.385 OA
ATOM     26  H   UNL     1      11.572   1.559  24.118  0.00  0.00    +0.210 HD
ENDBRANCH  24  25
BRANCH  24  27
ATOM     27  C   UNL     1      10.199   0.982  22.193  0.00  0.00    +0.172 C 
BRANCH  27  28
ATOM     28  O   UNL     1      10.140   2.396  22.469  0.00  0.00    -0.387 OA
ATOM     29  H   UNL     1      10.483   2.860  21.682  0.00  0.00    +0.210 HD
ENDBRANCH  27  28
BRANCH  27  30
ATOM     30  C   UNL     1       8.960   0.611  21.367  0.00  0.00    +0.189 C 
BRANCH  30  31
ATOM     31  O   UNL     1       8.253   1.801  21.006  0.00  0.00    -0.392 OA
ATOM     32  H   UNL     1       8.242   2.366  21.803  0.00  0.00    +0.210 HD
ENDBRANCH  30  31
ENDBRANCH  27  30
ENDBRANCH  24  27
ENDBRANCH   6  24
TORSDOF 10
ENDMDL
