MODEL 1
REMARK VINA RESULT:      -6.0      0.000      0.000
REMARK  Name = 
REMARK  6 active torsions:
REMARK  status: ('A' for Active; 'I' for Inactive)
REMARK    1  A    between atoms: C_3  and  C_18
REMARK    2  A    between atoms: N_5  and  C1*_6
REMARK    3  A    between atoms: C2*_8  and  O2*_17
REMARK    4  A    between atoms: C3*_9  and  O3*_16
REMARK    5  A    between atoms: C4*_11  and  C5*_14
REMARK    6  A    between atoms: C5*_14  and  O5*_15
REMARK                            x       y       z     vdW  Elec       q    Type
REMARK                         _______ _______ _______ _____ _____    ______ ____
ROOT
ATOM      1  C1* UNL     1       9.150  -0.626  23.523  0.00  0.00    +0.270 C 
ATOM      2  O4* UNL     1       8.045   0.308  23.619  0.00  0.00    -0.344 OA
ATOM      3  C4* UNL     1       8.525   1.589  23.136  0.00  0.00    +0.177 C 
ATOM      4  C3* UNL     1       9.962   1.367  22.637  0.00  0.00    +0.178 C 
ATOM      5  C2* UNL     1      10.014  -0.134  22.366  0.00  0.00    +0.196 C 
ENDROOT
BRANCH   1   7
ATOM      6  C   UNL     1       9.130  -3.099  24.043  0.00  0.00    +0.223 A 
ATOM      7  N   UNL     1       8.668  -1.986  23.414  0.00  0.00    -0.220 N 
ATOM      8  N   UNL     1       7.703  -2.295  22.523  0.00  0.00    -0.142 NA
ATOM      9  C   UNL     1       7.619  -3.632  22.650  0.00  0.00    +0.236 A 
ATOM     10  N   UNL     1       8.497  -4.156  23.594  0.00  0.00    -0.211 NA
BRANCH   9  11
ATOM     11  C   UNL     1       6.710  -4.487  21.862  0.00  0.00    +0.281 C 
ATOM     12  N   UNL     1       7.155  -5.777  21.708  0.00  0.00    -0.323 N 
ATOM     13  H   UNL     1       6.597  -6.430  21.180  0.00  0.00    +0.145 HD
ATOM     14  H   UNL     1       8.035  -6.056  22.124  0.00  0.00    +0.145 HD
ATOM     15  O   UNL     1       5.647  -4.130  21.363  0.00  0.00    -0.267 OA
ENDBRANCH   9  11
ENDBRANCH   1   7
BRANCH   4  16
ATOM     16  O3* UNL     1      10.326   2.155  21.517  0.00  0.00    -0.386 OA
ATOM     17  H3* UNL     1      10.554   3.043  21.861  0.00  0.00    +0.210 HD
ENDBRANCH   4  16
BRANCH   5  18
ATOM     18  O2* UNL     1       9.477  -0.405  21.063  0.00  0.00    -0.385 OA
ATOM     19  H2* UNL     1       8.518  -0.614  21.155  0.00  0.00    +0.210 HD
ENDBRANCH   5  18
BRANCH   3  20
ATOM     20  C5* UNL     1       7.536   2.132  22.100  0.00  0.00    +0.190 C 
BRANCH  20  21
ATOM     21  O5* UNL     1       7.768   3.523  21.855  0.00  0.00    -0.392 OA
ATOM     22  H5* UNL     1       8.370   3.824  22.563  0.00  0.00    +0.210 HD
ENDBRANCH  20  21
ENDBRANCH   3  20
TORSDOF 6
ENDMDL
MODEL 2
REMARK VINA RESULT:      -5.8      2.289      2.409
REMARK  Name = 
REMARK  6 active torsions:
REMARK  status: ('A' for Active; 'I' for Inactive)
REMARK    1  A    between atoms: C_3  and  C_18
REMARK    2  A    between atoms: N_5  and  C1*_6
REMARK    3  A    between atoms: C2*_8  and  O2*_17
REMARK    4  A    between atoms: C3*_9  and  O3*_16
REMARK    5  A    between atoms: C4*_11  and  C5*_14
REMARK    6  A    between atoms: C5*_14  and  O5*_15
REMARK                            x       y       z     vdW  Elec       q    Type
REMARK                         _______ _______ _______ _____ _____    ______ ____
ROOT
ATOM      1  C1* UNL     1       9.966  -0.020  24.329  0.00  0.00    +0.270 C 
ATOM      2  O4* UNL     1       9.167   1.105  24.773  0.00  0.00    -0.344 OA
ATOM      3  C4* UNL     1       9.385   2.184  23.826  0.00  0.00    +0.177 C 
ATOM      4  C3* UNL     1      10.284   1.624  22.713  0.00  0.00    +0.178 C 
ATOM      5  C2* UNL     1      10.075   0.116  22.814  0.00  0.00    +0.196 C 
ENDROOT
BRANCH   1   7
ATOM      6  C   UNL     1       8.650  -1.483  25.914  0.00  0.00    +0.223 A 
ATOM      7  N   UNL     1       9.413  -1.267  24.811  0.00  0.00    -0.220 N 
ATOM      8  N   UNL     1       9.727  -2.429  24.201  0.00  0.00    -0.142 NA
ATOM      9  C   UNL     1       9.122  -3.336  24.990  0.00  0.00    +0.236 A 
ATOM     10  N   UNL     1       8.442  -2.769  26.064  0.00  0.00    -0.211 NA
BRANCH   9  11
ATOM     11  C   UNL     1       9.177  -4.795  24.776  0.00  0.00    +0.281 C 
ATOM     12  N   UNL     1       9.988  -5.457  25.665  0.00  0.00    -0.323 N 
ATOM     13  H   UNL     1      10.087  -6.457  25.589  0.00  0.00    +0.145 HD
ATOM     14  H   UNL     1      10.477  -4.935  26.381  0.00  0.00    +0.145 HD
ATOM     15  O   UNL     1       8.579  -5.411  23.899  0.00  0.00    -0.267 OA
ENDBRANCH   9  11
ENDBRANCH   1   7
BRANCH   4  16
ATOM     16  O3* UNL     1      10.019   2.145  21.422  0.00  0.00    -0.386 OA
ATOM     17  H3* UNL     1      10.341   3.069  21.421  0.00  0.00    +0.210 HD
ENDBRANCH   4  16
BRANCH   5  18
ATOM     18  O2* UNL     1       8.887  -0.252  22.095  0.00  0.00    -0.385 OA
ATOM     19  H2* UNL     1       9.057  -0.144  21.130  0.00  0.00    +0.210 HD
ENDBRANCH   5  18
BRANCH   3  20
ATOM     20  C5* UNL     1       8.026   2.731  23.375  0.00  0.00    +0.190 C 
BRANCH  20  21
ATOM     21  O5* UNL     1       8.194   3.863  22.515  0.00  0.00    -0.392 OA
ATOM     22  H5* UNL     1       7.308   4.263  22.421  0.00  0.00    +0.210 HD
ENDBRANCH  20  21
ENDBRANCH   3  20
TORSDOF 6
ENDMDL
MODEL 3
REMARK VINA RESULT:      -5.8      2.101      2.972
REMARK  Name = 
REMARK  6 active torsions:
REMARK  status: ('A' for Active; 'I' for Inactive)
REMARK    1  A    between atoms: C_3  and  C_18
REMARK    2  A    between atoms: N_5  and  C1*_6
REMARK    3  A    between atoms: C2*_8  and  O2*_17
REMARK    4  A    between atoms: C3*_9  and  O3*_16
REMARK    5  A    between atoms: C4*_11  and  C5*_14
REMARK    6  A    between atoms: C5*_14  and  O5*_15
REMARK                            x       y       z     vdW  Elec       q    Type
REMARK                         _______ _______ _______ _____ _____    ______ ____
ROOT
ATOM      1  C1* UNL     1       9.880  -1.012  22.576  0.00  0.00    +0.270 C 
ATOM      2  O4* UNL     1      10.539  -0.211  23.589  0.00  0.00    -0.344 OA
ATOM      3  C4* UNL     1      10.521   1.164  23.125  0.00  0.00    +0.177 C 
ATOM      4  C3* UNL     1       9.718   1.181  21.815  0.00  0.00    +0.178 C 
ATOM      5  C2* UNL     1       8.872  -0.087  21.902  0.00  0.00    +0.196 C 
ENDROOT
BRANCH   1   7
ATOM      6  C   UNL     1       8.229  -2.916  22.770  0.00  0.00    +0.223 A 
ATOM      7  N   UNL     1       9.335  -2.223  23.151  0.00  0.00    -0.220 N 
ATOM      8  N   UNL     1       9.875  -2.746  24.271  0.00  0.00    -0.142 NA
ATOM      9  C   UNL     1       9.042  -3.770  24.536  0.00  0.00    +0.236 A 
ATOM     10  N   UNL     1       8.010  -3.897  23.612  0.00  0.00    -0.211 NA
BRANCH   9  11
ATOM     11  C   UNL     1       9.173  -4.671  25.698  0.00  0.00    +0.281 C 
ATOM     12  N   UNL     1      10.248  -5.522  25.621  0.00  0.00    -0.323 N 
ATOM     13  H   UNL     1      10.411  -6.176  26.371  0.00  0.00    +0.145 HD
ATOM     14  H   UNL     1      10.860  -5.486  24.816  0.00  0.00    +0.145 HD
ATOM     15  O   UNL     1       8.418  -4.703  26.665  0.00  0.00    -0.267 OA
ENDBRANCH   9  11
ENDBRANCH   1   7
BRANCH   4  16
ATOM     16  O3* UNL     1       8.952   2.356  21.607  0.00  0.00    -0.386 OA
ATOM     17  H3* UNL     1       9.197   2.979  22.321  0.00  0.00    +0.210 HD
ENDBRANCH   4  16
BRANCH   5  18
ATOM     18  O2* UNL     1       7.692   0.177  22.676  0.00  0.00    -0.385 OA
ATOM     19  H2* UNL     1       7.030   0.624  22.098  0.00  0.00    +0.210 HD
ENDBRANCH   5  18
BRANCH   3  20
ATOM     20  C5* UNL     1       9.986   2.059  24.248  0.00  0.00    +0.190 C 
BRANCH  20  21
ATOM     21  O5* UNL     1       9.213   1.298  25.181  0.00  0.00    -0.392 OA
ATOM     22  H5* UNL     1       8.962   1.919  25.892  0.00  0.00    +0.210 HD
ENDBRANCH  20  21
ENDBRANCH   3  20
TORSDOF 6
ENDMDL
MODEL 4
REMARK VINA RESULT:      -5.7      2.199      2.929
REMARK  Name = 
REMARK  6 active torsions:
REMARK  status: ('A' for Active; 'I' for Inactive)
REMARK    1  A    between atoms: C_3  and  C_18
REMARK    2  A    between atoms: N_5  and  C1*_6
REMARK    3  A    between atoms: C2*_8  and  O2*_17
REMARK    4  A    between atoms: C3*_9  and  O3*_16
REMARK    5  A    between atoms: C4*_11  and  C5*_14
REMARK    6  A    between atoms: C5*_14  and  O5*_15
REMARK                            x       y       z     vdW  Elec       q    Type
REMARK                         _______ _______ _______ _____ _____    ______ ____
ROOT
ATOM      1  C1* UNL     1       7.874  -0.938  23.889  0.00  0.00    +0.270 C 
ATOM      2  O4* UNL     1       8.095  -0.474  22.533  0.00  0.00    -0.344 OA
ATOM      3  C4* UNL     1       8.552   0.901  22.621  0.00  0.00    +0.177 C 
ATOM      4  C3* UNL     1       8.701   1.226  24.115  0.00  0.00    +0.178 C 
ATOM      5  C2* UNL     1       8.843  -0.148  24.764  0.00  0.00    +0.196 C 
ENDROOT
BRANCH   1   7
ATOM      6  C   UNL     1       7.646  -3.304  23.033  0.00  0.00    +0.223 A 
ATOM      7  N   UNL     1       7.987  -2.378  23.967  0.00  0.00    -0.220 N 
ATOM      8  N   UNL     1       8.382  -2.967  25.115  0.00  0.00    -0.142 NA
ATOM      9  C   UNL     1       8.255  -4.274  24.821  0.00  0.00    +0.236 A 
ATOM     10  N   UNL     1       7.800  -4.509  23.527  0.00  0.00    -0.211 NA
BRANCH   9  11
ATOM     11  C   UNL     1       8.542  -5.372  25.765  0.00  0.00    +0.281 C 
ATOM     12  N   UNL     1       9.811  -5.884  25.652  0.00  0.00    -0.323 N 
ATOM     13  H   UNL     1      10.090  -6.641  26.257  0.00  0.00    +0.145 HD
ATOM     14  H   UNL     1      10.447  -5.499  24.966  0.00  0.00    +0.145 HD
ATOM     15  O   UNL     1       7.755  -5.827  26.590  0.00  0.00    -0.267 OA
ENDBRANCH   9  11
ENDBRANCH   1   7
BRANCH   4  16
ATOM     16  O3* UNL     1       9.767   2.108  24.424  0.00  0.00    -0.386 OA
ATOM     17  H3* UNL     1      10.432   1.583  24.913  0.00  0.00    +0.210 HD
ENDBRANCH   4  16
BRANCH   5  18
ATOM     18  O2* UNL     1      10.210  -0.579  24.680  0.00  0.00    -0.385 OA
ATOM     19  H2* UNL     1      10.249  -1.543  24.884  0.00  0.00    +0.210 HD
ENDBRANCH   5  18
BRANCH   3  20
ATOM     20  C5* UNL     1       9.819   1.058  21.774  0.00  0.00    +0.190 C 
BRANCH  20  21
ATOM     21  O5* UNL     1      10.173   2.439  21.641  0.00  0.00    -0.392 OA
ATOM     22  H5* UNL     1      10.178   2.803  22.547  0.00  0.00    +0.210 HD
ENDBRANCH  20  21
ENDBRANCH   3  20
TORSDOF 6
ENDMDL
MODEL 5
REMARK VINA RESULT:      -5.7      1.276      1.642
REMARK  Name = 
REMARK  6 active torsions:
REMARK  status: ('A' for Active; 'I' for Inactive)
REMARK    1  A    between atoms: C_3  and  C_18
REMARK    2  A    between atoms: N_5  and  C1*_6
REMARK    3  A    between atoms: C2*_8  and  O2*_17
REMARK    4  A    between atoms: C3*_9  and  O3*_16
REMARK    5  A    between atoms: C4*_11  and  C5*_14
REMARK    6  A    between atoms: C5*_14  and  O5*_15
REMARK                            x       y       z     vdW  Elec       q    Type
REMARK                         _______ _______ _______ _____ _____    ______ ____
ROOT
ATOM      1  C1* UNL     1       9.747  -1.163  22.662  0.00  0.00    +0.270 C 
ATOM      2  O4* UNL     1      10.153  -0.479  23.873  0.00  0.00    -0.344 OA
ATOM      3  C4* UNL     1      10.426   0.901  23.514  0.00  0.00    +0.177 C 
ATOM      4  C3* UNL     1      10.062   1.054  22.028  0.00  0.00    +0.178 C 
ATOM      5  C2* UNL     1       9.097  -0.102  21.780  0.00  0.00    +0.196 C 
ENDROOT
BRANCH   1   7
ATOM      6  C   UNL     1       9.054  -3.193  23.998  0.00  0.00    +0.223 A 
ATOM      7  N   UNL     1       8.925  -2.313  22.970  0.00  0.00    -0.220 N 
ATOM      8  N   UNL     1       7.942  -2.691  22.127  0.00  0.00    -0.142 NA
ATOM      9  C   UNL     1       7.501  -3.828  22.697  0.00  0.00    +0.236 A 
ATOM     10  N   UNL     1       8.178  -4.160  23.867  0.00  0.00    -0.211 NA
BRANCH   9  11
ATOM     11  C   UNL     1       6.423  -4.673  22.146  0.00  0.00    +0.281 C 
ATOM     12  N   UNL     1       6.826  -5.946  21.824  0.00  0.00    -0.323 N 
ATOM     13  H   UNL     1       6.153  -6.590  21.437  0.00  0.00    +0.145 HD
ATOM     14  H   UNL     1       7.788  -6.221  21.976  0.00  0.00    +0.145 HD
ATOM     15  O   UNL     1       5.262  -4.320  21.965  0.00  0.00    -0.267 OA
ENDBRANCH   9  11
ENDBRANCH   1   7
BRANCH   4  16
ATOM     16  O3* UNL     1       9.528   2.320  21.679  0.00  0.00    -0.386 OA
ATOM     17  H3* UNL     1       9.267   2.263  20.737  0.00  0.00    +0.210 HD
ENDBRANCH   4  16
BRANCH   5  18
ATOM     18  O2* UNL     1       7.774   0.283  22.185  0.00  0.00    -0.385 OA
ATOM     19  H2* UNL     1       7.171  -0.487  22.061  0.00  0.00    +0.210 HD
ENDBRANCH   5  18
BRANCH   3  20
ATOM     20  C5* UNL     1       9.678   1.823  24.482  0.00  0.00    +0.190 C 
BRANCH  20  21
ATOM     21  O5* UNL     1       8.505   1.182  24.993  0.00  0.00    -0.392 OA
ATOM     22  H5* UNL     1       8.747   0.842  25.876  0.00  0.00    +0.210 HD
ENDBRANCH  20  21
ENDBRANCH   3  20
TORSDOF 6
ENDMDL
MODEL 6
REMARK VINA RESULT:      -5.7      2.057      5.972
REMARK  Name = 
REMARK  6 active torsions:
REMARK  status: ('A' for Active; 'I' for Inactive)
REMARK    1  A    between atoms: C_3  and  C_18
REMARK    2  A    between atoms: N_5  and  C1*_6
REMARK    3  A    between atoms: C2*_8  and  O2*_17
REMARK    4  A    between atoms: C3*_9  and  O3*_16
REMARK    5  A    between atoms: C4*_11  and  C5*_14
REMARK    6  A    between atoms: C5*_14  and  O5*_15
REMARK                            x       y       z     vdW  Elec       q    Type
REMARK                         _______ _______ _______ _____ _____    ______ ____
ROOT
ATOM      1  C1* UNL     1       7.200  -2.923  23.274  0.00  0.00    +0.270 C 
ATOM      2  O4* UNL     1       7.669  -4.233  22.866  0.00  0.00    -0.344 OA
ATOM      3  C4* UNL     1       6.544  -5.143  22.978  0.00  0.00    +0.177 C 
ATOM      4  C3* UNL     1       5.325  -4.298  23.378  0.00  0.00    +0.178 C 
ATOM      5  C2* UNL     1       5.712  -2.889  22.939  0.00  0.00    +0.196 C 
ENDROOT
BRANCH   1   7
ATOM      6  C   UNL     1       9.298  -1.937  22.270  0.00  0.00    +0.223 A 
ATOM      7  N   UNL     1       8.003  -1.879  22.677  0.00  0.00    -0.220 N 
ATOM      8  N   UNL     1       7.513  -0.626  22.564  0.00  0.00    -0.142 NA
ATOM      9  C   UNL     1       8.571   0.049  22.078  0.00  0.00    +0.236 A 
ATOM     10  N   UNL     1       9.695  -0.748  21.883  0.00  0.00    -0.211 NA
BRANCH   9  11
ATOM     11  C   UNL     1       8.575   1.497  21.791  0.00  0.00    +0.281 C 
ATOM     12  N   UNL     1       9.831   2.023  21.610  0.00  0.00    -0.323 N 
ATOM     13  H   UNL     1       9.927   3.007  21.413  0.00  0.00    +0.145 HD
ATOM     14  H   UNL     1      10.641   1.420  21.677  0.00  0.00    +0.145 HD
ATOM     15  O   UNL     1       7.581   2.213  21.716  0.00  0.00    -0.267 OA
ENDBRANCH   9  11
ENDBRANCH   1   7
BRANCH   4  16
ATOM     16  O3* UNL     1       4.094  -4.741  22.831  0.00  0.00    -0.386 OA
ATOM     17  H3* UNL     1       3.440  -4.035  23.006  0.00  0.00    +0.210 HD
ENDBRANCH   4  16
BRANCH   5  18
ATOM     18  O2* UNL     1       5.419  -2.724  21.543  0.00  0.00    -0.385 OA
ATOM     19  H2* UNL     1       4.440  -2.712  21.426  0.00  0.00    +0.210 HD
ENDBRANCH   5  18
BRANCH   3  20
ATOM     20  C5* UNL     1       6.411  -5.930  21.670  0.00  0.00    +0.190 C 
BRANCH  20  21
ATOM     21  O5* UNL     1       5.950  -5.083  20.612  0.00  0.00    -0.392 OA
ATOM     22  H5* UNL     1       6.717  -4.537  20.351  0.00  0.00    +0.210 HD
ENDBRANCH  20  21
ENDBRANCH   3  20
TORSDOF 6
ENDMDL
MODEL 7
REMARK VINA RESULT:      -5.7      1.503      1.744
REMARK  Name = 
REMARK  6 active torsions:
REMARK  status: ('A' for Active; 'I' for Inactive)
REMARK    1  A    between atoms: C_3  and  C_18
REMARK    2  A    between atoms: N_5  and  C1*_6
REMARK    3  A    between atoms: C2*_8  and  O2*_17
REMARK    4  A    between atoms: C3*_9  and  O3*_16
REMARK    5  A    between atoms: C4*_11  and  C5*_14
REMARK    6  A    between atoms: C5*_14  and  O5*_15
REMARK                            x       y       z     vdW  Elec       q    Type
REMARK                         _______ _______ _______ _____ _____    ______ ____
ROOT
ATOM      1  C1* UNL     1       8.211  -1.626  23.942  0.00  0.00    +0.270 C 
ATOM      2  O4* UNL     1       7.763  -0.726  22.897  0.00  0.00    -0.344 OA
ATOM      3  C4* UNL     1       8.633   0.435  22.930  0.00  0.00    +0.177 C 
ATOM      4  C3* UNL     1       9.712   0.153  23.988  0.00  0.00    +0.178 C 
ATOM      5  C2* UNL     1       9.707  -1.369  24.101  0.00  0.00    +0.196 C 
ENDROOT
BRANCH   1   7
ATOM      6  C   UNL     1       8.225  -4.131  24.273  0.00  0.00    +0.223 A 
ATOM      7  N   UNL     1       7.836  -2.991  23.644  0.00  0.00    -0.220 N 
ATOM      8  N   UNL     1       7.084  -3.266  22.558  0.00  0.00    -0.142 NA
ATOM      9  C   UNL     1       7.050  -4.611  22.570  0.00  0.00    +0.236 A 
ATOM     10  N   UNL     1       7.752  -5.173  23.633  0.00  0.00    -0.211 NA
BRANCH   9  11
ATOM     11  C   UNL     1       6.362  -5.437  21.558  0.00  0.00    +0.281 C 
ATOM     12  N   UNL     1       6.221  -6.754  21.920  0.00  0.00    -0.323 N 
ATOM     13  H   UNL     1       5.766  -7.392  21.284  0.00  0.00    +0.145 HD
ATOM     14  H   UNL     1       6.576  -7.070  22.813  0.00  0.00    +0.145 HD
ATOM     15  O   UNL     1       5.941  -5.037  20.477  0.00  0.00    -0.267 OA
ENDBRANCH   9  11
ENDBRANCH   1   7
BRANCH   4  16
ATOM     16  O3* UNL     1      10.988   0.692  23.688  0.00  0.00    -0.386 OA
ATOM     17  H3* UNL     1      11.123   1.448  24.295  0.00  0.00    +0.210 HD
ENDBRANCH   4  16
BRANCH   5  18
ATOM     18  O2* UNL     1      10.523  -1.930  23.061  0.00  0.00    -0.385 OA
ATOM     19  H2* UNL     1      10.989  -1.195  22.597  0.00  0.00    +0.210 HD
ENDBRANCH   5  18
BRANCH   3  20
ATOM     20  C5* UNL     1       9.145   0.713  21.513  0.00  0.00    +0.190 C 
BRANCH  20  21
ATOM     21  O5* UNL     1       9.744   2.011  21.434  0.00  0.00    -0.392 OA
ATOM     22  H5* UNL     1       9.514   2.464  22.268  0.00  0.00    +0.210 HD
ENDBRANCH  20  21
ENDBRANCH   3  20
TORSDOF 6
ENDMDL
MODEL 8
REMARK VINA RESULT:      -5.7      3.086      6.206
REMARK  Name = 
REMARK  6 active torsions:
REMARK  status: ('A' for Active; 'I' for Inactive)
REMARK    1  A    between atoms: C_3  and  C_18
REMARK    2  A    between atoms: N_5  and  C1*_6
REMARK    3  A    between atoms: C2*_8  and  O2*_17
REMARK    4  A    between atoms: C3*_9  and  O3*_16
REMARK    5  A    between atoms: C4*_11  and  C5*_14
REMARK    6  A    between atoms: C5*_14  and  O5*_15
REMARK                            x       y       z     vdW  Elec       q    Type
REMARK                         _______ _______ _______ _____ _____    ______ ____
ROOT
ATOM      1  C1* UNL     1       7.954  -2.010  24.338  0.00  0.00    +0.270 C 
ATOM      2  O4* UNL     1       7.732  -2.537  25.670  0.00  0.00    -0.344 OA
ATOM      3  C4* UNL     1       7.735  -3.985  25.562  0.00  0.00    +0.177 C 
ATOM      4  C3* UNL     1       8.077  -4.322  24.102  0.00  0.00    +0.178 C 
ATOM      5  C2* UNL     1       8.779  -3.062  23.603  0.00  0.00    +0.196 C 
ENDROOT
BRANCH   1   7
ATOM      6  C   UNL     1       8.461   0.224  25.404  0.00  0.00    +0.223 A 
ATOM      7  N   UNL     1       8.533  -0.686  24.397  0.00  0.00    -0.220 N 
ATOM      8  N   UNL     1       9.159  -0.170  23.319  0.00  0.00    -0.142 NA
ATOM      9  C   UNL     1       9.448   1.079  23.730  0.00  0.00    +0.236 A 
ATOM     10  N   UNL     1       9.025   1.347  25.028  0.00  0.00    -0.211 NA
BRANCH   9  11
ATOM     11  C   UNL     1      10.126   2.093  22.899  0.00  0.00    +0.281 C 
ATOM     12  N   UNL     1       9.925   1.931  21.551  0.00  0.00    -0.323 N 
ATOM     13  H   UNL     1      10.356   2.578  20.909  0.00  0.00    +0.145 HD
ATOM     14  H   UNL     1       9.352   1.166  21.218  0.00  0.00    +0.145 HD
ATOM     15  O   UNL     1      10.821   3.013  23.321  0.00  0.00    -0.267 OA
ENDBRANCH   9  11
ENDBRANCH   1   7
BRANCH   4  16
ATOM     16  O3* UNL     1       8.847  -5.501  23.933  0.00  0.00    -0.386 OA
ATOM     17  H3* UNL     1       8.531  -5.926  23.111  0.00  0.00    +0.210 HD
ENDBRANCH   4  16
BRANCH   5  18
ATOM     18  O2* UNL     1      10.164  -3.104  23.980  0.00  0.00    -0.385 OA
ATOM     19  H2* UNL     1      10.684  -2.583  23.324  0.00  0.00    +0.210 HD
ENDBRANCH   5  18
BRANCH   3  20
ATOM     20  C5* UNL     1       8.683  -4.559  26.620  0.00  0.00    +0.190 C 
BRANCH  20  21
ATOM     21  O5* UNL     1       8.083  -5.672  27.290  0.00  0.00    -0.392 OA
ATOM     22  H5* UNL     1       7.536  -5.292  28.005  0.00  0.00    +0.210 HD
ENDBRANCH  20  21
ENDBRANCH   3  20
TORSDOF 6
ENDMDL
MODEL 9
REMARK VINA RESULT:      -5.5      2.894      6.206
REMARK  Name = 
REMARK  6 active torsions:
REMARK  status: ('A' for Active; 'I' for Inactive)
REMARK    1  A    between atoms: C_3  and  C_18
REMARK    2  A    between atoms: N_5  and  C1*_6
REMARK    3  A    between atoms: C2*_8  and  O2*_17
REMARK    4  A    between atoms: C3*_9  and  O3*_16
REMARK    5  A    between atoms: C4*_11  and  C5*_14
REMARK    6  A    between atoms: C5*_14  and  O5*_15
REMARK                            x       y       z     vdW  Elec       q    Type
REMARK                         _______ _______ _______ _____ _____    ______ ____
ROOT
ATOM      1  C1* UNL     1       9.468  -3.062  24.234  0.00  0.00    +0.270 C 
ATOM      2  O4* UNL     1       8.597  -4.064  23.651  0.00  0.00    -0.344 OA
ATOM      3  C4* UNL     1       8.119  -4.900  24.738  0.00  0.00    +0.177 C 
ATOM      4  C3* UNL     1       8.663  -4.290  26.040  0.00  0.00    +0.178 C 
ATOM      5  C2* UNL     1       8.960  -2.844  25.656  0.00  0.00    +0.196 C 
ENDROOT
BRANCH   1   7
ATOM      6  C   UNL     1       9.399  -1.795  22.050  0.00  0.00    +0.223 A 
ATOM      7  N   UNL     1       9.528  -1.882  23.400  0.00  0.00    -0.220 N 
ATOM      8  N   UNL     1       9.846  -0.686  23.937  0.00  0.00    -0.142 NA
ATOM      9  C   UNL     1       9.903   0.106  22.851  0.00  0.00    +0.236 A 
ATOM     10  N   UNL     1       9.625  -0.562  21.662  0.00  0.00    -0.211 NA
BRANCH   9  11
ATOM     11  C   UNL     1      10.246   1.542  22.883  0.00  0.00    +0.281 C 
ATOM     12  N   UNL     1      10.065   2.183  21.683  0.00  0.00    -0.323 N 
ATOM     13  H   UNL     1      10.279   3.166  21.614  0.00  0.00    +0.145 HD
ATOM     14  H   UNL     1       9.723   1.664  20.884  0.00  0.00    +0.145 HD
ATOM     15  O   UNL     1      10.663   2.154  23.862  0.00  0.00    -0.267 OA
ENDBRANCH   9  11
ENDBRANCH   1   7
BRANCH   4  16
ATOM     16  O3* UNL     1       7.796  -4.411  27.155  0.00  0.00    -0.386 OA
ATOM     17  H3* UNL     1       8.321  -4.813  27.876  0.00  0.00    +0.210 HD
ENDBRANCH   4  16
BRANCH   5  18
ATOM     18  O2* UNL     1       7.757  -2.066  25.747  0.00  0.00    -0.385 OA
ATOM     19  H2* UNL     1       7.181  -2.287  24.978  0.00  0.00    +0.210 HD
ENDBRANCH   5  18
BRANCH   3  20
ATOM     20  C5* UNL     1       6.595  -5.016  24.641  0.00  0.00    +0.190 C 
BRANCH  20  21
ATOM     21  O5* UNL     1       6.095  -5.955  25.600  0.00  0.00    -0.392 OA
ATOM     22  H5* UNL     1       5.449  -5.465  26.144  0.00  0.00    +0.210 HD
ENDBRANCH  20  21
ENDBRANCH   3  20
TORSDOF 6
ENDMDL
