MODEL 1
REMARK VINA RESULT:      -5.5      0.000      0.000
REMARK  Name = 
REMARK  21 active torsions:
REMARK  status: ('A' for Active; 'I' for Inactive)
REMARK    1  A    between atoms: C_1  and  C_2
REMARK    2  A    between atoms: C_2  and  C_3
REMARK    3  A    between atoms: C_2  and  C_4
REMARK    4  A    between atoms: C_9  and  C_12
REMARK    5  A    between atoms: C_18  and  O_21
REMARK    6  A    between atoms: O_21  and  C_22
REMARK    7  A    between atoms: C_23  and  O_25
REMARK    8  A    between atoms: O_25  and  C_26
REMARK    9  A    between atoms: C_29  and  C_50
REMARK   10  A    between atoms: C_33  and  C_35
REMARK   11  A    between atoms: C_35  and  C_37
REMARK   12  A    between atoms: C_35  and  N_41
REMARK   13  A    between atoms: C_37  and  C_38
REMARK   14  A    between atoms: C_37  and  C_39
REMARK   15  A    between atoms: C_37  and  C_40
REMARK   16  A    between atoms: C_42  and  O_44
REMARK   17  A    between atoms: O_44  and  C_45
REMARK   18  A    between atoms: N_52  and  C_53
REMARK   19  A    between atoms: C_53  and  C_59
REMARK   20  A    between atoms: C_55  and  C_57
REMARK   21  A    between atoms: C_59  and  O_61
REMARK                            x       y       z     vdW  Elec       q    Type
REMARK                         _______ _______ _______ _____ _____    ______ ____
ROOT
ATOM      1  C   UNL     1       7.018   3.446  27.074  0.00  0.00    +0.193 C 
ATOM      2  C   UNL     1       7.781   2.646  25.997  0.00  0.00    +0.153 C 
ATOM      3  N   UNL     1       6.806   2.233  24.989  0.00  0.00    -0.285 N 
ATOM      4  C   UNL     1       7.026   1.153  24.149  0.00  0.00    +0.237 C 
ATOM      5  O   UNL     1       6.086   0.454  23.750  0.00  0.00    -0.274 OA
ATOM      6  C   UNL     1       5.449   2.611  25.421  0.00  0.00    +0.166 C 
ATOM      7  C   UNL     1       5.680   3.744  26.419  0.00  0.00    +0.078 C 
ENDROOT
BRANCH   6   8
ATOM      8  C   UNL     1       4.537   3.153  24.294  0.00  0.00    +0.235 C 
ATOM      9  N   UNL     1       3.224   3.344  24.629  0.00  0.00    -0.298 N 
ATOM     10  H   UNL     1       2.933   3.177  25.592  0.00  0.00    +0.150 HD
ATOM     11  O   UNL     1       4.945   3.472  23.173  0.00  0.00    -0.274 OA
BRANCH   9  12
ATOM     12  C   UNL     1       2.255   3.911  23.718  0.00  0.00    +0.138 C 
ATOM     13  C   UNL     1       2.384   5.403  23.426  0.00  0.00    +0.048 C 
ATOM     14  C   UNL     1       1.269   4.909  24.297  0.00  0.00    +0.048 C 
BRANCH  12  15
ATOM     15  C   UNL     1       1.747   2.962  22.653  0.00  0.00    +0.329 C 
ATOM     16  O   UNL     1       0.658   2.414  22.720  0.00  0.00    -0.249 OA
BRANCH  15  17
ATOM     17  O   UNL     1       2.652   2.716  21.672  0.00  0.00    -0.479 OA
ATOM     18  H   UNL     1       2.217   2.260  20.914  0.00  0.00    +0.295 HD
ENDBRANCH  15  17
ENDBRANCH  12  15
BRANCH  13  19
ATOM     19  C   UNL     1       2.060   5.972  22.119  0.00  0.00    -0.028 C 
ATOM     20  C   UNL     1       2.762   6.919  21.482  0.00  0.00    +0.004 C 
ENDBRANCH  13  19
ENDBRANCH   9  12
ENDBRANCH   6   8
BRANCH   1  21
ATOM     21  O   UNL     1       6.871   2.669  28.262  0.00  0.00    -0.486 OA
BRANCH  21  24
ATOM     22  C   UNL     1       4.276   0.236  28.776  0.00  0.00    +0.094 A 
ATOM     23  C   UNL     1       5.479   0.847  28.467  0.00  0.00    +0.076 A 
ATOM     24  C   UNL     1       5.632   2.222  28.685  0.00  0.00    +0.132 A 
ATOM     25  C   UNL     1       4.546   2.958  29.250  0.00  0.00    +0.043 A 
ATOM     26  C   UNL     1       4.580   4.323  29.620  0.00  0.00    +0.017 A 
ATOM     27  C   UNL     1       3.454   5.053  29.966  0.00  0.00    +0.047 A 
ATOM     28  C   UNL     1       2.248   4.405  30.128  0.00  0.00    +0.136 A 
ATOM     29  C   UNL     1       2.206   3.014  29.917  0.00  0.00    +0.085 A 
ATOM     30 BR   UNL     1       0.568   2.087  30.296  0.00  0.00    -0.044 Br
ATOM     31  C   UNL     1       3.325   2.271  29.467  0.00  0.00    +0.093 A 
ATOM     32  N   UNL     1       3.222   0.937  29.252  0.00  0.00    -0.244 NA
BRANCH  22  39
ATOM     33  C   UNL     1       4.289  -3.737  25.164  0.00  0.00    +0.221 C 
ATOM     34  N   UNL     1       4.157  -4.081  26.492  0.00  0.00    -0.264 N 
ATOM     35  H   UNL     1       4.010  -5.034  26.775  0.00  0.00    +0.157 HD
ATOM     36  C   UNL     1       4.079  -3.116  27.467  0.00  0.00    +0.165 A 
ATOM     37  S   UNL     1       3.636  -3.688  29.011  0.00  0.00    -0.060 S 
ATOM     38  C   UNL     1       3.689  -2.071  29.602  0.00  0.00    +0.078 A 
ATOM     39  C   UNL     1       4.087  -1.208  28.593  0.00  0.00    +0.098 A 
ATOM     40  N   UNL     1       4.302  -1.829  27.368  0.00  0.00    -0.223 NA
ATOM     41  O   UNL     1       4.278  -2.591  24.719  0.00  0.00    -0.275 OA
BRANCH  33  43
ATOM     42  C   UNL     1       5.585  -4.695  23.241  0.00  0.00    +0.017 C 
ATOM     43  C   UNL     1       4.439  -4.939  24.226  0.00  0.00    +0.069 C 
ATOM     44  C   UNL     1       4.702  -6.219  25.017  0.00  0.00    +0.017 C 
ENDBRANCH  33  43
ENDBRANCH  22  39
BRANCH  28  45
ATOM     45  O   UNL     1       1.102   5.068  30.485  0.00  0.00    -0.494 OA
ATOM     46  C   UNL     1       0.520   5.900  29.480  0.00  0.00    +0.277 C 
ENDBRANCH  28  45
ENDBRANCH  21  24
ENDBRANCH   1  21
BRANCH   4  47
ATOM     47  C   UNL     1       8.457   0.900  23.588  0.00  0.00    +0.168 C 
BRANCH  47  48
ATOM     48  N   UNL     1       8.536  -0.540  23.350  0.00  0.00    -0.269 N 
ATOM     49  H   UNL     1       7.667  -1.062  23.259  0.00  0.00    +0.153 HD
ATOM     50  C   UNL     1       9.549  -1.276  23.884  0.00  0.00    +0.401 C 
ATOM     51  O   UNL     1      10.569  -0.801  24.368  0.00  0.00    -0.226 OA
BRANCH  50  52
ATOM     52  O   UNL     1       9.236  -2.594  23.829  0.00  0.00    -0.447 OA
BRANCH  52  53
ATOM     53  C   UNL     1       9.147  -3.251  25.097  0.00  0.00    +0.178 C 
ATOM     54  C   UNL     1       9.083  -4.769  24.903  0.00  0.00    +0.045 C 
ATOM     55  C   UNL     1       8.113  -5.298  25.962  0.00  0.00    +0.004 C 
ATOM     56  C   UNL     1       7.684  -4.089  26.783  0.00  0.00    +0.004 C 
ATOM     57  C   UNL     1       7.850  -2.920  25.829  0.00  0.00    +0.045 C 
ENDBRANCH  52  53
ENDBRANCH  50  52
ENDBRANCH  47  48
BRANCH  47  58
ATOM     58  C   UNL     1       8.784   1.723  22.291  0.00  0.00    -0.011 C 
ATOM     59  C   UNL     1      10.258   2.189  22.335  0.00  0.00    +0.013 C 
ATOM     60  C   UNL     1       7.903   2.984  22.200  0.00  0.00    +0.013 C 
ATOM     61  C   UNL     1       8.589   0.913  20.992  0.00  0.00    +0.013 C 
ENDBRANCH  47  58
ENDBRANCH   4  47
TORSDOF 15
ENDMDL
MODEL 2
REMARK VINA RESULT:      -5.1      2.929      7.470
REMARK  Name = 
REMARK  21 active torsions:
REMARK  status: ('A' for Active; 'I' for Inactive)
REMARK    1  A    between atoms: C_1  and  C_2
REMARK    2  A    between atoms: C_2  and  C_3
REMARK    3  A    between atoms: C_2  and  C_4
REMARK    4  A    between atoms: C_9  and  C_12
REMARK    5  A    between atoms: C_18  and  O_21
REMARK    6  A    between atoms: O_21  and  C_22
REMARK    7  A    between atoms: C_23  and  O_25
REMARK    8  A    between atoms: O_25  and  C_26
REMARK    9  A    between atoms: C_29  and  C_50
REMARK   10  A    between atoms: C_33  and  C_35
REMARK   11  A    between atoms: C_35  and  C_37
REMARK   12  A    between atoms: C_35  and  N_41
REMARK   13  A    between atoms: C_37  and  C_38
REMARK   14  A    between atoms: C_37  and  C_39
REMARK   15  A    between atoms: C_37  and  C_40
REMARK   16  A    between atoms: C_42  and  O_44
REMARK   17  A    between atoms: O_44  and  C_45
REMARK   18  A    between atoms: N_52  and  C_53
REMARK   19  A    between atoms: C_53  and  C_59
REMARK   20  A    between atoms: C_55  and  C_57
REMARK   21  A    between atoms: C_59  and  O_61
REMARK                            x       y       z     vdW  Elec       q    Type
REMARK                         _______ _______ _______ _____ _____    ______ ____
ROOT
ATOM      1  C   UNL     1       5.883   1.585  29.092  0.00  0.00    +0.193 C 
ATOM      2  C   UNL     1       5.041   2.651  28.359  0.00  0.00    +0.153 C 
ATOM      3  N   UNL     1       4.096   1.943  27.497  0.00  0.00    -0.285 N 
ATOM      4  C   UNL     1       3.518   2.540  26.389  0.00  0.00    +0.237 C 
ATOM      5  O   UNL     1       3.230   1.877  25.385  0.00  0.00    -0.274 OA
ATOM      6  C   UNL     1       4.369   0.495  27.539  0.00  0.00    +0.166 C 
ATOM      7  C   UNL     1       5.113   0.296  28.858  0.00  0.00    +0.078 C 
ENDROOT
BRANCH   6   8
ATOM      8  C   UNL     1       3.107  -0.402  27.568  0.00  0.00    +0.235 C 
ATOM      9  N   UNL     1       3.224  -1.616  26.946  0.00  0.00    -0.298 N 
ATOM     10  H   UNL     1       4.127  -1.883  26.555  0.00  0.00    +0.150 HD
ATOM     11  O   UNL     1       2.068  -0.107  28.165  0.00  0.00    -0.274 OA
BRANCH   9  12
ATOM     12  C   UNL     1       2.167  -2.602  26.944  0.00  0.00    +0.138 C 
ATOM     13  C   UNL     1       1.884  -3.300  25.617  0.00  0.00    +0.048 C 
ATOM     14  C   UNL     1       0.923  -2.274  26.138  0.00  0.00    +0.048 C 
BRANCH  12  15
ATOM     15  C   UNL     1       1.978  -3.339  28.253  0.00  0.00    +0.329 C 
ATOM     16  O   UNL     1       0.890  -3.457  28.795  0.00  0.00    -0.249 OA
BRANCH  15  17
ATOM     17  O   UNL     1       3.141  -3.773  28.802  0.00  0.00    -0.479 OA
ATOM     18  H   UNL     1       3.473  -3.118  29.459  0.00  0.00    +0.295 HD
ENDBRANCH  15  17
ENDBRANCH  12  15
BRANCH  13  19
ATOM     19  C   UNL     1       1.458  -4.696  25.545  0.00  0.00    -0.028 C 
ATOM     20  C   UNL     1       1.042  -5.332  24.442  0.00  0.00    +0.004 C 
ENDBRANCH  13  19
ENDBRANCH   9  12
ENDBRANCH   6   8
BRANCH   1  21
ATOM     21  O   UNL     1       7.201   1.527  28.546  0.00  0.00    -0.486 OA
BRANCH  21  24
ATOM     22  C   UNL     1       7.870  -0.507  25.659  0.00  0.00    +0.094 A 
ATOM     23  C   UNL     1       7.585  -0.083  26.946  0.00  0.00    +0.076 A 
ATOM     24  C   UNL     1       7.416   1.284  27.201  0.00  0.00    +0.132 A 
ATOM     25  C   UNL     1       7.516   2.208  26.117  0.00  0.00    +0.043 A 
ATOM     26  C   UNL     1       7.275   3.600  26.196  0.00  0.00    +0.017 A 
ATOM     27  C   UNL     1       7.584   4.491  25.181  0.00  0.00    +0.047 A 
ATOM     28  C   UNL     1       7.995   4.010  23.956  0.00  0.00    +0.136 A 
ATOM     29  C   UNL     1       8.100   2.616  23.790  0.00  0.00    +0.085 A 
ATOM     30 BR   UNL     1       8.518   1.940  22.043  0.00  0.00    -0.044 Br
ATOM     31  C   UNL     1       7.885   1.698  24.846  0.00  0.00    +0.093 A 
ATOM     32  N   UNL     1       8.028   0.367  24.639  0.00  0.00    -0.244 NA
BRANCH  22  39
ATOM     33  C   UNL     1       5.597  -5.345  26.164  0.00  0.00    +0.221 C 
ATOM     34  N   UNL     1       6.723  -5.247  25.376  0.00  0.00    -0.264 N 
ATOM     35  H   UNL     1       7.142  -6.058  24.956  0.00  0.00    +0.157 HD
ATOM     36  C   UNL     1       7.397  -4.056  25.254  0.00  0.00    +0.165 A 
ATOM     37  S   UNL     1       8.914  -4.165  24.482  0.00  0.00    -0.060 S 
ATOM     38  C   UNL     1       9.139  -2.476  24.732  0.00  0.00    +0.078 A 
ATOM     39  C   UNL     1       8.021  -1.933  25.344  0.00  0.00    +0.098 A 
ATOM     40  N   UNL     1       7.030  -2.861  25.642  0.00  0.00    -0.223 NA
ATOM     41  O   UNL     1       5.135  -4.447  26.865  0.00  0.00    -0.275 OA
BRANCH  33  43
ATOM     42  C   UNL     1       3.870  -6.827  27.221  0.00  0.00    +0.017 C 
ATOM     43  C   UNL     1       4.931  -6.725  26.123  0.00  0.00    +0.069 C 
ATOM     44  C   UNL     1       4.291  -6.980  24.760  0.00  0.00    +0.017 C 
ENDBRANCH  33  43
ENDBRANCH  22  39
BRANCH  28  45
ATOM     45  O   UNL     1       8.299   4.840  22.908  0.00  0.00    -0.494 OA
ATOM     46  C   UNL     1       7.188   5.429  22.231  0.00  0.00    +0.277 C 
ENDBRANCH  28  45
ENDBRANCH  21  24
ENDBRANCH   1  21
BRANCH   4  47
ATOM     47  C   UNL     1       3.097   4.038  26.461  0.00  0.00    +0.168 C 
BRANCH  47  48
ATOM     48  N   UNL     1       2.893   4.455  25.074  0.00  0.00    -0.269 N 
ATOM     49  H   UNL     1       2.473   3.792  24.429  0.00  0.00    +0.153 HD
ATOM     50  C   UNL     1       3.768   5.307  24.473  0.00  0.00    +0.401 C 
ATOM     51  O   UNL     1       4.609   5.969  25.068  0.00  0.00    -0.226 OA
BRANCH  50  52
ATOM     52  O   UNL     1       3.586   5.278  23.129  0.00  0.00    -0.447 OA
BRANCH  52  53
ATOM     53  C   UNL     1       2.492   4.474  22.681  0.00  0.00    +0.178 C 
ATOM     54  C   UNL     1       2.996   3.359  21.760  0.00  0.00    +0.045 C 
ATOM     55  C   UNL     1       1.941   3.197  20.662  0.00  0.00    +0.004 C 
ATOM     56  C   UNL     1       0.824   4.174  21.004  0.00  0.00    +0.004 C 
ATOM     57  C   UNL     1       1.517   5.259  21.808  0.00  0.00    +0.045 C 
ENDBRANCH  52  53
ENDBRANCH  50  52
ENDBRANCH  47  48
BRANCH  47  58
ATOM     58  C   UNL     1       1.820   4.295  27.339  0.00  0.00    -0.011 C 
ATOM     59  C   UNL     1       0.983   5.432  26.707  0.00  0.00    +0.013 C 
ATOM     60  C   UNL     1       2.209   4.742  28.761  0.00  0.00    +0.013 C 
ATOM     61  C   UNL     1       0.908   3.057  27.462  0.00  0.00    +0.013 C 
ENDBRANCH  47  58
ENDBRANCH   4  47
TORSDOF 15
ENDMDL
MODEL 3
REMARK VINA RESULT:      -4.8      1.830      3.636
REMARK  Name = 
REMARK  21 active torsions:
REMARK  status: ('A' for Active; 'I' for Inactive)
REMARK    1  A    between atoms: C_1  and  C_2
REMARK    2  A    between atoms: C_2  and  C_3
REMARK    3  A    between atoms: C_2  and  C_4
REMARK    4  A    between atoms: C_9  and  C_12
REMARK    5  A    between atoms: C_18  and  O_21
REMARK    6  A    between atoms: O_21  and  C_22
REMARK    7  A    between atoms: C_23  and  O_25
REMARK    8  A    between atoms: O_25  and  C_26
REMARK    9  A    between atoms: C_29  and  C_50
REMARK   10  A    between atoms: C_33  and  C_35
REMARK   11  A    between atoms: C_35  and  C_37
REMARK   12  A    between atoms: C_35  and  N_41
REMARK   13  A    between atoms: C_37  and  C_38
REMARK   14  A    between atoms: C_37  and  C_39
REMARK   15  A    between atoms: C_37  and  C_40
REMARK   16  A    between atoms: C_42  and  O_44
REMARK   17  A    between atoms: O_44  and  C_45
REMARK   18  A    between atoms: N_52  and  C_53
REMARK   19  A    between atoms: C_53  and  C_59
REMARK   20  A    between atoms: C_55  and  C_57
REMARK   21  A    between atoms: C_59  and  O_61
REMARK                            x       y       z     vdW  Elec       q    Type
REMARK                         _______ _______ _______ _____ _____    ______ ____
ROOT
ATOM      1  C   UNL     1       7.378   1.713  27.136  0.00  0.00    +0.193 C 
ATOM      2  C   UNL     1       8.002   0.884  25.994  0.00  0.00    +0.153 C 
ATOM      3  N   UNL     1       7.090   0.957  24.854  0.00  0.00    -0.285 N 
ATOM      4  C   UNL     1       7.087   0.003  23.849  0.00  0.00    +0.237 C 
ATOM      5  O   UNL     1       6.043  -0.295  23.256  0.00  0.00    -0.274 OA
ATOM      6  C   UNL     1       5.862   1.674  25.240  0.00  0.00    +0.166 C 
ATOM      7  C   UNL     1       6.287   2.513  26.445  0.00  0.00    +0.078 C 
ENDROOT
BRANCH   6   8
ATOM      8  C   UNL     1       5.310   2.641  24.164  0.00  0.00    +0.235 C 
ATOM      9  N   UNL     1       3.966   2.898  24.227  0.00  0.00    -0.298 N 
ATOM     10  H   UNL     1       3.424   2.497  24.992  0.00  0.00    +0.150 HD
ATOM     11  O   UNL     1       6.014   3.216  23.330  0.00  0.00    -0.274 OA
BRANCH   9  12
ATOM     12  C   UNL     1       3.304   3.832  23.345  0.00  0.00    +0.138 C 
ATOM     13  C   UNL     1       2.027   3.344  22.667  0.00  0.00    +0.048 C 
ATOM     14  C   UNL     1       3.286   3.487  21.867  0.00  0.00    +0.048 C 
BRANCH  12  15
ATOM     15  C   UNL     1       3.463   5.290  23.721  0.00  0.00    +0.329 C 
ATOM     16  O   UNL     1       3.798   6.148  22.919  0.00  0.00    -0.249 OA
BRANCH  15  17
ATOM     17  O   UNL     1       3.286   5.529  25.046  0.00  0.00    -0.479 OA
ATOM     18  H   UNL     1       4.158   5.653  25.489  0.00  0.00    +0.295 HD
ENDBRANCH  15  17
ENDBRANCH  12  15
BRANCH  13  19
ATOM     19  C   UNL     1       0.904   4.237  22.384  0.00  0.00    -0.028 C 
ATOM     20  C   UNL     1       0.459   4.572  21.166  0.00  0.00    +0.004 C 
ENDBRANCH  13  19
ENDBRANCH   9  12
ENDBRANCH   6   8
BRANCH   1  21
ATOM     21  O   UNL     1       6.851   0.852  28.146  0.00  0.00    -0.486 OA
BRANCH  21  24
ATOM     22  C   UNL     1       3.607  -0.676  27.905  0.00  0.00    +0.094 A 
ATOM     23  C   UNL     1       4.967  -0.432  27.826  0.00  0.00    +0.076 A 
ATOM     24  C   UNL     1       5.490   0.748  28.370  0.00  0.00    +0.132 A 
ATOM     25  C   UNL     1       4.605   1.663  29.020  0.00  0.00    +0.043 A 
ATOM     26  C   UNL     1       4.992   2.841  29.699  0.00  0.00    +0.017 A 
ATOM     27  C   UNL     1       4.097   3.807  30.132  0.00  0.00    +0.047 A 
ATOM     28  C   UNL     1       2.743   3.560  30.059  0.00  0.00    +0.136 A 
ATOM     29  C   UNL     1       2.319   2.327  29.526  0.00  0.00    +0.085 A 
ATOM     30 BR   UNL     1       0.445   1.917  29.569  0.00  0.00    -0.044 Br
ATOM     31  C   UNL     1       3.217   1.373  28.989  0.00  0.00    +0.093 A 
ATOM     32  N   UNL     1       2.753   0.215  28.461  0.00  0.00    -0.244 NA
BRANCH  22  39
ATOM     33  C   UNL     1       3.952  -4.327  23.983  0.00  0.00    +0.221 C 
ATOM     34  N   UNL     1       3.072  -4.577  25.014  0.00  0.00    -0.264 N 
ATOM     35  H   UNL     1       2.472  -5.383  25.007  0.00  0.00    +0.157 HD
ATOM     36  C   UNL     1       2.881  -3.658  26.017  0.00  0.00    +0.165 A 
ATOM     37  S   UNL     1       1.565  -3.986  27.051  0.00  0.00    -0.060 S 
ATOM     38  C   UNL     1       1.902  -2.530  27.907  0.00  0.00    +0.078 A 
ATOM     39  C   UNL     1       3.025  -1.915  27.377  0.00  0.00    +0.098 A 
ATOM     40  N   UNL     1       3.571  -2.578  26.284  0.00  0.00    -0.223 NA
ATOM     41  O   UNL     1       4.577  -3.281  23.816  0.00  0.00    -0.275 OA
BRANCH  33  43
ATOM     42  C   UNL     1       5.347  -6.308  23.331  0.00  0.00    +0.017 C 
ATOM     43  C   UNL     1       4.097  -5.491  22.997  0.00  0.00    +0.069 C 
ATOM     44  C   UNL     1       2.865  -6.393  23.034  0.00  0.00    +0.017 C 
ENDBRANCH  33  43
ENDBRANCH  22  39
BRANCH  28  45
ATOM     45  O   UNL     1       1.808   4.467  30.485  0.00  0.00    -0.494 OA
ATOM     46  C   UNL     1       1.265   5.327  29.482  0.00  0.00    +0.277 C 
ENDBRANCH  28  45
ENDBRANCH  21  24
ENDBRANCH   1  21
BRANCH   4  47
ATOM     47  C   UNL     1       8.438  -0.602  23.365  0.00  0.00    +0.168 C 
BRANCH  47  48
ATOM     48  N   UNL     1       9.473   0.304  23.862  0.00  0.00    -0.269 N 
ATOM     49  H   UNL     1       9.346   0.723  24.780  0.00  0.00    +0.153 HD
ATOM     50  C   UNL     1      10.171   1.096  23.003  0.00  0.00    +0.401 C 
ATOM     51  O   UNL     1      10.185   0.953  21.787  0.00  0.00    -0.226 OA
BRANCH  50  52
ATOM     52  O   UNL     1      10.808   2.073  23.695  0.00  0.00    -0.447 OA
BRANCH  52  53
ATOM     53  C   UNL     1      10.481   3.409  23.302  0.00  0.00    +0.178 C 
ATOM     54  C   UNL     1      11.727   4.298  23.361  0.00  0.00    +0.045 C 
ATOM     55  C   UNL     1      11.257   5.663  23.870  0.00  0.00    +0.004 C 
ATOM     56  C   UNL     1       9.746   5.554  24.035  0.00  0.00    +0.004 C 
ATOM     57  C   UNL     1       9.508   4.074  24.270  0.00  0.00    +0.045 C 
ENDBRANCH  52  53
ENDBRANCH  50  52
ENDBRANCH  47  48
BRANCH  47  58
ATOM     58  C   UNL     1       8.679  -2.079  23.842  0.00  0.00    -0.011 C 
ATOM     59  C   UNL     1      10.194  -2.389  23.806  0.00  0.00    +0.013 C 
ATOM     60  C   UNL     1       7.979  -3.082  22.906  0.00  0.00    +0.013 C 
ATOM     61  C   UNL     1       8.182  -2.341  25.279  0.00  0.00    +0.013 C 
ENDBRANCH  47  58
ENDBRANCH   4  47
TORSDOF 15
ENDMDL
MODEL 4
REMARK VINA RESULT:      -4.8      1.972      3.773
REMARK  Name = 
REMARK  21 active torsions:
REMARK  status: ('A' for Active; 'I' for Inactive)
REMARK    1  A    between atoms: C_1  and  C_2
REMARK    2  A    between atoms: C_2  and  C_3
REMARK    3  A    between atoms: C_2  and  C_4
REMARK    4  A    between atoms: C_9  and  C_12
REMARK    5  A    between atoms: C_18  and  O_21
REMARK    6  A    between atoms: O_21  and  C_22
REMARK    7  A    between atoms: C_23  and  O_25
REMARK    8  A    between atoms: O_25  and  C_26
REMARK    9  A    between atoms: C_29  and  C_50
REMARK   10  A    between atoms: C_33  and  C_35
REMARK   11  A    between atoms: C_35  and  C_37
REMARK   12  A    between atoms: C_35  and  N_41
REMARK   13  A    between atoms: C_37  and  C_38
REMARK   14  A    between atoms: C_37  and  C_39
REMARK   15  A    between atoms: C_37  and  C_40
REMARK   16  A    between atoms: C_42  and  O_44
REMARK   17  A    between atoms: O_44  and  C_45
REMARK   18  A    between atoms: N_52  and  C_53
REMARK   19  A    between atoms: C_53  and  C_59
REMARK   20  A    between atoms: C_55  and  C_57
REMARK   21  A    between atoms: C_59  and  O_61
REMARK                            x       y       z     vdW  Elec       q    Type
REMARK                         _______ _______ _______ _____ _____    ______ ____
ROOT
ATOM      1  C   UNL     1       7.568   0.248  27.189  0.00  0.00    +0.193 C 
ATOM      2  C   UNL     1       7.937  -0.839  26.159  0.00  0.00    +0.153 C 
ATOM      3  N   UNL     1       7.122  -0.606  24.967  0.00  0.00    -0.285 N 
ATOM      4  C   UNL     1       6.853  -1.608  24.050  0.00  0.00    +0.237 C 
ATOM      5  O   UNL     1       5.783  -1.631  23.428  0.00  0.00    -0.274 OA
ATOM      6  C   UNL     1       6.165   0.486  25.222  0.00  0.00    +0.166 C 
ATOM      7  C   UNL     1       6.795   1.270  26.372  0.00  0.00    +0.078 C 
ENDROOT
BRANCH   6   8
ATOM      8  C   UNL     1       5.965   1.463  24.038  0.00  0.00    +0.235 C 
ATOM      9  N   UNL     1       5.348   2.647  24.340  0.00  0.00    -0.298 N 
ATOM     10  H   UNL     1       5.109   2.843  25.312  0.00  0.00    +0.150 HD
ATOM     11  O   UNL     1       6.384   1.253  22.896  0.00  0.00    -0.274 OA
BRANCH   9  12
ATOM     12  C   UNL     1       5.150   3.699  23.368  0.00  0.00    +0.138 C 
ATOM     13  C   UNL     1       3.774   4.358  23.345  0.00  0.00    +0.048 C 
ATOM     14  C   UNL     1       4.170   3.420  22.244  0.00  0.00    +0.048 C 
BRANCH  12  15
ATOM     15  C   UNL     1       6.390   4.501  23.033  0.00  0.00    +0.329 C 
ATOM     16  O   UNL     1       6.795   4.646  21.890  0.00  0.00    -0.249 OA
BRANCH  15  17
ATOM     17  O   UNL     1       7.048   4.962  24.126  0.00  0.00    -0.479 OA
ATOM     18  H   UNL     1       6.467   5.568  24.643  0.00  0.00    +0.295 HD
ENDBRANCH  15  17
ENDBRANCH  12  15
BRANCH  13  19
ATOM     19  C   UNL     1       3.593   5.775  23.035  0.00  0.00    -0.028 C 
ATOM     20  C   UNL     1       2.468   6.478  23.218  0.00  0.00    +0.004 C 
ENDBRANCH  13  19
ENDBRANCH   9  12
ENDBRANCH   6   8
BRANCH   1  21
ATOM     21  O   UNL     1       6.775  -0.307  28.238  0.00  0.00    -0.486 OA
BRANCH  21  24
ATOM     22  C   UNL     1       3.261  -0.932  27.813  0.00  0.00    +0.094 A 
ATOM     23  C   UNL     1       4.639  -1.066  27.837  0.00  0.00    +0.076 A 
ATOM     24  C   UNL     1       5.425  -0.027  28.351  0.00  0.00    +0.132 A 
ATOM     25  C   UNL     1       4.781   1.139  28.866  0.00  0.00    +0.043 A 
ATOM     26  C   UNL     1       5.427   2.224  29.505  0.00  0.00    +0.017 A 
ATOM     27  C   UNL     1       4.801   3.424  29.800  0.00  0.00    +0.047 A 
ATOM     28  C   UNL     1       3.438   3.541  29.626  0.00  0.00    +0.136 A 
ATOM     29  C   UNL     1       2.733   2.427  29.135  0.00  0.00    +0.085 A 
ATOM     30 BR   UNL     1       0.819   2.534  29.042  0.00  0.00    -0.044 Br
ATOM     31  C   UNL     1       3.372   1.228  28.734  0.00  0.00    +0.093 A 
ATOM     32  N   UNL     1       2.646   0.196  28.240  0.00  0.00    -0.244 NA
BRANCH  22  39
ATOM     33  C   UNL     1       2.861  -4.850  24.163  0.00  0.00    +0.221 C 
ATOM     34  N   UNL     1       1.880  -4.772  25.128  0.00  0.00    -0.264 N 
ATOM     35  H   UNL     1       1.085  -5.387  25.119  0.00  0.00    +0.157 HD
ATOM     36  C   UNL     1       1.879  -3.757  26.054  0.00  0.00    +0.165 A 
ATOM     37  S   UNL     1       0.458  -3.638  26.989  0.00  0.00    -0.060 S 
ATOM     38  C   UNL     1       1.120  -2.259  27.781  0.00  0.00    +0.078 A 
ATOM     39  C   UNL     1       2.401  -2.011  27.313  0.00  0.00    +0.098 A 
ATOM     40  N   UNL     1       2.818  -2.881  26.313  0.00  0.00    -0.223 NA
ATOM     41  O   UNL     1       3.756  -4.025  23.987  0.00  0.00    -0.275 OA
BRANCH  33  43
ATOM     42  C   UNL     1       3.200  -7.333  24.032  0.00  0.00    +0.017 C 
ATOM     43  C   UNL     1       2.750  -6.086  23.265  0.00  0.00    +0.069 C 
ATOM     44  C   UNL     1       1.316  -6.273  22.771  0.00  0.00    +0.017 C 
ENDBRANCH  33  43
ENDBRANCH  22  39
BRANCH  28  45
ATOM     45  O   UNL     1       2.759   4.696  29.916  0.00  0.00    -0.494 OA
ATOM     46  C   UNL     1       3.553   5.878  30.032  0.00  0.00    +0.277 C 
ENDBRANCH  28  45
ENDBRANCH  21  24
ENDBRANCH   1  21
BRANCH   4  47
ATOM     47  C   UNL     1       7.965  -2.639  23.695  0.00  0.00    +0.168 C 
BRANCH  47  48
ATOM     48  N   UNL     1       9.224  -2.007  24.086  0.00  0.00    -0.269 N 
ATOM     49  H   UNL     1       9.239  -1.447  24.934  0.00  0.00    +0.153 HD
ATOM     50  C   UNL     1      10.102  -1.573  23.141  0.00  0.00    +0.401 C 
ATOM     51  O   UNL     1      10.052  -1.878  21.956  0.00  0.00    -0.226 OA
BRANCH  50  52
ATOM     52  O   UNL     1      11.005  -0.732  23.706  0.00  0.00    -0.447 OA
BRANCH  52  53
ATOM     53  C   UNL     1      10.878   0.641  23.326  0.00  0.00    +0.178 C 
ATOM     54  C   UNL     1      10.403   1.478  24.517  0.00  0.00    +0.045 C 
ATOM     55  C   UNL     1       9.443   2.527  23.951  0.00  0.00    +0.004 C 
ATOM     56  C   UNL     1       9.429   2.315  22.443  0.00  0.00    +0.004 C 
ATOM     57  C   UNL     1       9.794   0.851  22.274  0.00  0.00    +0.045 C 
ENDBRANCH  52  53
ENDBRANCH  50  52
ENDBRANCH  47  48
BRANCH  47  58
ATOM     58  C   UNL     1       7.776  -4.037  24.386  0.00  0.00    -0.011 C 
ATOM     59  C   UNL     1       9.141  -4.538  24.913  0.00  0.00    +0.013 C 
ATOM     60  C   UNL     1       7.256  -5.084  23.382  0.00  0.00    +0.013 C 
ATOM     61  C   UNL     1       6.800  -3.998  25.580  0.00  0.00    +0.013 C 
ENDBRANCH  47  58
ENDBRANCH   4  47
TORSDOF 15
ENDMDL
MODEL 5
REMARK VINA RESULT:      -4.6      3.007      6.632
REMARK  Name = 
REMARK  21 active torsions:
REMARK  status: ('A' for Active; 'I' for Inactive)
REMARK    1  A    between atoms: C_1  and  C_2
REMARK    2  A    between atoms: C_2  and  C_3
REMARK    3  A    between atoms: C_2  and  C_4
REMARK    4  A    between atoms: C_9  and  C_12
REMARK    5  A    between atoms: C_18  and  O_21
REMARK    6  A    between atoms: O_21  and  C_22
REMARK    7  A    between atoms: C_23  and  O_25
REMARK    8  A    between atoms: O_25  and  C_26
REMARK    9  A    between atoms: C_29  and  C_50
REMARK   10  A    between atoms: C_33  and  C_35
REMARK   11  A    between atoms: C_35  and  C_37
REMARK   12  A    between atoms: C_35  and  N_41
REMARK   13  A    between atoms: C_37  and  C_38
REMARK   14  A    between atoms: C_37  and  C_39
REMARK   15  A    between atoms: C_37  and  C_40
REMARK   16  A    between atoms: C_42  and  O_44
REMARK   17  A    between atoms: O_44  and  C_45
REMARK   18  A    between atoms: N_52  and  C_53
REMARK   19  A    between atoms: C_53  and  C_59
REMARK   20  A    between atoms: C_55  and  C_57
REMARK   21  A    between atoms: C_59  and  O_61
REMARK                            x       y       z     vdW  Elec       q    Type
REMARK                         _______ _______ _______ _____ _____    ______ ____
ROOT
ATOM      1  C   UNL     1       6.981   0.365  25.552  0.00  0.00    +0.193 C 
ATOM      2  C   UNL     1       5.713   1.108  25.082  0.00  0.00    +0.153 C 
ATOM      3  N   UNL     1       5.891   2.523  25.406  0.00  0.00    -0.285 N 
ATOM      4  C   UNL     1       4.818   3.388  25.547  0.00  0.00    +0.237 C 
ATOM      5  O   UNL     1       4.865   4.336  26.341  0.00  0.00    -0.274 OA
ATOM      6  C   UNL     1       7.138   2.708  26.169  0.00  0.00    +0.166 C 
ATOM      7  C   UNL     1       7.977   1.483  25.809  0.00  0.00    +0.078 C 
ENDROOT
BRANCH   6   8
ATOM      8  C   UNL     1       7.953   3.967  25.784  0.00  0.00    +0.235 C 
ATOM      9  N   UNL     1       8.573   3.926  24.564  0.00  0.00    -0.298 N 
ATOM     10  H   UNL     1       8.425   3.115  23.964  0.00  0.00    +0.150 HD
ATOM     11  O   UNL     1       8.006   4.989  26.474  0.00  0.00    -0.274 OA
BRANCH   9  12
ATOM     12  C   UNL     1       9.312   5.044  24.021  0.00  0.00    +0.138 C 
ATOM     13  C   UNL     1      10.820   4.863  23.879  0.00  0.00    +0.048 C 
ATOM     14  C   UNL     1      10.275   5.751  24.957  0.00  0.00    +0.048 C 
BRANCH  12  15
ATOM     15  C   UNL     1       8.546   5.896  23.031  0.00  0.00    +0.329 C 
ATOM     16  O   UNL     1       8.437   7.107  23.145  0.00  0.00    -0.249 OA
BRANCH  15  17
ATOM     17  O   UNL     1       7.923   5.175  22.065  0.00  0.00    -0.479 OA
ATOM     18  H   UNL     1       7.569   4.335  22.441  0.00  0.00    +0.295 HD
ENDBRANCH  15  17
ENDBRANCH  12  15
BRANCH  13  19
ATOM     19  C   UNL     1      11.578   5.464  22.783  0.00  0.00    -0.028 C 
ATOM     20  C   UNL     1      12.913   5.505  22.686  0.00  0.00    +0.004 C 
ENDBRANCH  13  19
ENDBRANCH   9  12
ENDBRANCH   6   8
BRANCH   1  21
ATOM     21  O   UNL     1       6.708  -0.389  26.733  0.00  0.00    -0.486 OA
BRANCH  21  24
ATOM     22  C   UNL     1       4.535  -3.058  25.697  0.00  0.00    +0.094 A 
ATOM     23  C   UNL     1       5.597  -2.176  25.800  0.00  0.00    +0.076 A 
ATOM     24  C   UNL     1       5.605  -1.220  26.822  0.00  0.00    +0.132 A 
ATOM     25  C   UNL     1       4.524  -1.194  27.755  0.00  0.00    +0.043 A 
ATOM     26  C   UNL     1       4.436  -0.359  28.893  0.00  0.00    +0.017 A 
ATOM     27  C   UNL     1       3.286  -0.213  29.652  0.00  0.00    +0.047 A 
ATOM     28  C   UNL     1       2.205  -1.034  29.412  0.00  0.00    +0.136 A 
ATOM     29  C   UNL     1       2.310  -1.987  28.382  0.00  0.00    +0.085 A 
ATOM     30 BR   UNL     1       0.869  -3.234  28.151  0.00  0.00    -0.044 Br
ATOM     31  C   UNL     1       3.440  -2.081  27.533  0.00  0.00    +0.093 A 
ATOM     32  N   UNL     1       3.476  -2.999  26.538  0.00  0.00    -0.244 NA
BRANCH  22  39
ATOM     33  C   UNL     1       1.503  -6.863  23.427  0.00  0.00    +0.221 C 
ATOM     34  N   UNL     1       2.723  -6.588  22.848  0.00  0.00    -0.264 N 
ATOM     35  H   UNL     1       3.064  -7.117  22.065  0.00  0.00    +0.157 HD
ATOM     36  C   UNL     1       3.581  -5.675  23.412  0.00  0.00    +0.165 A 
ATOM     37  S   UNL     1       5.151  -5.657  22.744  0.00  0.00    -0.060 S 
ATOM     38  C   UNL     1       5.597  -4.441  23.879  0.00  0.00    +0.078 A 
ATOM     39  C   UNL     1       4.505  -4.096  24.660  0.00  0.00    +0.098 A 
ATOM     40  N   UNL     1       3.354  -4.823  24.379  0.00  0.00    -0.223 NA
ATOM     41  O   UNL     1       1.098  -6.402  24.493  0.00  0.00    -0.275 OA
BRANCH  33  43
ATOM     42  C   UNL     1       1.181  -7.964  21.195  0.00  0.00    +0.017 C 
ATOM     43  C   UNL     1       0.645  -7.847  22.624  0.00  0.00    +0.069 C 
ATOM     44  C   UNL     1       0.632  -9.224  23.285  0.00  0.00    +0.017 C 
ENDBRANCH  33  43
ENDBRANCH  22  39
BRANCH  28  45
ATOM     45  O   UNL     1       1.045  -0.949  30.139  0.00  0.00    -0.494 OA
ATOM     46  C   UNL     1       0.459   0.349  30.236  0.00  0.00    +0.277 C 
ENDBRANCH  28  45
ENDBRANCH  21  24
ENDBRANCH   1  21
BRANCH   4  47
ATOM     47  C   UNL     1       3.592   3.248  24.597  0.00  0.00    +0.168 C 
BRANCH  47  48
ATOM     48  N   UNL     1       2.470   3.852  25.314  0.00  0.00    -0.269 N 
ATOM     49  H   UNL     1       2.619   4.743  25.780  0.00  0.00    +0.153 HD
ATOM     50  C   UNL     1       1.545   3.070  25.936  0.00  0.00    +0.401 C 
ATOM     51  O   UNL     1       1.421   1.865  25.753  0.00  0.00    -0.226 OA
BRANCH  50  52
ATOM     52  O   UNL     1       0.819   3.819  26.802  0.00  0.00    -0.447 OA
BRANCH  52  53
ATOM     53  C   UNL     1       0.996   3.493  28.184  0.00  0.00    +0.178 C 
ATOM     54  C   UNL     1       0.594   4.681  29.064  0.00  0.00    +0.045 C 
ATOM     55  C   UNL     1       1.585   4.707  30.230  0.00  0.00    +0.004 C 
ATOM     56  C   UNL     1       2.498   3.504  30.035  0.00  0.00    +0.004 C 
ATOM     57  C   UNL     1       2.460   3.252  28.538  0.00  0.00    +0.045 C 
ENDBRANCH  52  53
ENDBRANCH  50  52
ENDBRANCH  47  48
BRANCH  47  58
ATOM     58  C   UNL     1       3.805   3.907  23.188  0.00  0.00    -0.011 C 
ATOM     59  C   UNL     1       4.184   5.395  23.368  0.00  0.00    +0.013 C 
ATOM     60  C   UNL     1       2.510   3.857  22.354  0.00  0.00    +0.013 C 
ATOM     61  C   UNL     1       4.925   3.236  22.366  0.00  0.00    +0.013 C 
ENDBRANCH  47  58
ENDBRANCH   4  47
TORSDOF 15
ENDMDL
MODEL 6
REMARK VINA RESULT:      -4.3      2.976      7.754
REMARK  Name = 
REMARK  21 active torsions:
REMARK  status: ('A' for Active; 'I' for Inactive)
REMARK    1  A    between atoms: C_1  and  C_2
REMARK    2  A    between atoms: C_2  and  C_3
REMARK    3  A    between atoms: C_2  and  C_4
REMARK    4  A    between atoms: C_9  and  C_12
REMARK    5  A    between atoms: C_18  and  O_21
REMARK    6  A    between atoms: O_21  and  C_22
REMARK    7  A    between atoms: C_23  and  O_25
REMARK    8  A    between atoms: O_25  and  C_26
REMARK    9  A    between atoms: C_29  and  C_50
REMARK   10  A    between atoms: C_33  and  C_35
REMARK   11  A    between atoms: C_35  and  C_37
REMARK   12  A    between atoms: C_35  and  N_41
REMARK   13  A    between atoms: C_37  and  C_38
REMARK   14  A    between atoms: C_37  and  C_39
REMARK   15  A    between atoms: C_37  and  C_40
REMARK   16  A    between atoms: C_42  and  O_44
REMARK   17  A    between atoms: O_44  and  C_45
REMARK   18  A    between atoms: N_52  and  C_53
REMARK   19  A    between atoms: C_53  and  C_59
REMARK   20  A    between atoms: C_55  and  C_57
REMARK   21  A    between atoms: C_59  and  O_61
REMARK                            x       y       z     vdW  Elec       q    Type
REMARK                         _______ _______ _______ _____ _____    ______ ____
ROOT
ATOM      1  C   UNL     1       6.086   1.297  28.936  0.00  0.00    +0.193 C 
ATOM      2  C   UNL     1       4.944   2.274  28.584  0.00  0.00    +0.153 C 
ATOM      3  N   UNL     1       4.016   1.562  27.707  0.00  0.00    -0.285 N 
ATOM      4  C   UNL     1       3.152   2.227  26.852  0.00  0.00    +0.237 C 
ATOM      5  O   UNL     1       2.826   1.734  25.765  0.00  0.00    -0.274 OA
ATOM      6  C   UNL     1       4.561   0.234  27.374  0.00  0.00    +0.166 C 
ATOM      7  C   UNL     1       5.546  -0.056  28.505  0.00  0.00    +0.078 C 
ENDROOT
BRANCH   6   8
ATOM      8  C   UNL     1       3.517  -0.909  27.352  0.00  0.00    +0.235 C 
ATOM      9  N   UNL     1       4.022  -2.175  27.228  0.00  0.00    -0.298 N 
ATOM     10  H   UNL     1       5.034  -2.302  27.213  0.00  0.00    +0.150 HD
ATOM     11  O   UNL     1       2.305  -0.736  27.505  0.00  0.00    -0.274 OA
BRANCH   9  12
ATOM     12  C   UNL     1       3.192  -3.358  27.263  0.00  0.00    +0.138 C 
ATOM     13  C   UNL     1       3.410  -4.380  26.152  0.00  0.00    +0.048 C 
ATOM     14  C   UNL     1       2.181  -3.522  26.144  0.00  0.00    +0.048 C 
BRANCH  12  15
ATOM     15  C   UNL     1       2.781  -3.809  28.649  0.00  0.00    +0.329 C 
ATOM     16  O   UNL     1       1.652  -4.192  28.913  0.00  0.00    -0.249 OA
BRANCH  15  17
ATOM     17  O   UNL     1       3.759  -3.661  29.579  0.00  0.00    -0.479 OA
ATOM     18  H   UNL     1       3.460  -4.016  30.449  0.00  0.00    +0.295 HD
ENDBRANCH  15  17
ENDBRANCH  12  15
BRANCH  13  19
ATOM     19  C   UNL     1       3.267  -5.818  26.375  0.00  0.00    -0.028 C 
ATOM     20  C   UNL     1       4.260  -6.666  26.673  0.00  0.00    +0.004 C 
ENDBRANCH  13  19
ENDBRANCH   9  12
ENDBRANCH   6   8
BRANCH   1  21
ATOM     21  O   UNL     1       7.276   1.647  28.229  0.00  0.00    -0.486 OA
BRANCH  21  24
ATOM     22  C   UNL     1       7.774   0.939  24.741  0.00  0.00    +0.094 A 
ATOM     23  C   UNL     1       7.674   0.823  26.117  0.00  0.00    +0.076 A 
ATOM     24  C   UNL     1       7.258   1.925  26.874  0.00  0.00    +0.132 A 
ATOM     25  C   UNL     1       6.918   3.139  26.202  0.00  0.00    +0.043 A 
ATOM     26  C   UNL     1       6.391   4.300  26.813  0.00  0.00    +0.017 A 
ATOM     27  C   UNL     1       6.272   5.522  26.169  0.00  0.00    +0.047 A 
ATOM     28  C   UNL     1       6.519   5.602  24.815  0.00  0.00    +0.136 A 
ATOM     29  C   UNL     1       6.900   4.428  24.138  0.00  0.00    +0.085 A 
ATOM     30 BR   UNL     1       7.088   4.504  22.229  0.00  0.00    -0.044 Br
ATOM     31  C   UNL     1       7.122   3.196  24.800  0.00  0.00    +0.093 A 
ATOM     32  N   UNL     1       7.516   2.104  24.102  0.00  0.00    -0.244 NA
BRANCH  22  39
ATOM     33  C   UNL     1       6.200  -3.823  22.825  0.00  0.00    +0.221 C 
ATOM     34  N   UNL     1       7.392  -3.310  22.361  0.00  0.00    -0.264 N 
ATOM     35  H   UNL     1       7.978  -3.830  21.733  0.00  0.00    +0.157 HD
ATOM     36  C   UNL     1       7.892  -2.130  22.856  0.00  0.00    +0.165 A 
ATOM     37  S   UNL     1       9.495  -1.779  22.394  0.00  0.00    -0.060 S 
ATOM     38  C   UNL     1       9.432  -0.342  23.342  0.00  0.00    +0.078 A 
ATOM     39  C   UNL     1       8.175  -0.202  23.909  0.00  0.00    +0.098 A 
ATOM     40  N   UNL     1       7.303  -1.245  23.621  0.00  0.00    -0.223 NA
ATOM     41  O   UNL     1       5.522  -3.346  23.734  0.00  0.00    -0.275 OA
BRANCH  33  43
ATOM     42  C   UNL     1       6.975  -5.821  21.520  0.00  0.00    +0.017 C 
ATOM     43  C   UNL     1       5.757  -5.104  22.110  0.00  0.00    +0.069 C 
ATOM     44  C   UNL     1       5.023  -6.038  23.070  0.00  0.00    +0.017 C 
ENDBRANCH  33  43
ENDBRANCH  22  39
BRANCH  28  45
ATOM     45  O   UNL     1       6.403   6.777  24.118  0.00  0.00    -0.494 OA
ATOM     46  C   UNL     1       5.092   7.108  23.659  0.00  0.00    +0.277 C 
ENDBRANCH  28  45
ENDBRANCH  21  24
ENDBRANCH   1  21
BRANCH   4  47
ATOM     47  C   UNL     1       2.473   3.546  27.326  0.00  0.00    +0.168 C 
BRANCH  47  48
ATOM     48  N   UNL     1       1.900   4.146  26.121  0.00  0.00    -0.269 N 
ATOM     49  H   UNL     1       1.554   3.527  25.392  0.00  0.00    +0.153 HD
ATOM     50  C   UNL     1       2.381   5.325  25.640  0.00  0.00    +0.401 C 
ATOM     51  O   UNL     1       3.114   6.081  26.265  0.00  0.00    -0.226 OA
BRANCH  50  52
ATOM     52  O   UNL     1       1.955   5.507  24.365  0.00  0.00    -0.447 OA
BRANCH  52  53
ATOM     53  C   UNL     1       1.896   4.321  23.568  0.00  0.00    +0.178 C 
ATOM     54  C   UNL     1       3.291   3.960  23.050  0.00  0.00    +0.045 C 
ATOM     55  C   UNL     1       3.097   3.427  21.628  0.00  0.00    +0.004 C 
ATOM     56  C   UNL     1       1.595   3.432  21.377  0.00  0.00    +0.004 C 
ATOM     57  C   UNL     1       1.071   4.518  22.300  0.00  0.00    +0.045 C 
ENDBRANCH  52  53
ENDBRANCH  50  52
ENDBRANCH  47  48
BRANCH  47  58
ATOM     58  C   UNL     1       1.389   3.335  28.443  0.00  0.00    -0.011 C 
ATOM     59  C   UNL     1       0.527   2.099  28.095  0.00  0.00    +0.013 C 
ATOM     60  C   UNL     1       0.443   4.549  28.531  0.00  0.00    +0.013 C 
ATOM     61  C   UNL     1       1.996   3.103  29.842  0.00  0.00    +0.013 C 
ENDBRANCH  47  58
ENDBRANCH   4  47
TORSDOF 15
ENDMDL
MODEL 7
REMARK VINA RESULT:      -4.3      2.629      6.140
REMARK  Name = 
REMARK  21 active torsions:
REMARK  status: ('A' for Active; 'I' for Inactive)
REMARK    1  A    between atoms: C_1  and  C_2
REMARK    2  A    between atoms: C_2  and  C_3
REMARK    3  A    between atoms: C_2  and  C_4
REMARK    4  A    between atoms: C_9  and  C_12
REMARK    5  A    between atoms: C_18  and  O_21
REMARK    6  A    between atoms: O_21  and  C_22
REMARK    7  A    between atoms: C_23  and  O_25
REMARK    8  A    between atoms: O_25  and  C_26
REMARK    9  A    between atoms: C_29  and  C_50
REMARK   10  A    between atoms: C_33  and  C_35
REMARK   11  A    between atoms: C_35  and  C_37
REMARK   12  A    between atoms: C_35  and  N_41
REMARK   13  A    between atoms: C_37  and  C_38
REMARK   14  A    between atoms: C_37  and  C_39
REMARK   15  A    between atoms: C_37  and  C_40
REMARK   16  A    between atoms: C_42  and  O_44
REMARK   17  A    between atoms: O_44  and  C_45
REMARK   18  A    between atoms: N_52  and  C_53
REMARK   19  A    between atoms: C_53  and  C_59
REMARK   20  A    between atoms: C_55  and  C_57
REMARK   21  A    between atoms: C_59  and  O_61
REMARK                            x       y       z     vdW  Elec       q    Type
REMARK                         _______ _______ _______ _____ _____    ______ ____
ROOT
ATOM      1  C   UNL     1       6.853  -2.335  26.736  0.00  0.00    +0.193 C 
ATOM      2  C   UNL     1       7.558  -1.683  25.527  0.00  0.00    +0.153 C 
ATOM      3  N   UNL     1       7.174  -0.273  25.506  0.00  0.00    -0.285 N 
ATOM      4  C   UNL     1       7.236   0.492  24.353  0.00  0.00    +0.237 C 
ATOM      5  O   UNL     1       6.430   1.409  24.152  0.00  0.00    -0.274 OA
ATOM      6  C   UNL     1       6.168  -0.013  26.552  0.00  0.00    +0.166 C 
ATOM      7  C   UNL     1       6.374  -1.147  27.554  0.00  0.00    +0.078 C 
ENDROOT
BRANCH   6   8
ATOM      8  C   UNL     1       6.351   1.325  27.309  0.00  0.00    +0.235 C 
ATOM      9  N   UNL     1       5.634   2.386  26.825  0.00  0.00    -0.298 N 
ATOM     10  H   UNL     1       4.992   2.233  26.048  0.00  0.00    +0.150 HD
ATOM     11  O   UNL     1       7.034   1.450  28.329  0.00  0.00    -0.274 OA
BRANCH   9  12
ATOM     12  C   UNL     1       5.633   3.687  27.457  0.00  0.00    +0.138 C 
ATOM     13  C   UNL     1       5.695   4.897  26.531  0.00  0.00    +0.048 C 
ATOM     14  C   UNL     1       6.901   4.512  27.333  0.00  0.00    +0.048 C 
BRANCH  12  15
ATOM     15  C   UNL     1       4.876   3.761  28.766  0.00  0.00    +0.329 C 
ATOM     16  O   UNL     1       3.658   3.693  28.831  0.00  0.00    -0.249 OA
BRANCH  15  17
ATOM     17  O   UNL     1       5.672   3.997  29.839  0.00  0.00    -0.479 OA
ATOM     18  H   UNL     1       5.125   4.107  30.652  0.00  0.00    +0.295 HD
ENDBRANCH  15  17
ENDBRANCH  12  15
BRANCH  13  19
ATOM     19  C   UNL     1       5.012   6.152  26.841  0.00  0.00    -0.028 C 
ATOM     20  C   UNL     1       4.283   6.879  25.983  0.00  0.00    +0.004 C 
ENDBRANCH  13  19
ENDBRANCH   9  12
ENDBRANCH   6   8
BRANCH   1  21
ATOM     21  O   UNL     1       5.770  -3.156  26.300  0.00  0.00    -0.486 OA
BRANCH  21  24
ATOM     22  C   UNL     1       2.755  -1.808  27.716  0.00  0.00    +0.094 A 
ATOM     23  C   UNL     1       3.938  -1.959  27.014  0.00  0.00    +0.076 A 
ATOM     24  C   UNL     1       4.575  -3.206  26.994  0.00  0.00    +0.132 A 
ATOM     25  C   UNL     1       3.970  -4.304  27.680  0.00  0.00    +0.043 A 
ATOM     26  C   UNL     1       4.436  -5.639  27.670  0.00  0.00    +0.017 A 
ATOM     27  C   UNL     1       3.950  -6.628  28.510  0.00  0.00    +0.047 A 
ATOM     28  C   UNL     1       2.843  -6.372  29.291  0.00  0.00    +0.136 A 
ATOM     29  C   UNL     1       2.255  -5.096  29.214  0.00  0.00    +0.085 A 
ATOM     30 BR   UNL     1       0.624  -4.789  30.178  0.00  0.00    -0.044 Br
ATOM     31  C   UNL     1       2.799  -4.045  28.436  0.00  0.00    +0.093 A 
ATOM     32  N   UNL     1       2.208  -2.825  28.421  0.00  0.00    -0.244 NA
BRANCH  22  39
ATOM     33  C   UNL     1       2.356   2.994  25.346  0.00  0.00    +0.221 C 
ATOM     34  N   UNL     1       1.420   2.674  26.305  0.00  0.00    -0.264 N 
ATOM     35  H   UNL     1       0.721   3.335  26.596  0.00  0.00    +0.157 HD
ATOM     36  C   UNL     1       1.497   1.493  27.001  0.00  0.00    +0.165 A 
ATOM     37  S   UNL     1       0.443   1.375  28.337  0.00  0.00    -0.060 S 
ATOM     38  C   UNL     1       1.095  -0.180  28.687  0.00  0.00    +0.078 A 
ATOM     39  C   UNL     1       2.040  -0.526  27.734  0.00  0.00    +0.098 A 
ATOM     40  N   UNL     1       2.261   0.454  26.774  0.00  0.00    -0.223 NA
ATOM     41  O   UNL     1       3.353   2.327  25.071  0.00  0.00    -0.275 OA
BRANCH  33  43
ATOM     42  C   UNL     1       2.226   4.118  23.106  0.00  0.00    +0.017 C 
ATOM     43  C   UNL     1       2.072   4.312  24.617  0.00  0.00    +0.069 C 
ATOM     44  C   UNL     1       0.665   4.816  24.933  0.00  0.00    +0.017 C 
ENDBRANCH  33  43
ENDBRANCH  22  39
BRANCH  28  45
ATOM     45  O   UNL     1       2.305  -7.314  30.130  0.00  0.00    -0.494 OA
ATOM     46  C   UNL     1       1.645  -8.412  29.499  0.00  0.00    +0.277 C 
ENDBRANCH  28  45
ENDBRANCH  21  24
ENDBRANCH   1  21
BRANCH   4  47
ATOM     47  C   UNL     1       8.420   0.286  23.362  0.00  0.00    +0.168 C 
BRANCH  47  48
ATOM     48  N   UNL     1       7.976  -0.751  22.431  0.00  0.00    -0.269 N 
ATOM     49  H   UNL     1       6.989  -0.794  22.193  0.00  0.00    +0.153 HD
ATOM     50  C   UNL     1       8.586  -1.968  22.409  0.00  0.00    +0.401 C 
ATOM     51  O   UNL     1       9.659  -2.214  22.945  0.00  0.00    -0.226 OA
BRANCH  50  52
ATOM     52  O   UNL     1       7.810  -2.857  21.741  0.00  0.00    -0.447 OA
BRANCH  52  53
ATOM     53  C   UNL     1       7.170  -3.841  22.559  0.00  0.00    +0.178 C 
ATOM     54  C   UNL     1       7.157  -5.196  21.845  0.00  0.00    +0.045 C 
ATOM     55  C   UNL     1       5.813  -5.847  22.184  0.00  0.00    +0.004 C 
ATOM     56  C   UNL     1       5.107  -4.887  23.132  0.00  0.00    +0.004 C 
ATOM     57  C   UNL     1       5.694  -3.530  22.787  0.00  0.00    +0.045 C 
ENDBRANCH  52  53
ENDBRANCH  50  52
ENDBRANCH  47  48
BRANCH  47  58
ATOM     58  C   UNL     1       8.853   1.596  22.611  0.00  0.00    -0.011 C 
ATOM     59  C   UNL     1      10.181   1.342  21.861  0.00  0.00    +0.013 C 
ATOM     60  C   UNL     1       9.095   2.748  23.605  0.00  0.00    +0.013 C 
ATOM     61  C   UNL     1       7.814   2.072  21.574  0.00  0.00    +0.013 C 
ENDBRANCH  47  58
ENDBRANCH   4  47
TORSDOF 15
ENDMDL
MODEL 8
REMARK VINA RESULT:      -4.2      3.422      8.019
REMARK  Name = 
REMARK  21 active torsions:
REMARK  status: ('A' for Active; 'I' for Inactive)
REMARK    1  A    between atoms: C_1  and  C_2
REMARK    2  A    between atoms: C_2  and  C_3
REMARK    3  A    between atoms: C_2  and  C_4
REMARK    4  A    between atoms: C_9  and  C_12
REMARK    5  A    between atoms: C_18  and  O_21
REMARK    6  A    between atoms: O_21  and  C_22
REMARK    7  A    between atoms: C_23  and  O_25
REMARK    8  A    between atoms: O_25  and  C_26
REMARK    9  A    between atoms: C_29  and  C_50
REMARK   10  A    between atoms: C_33  and  C_35
REMARK   11  A    between atoms: C_35  and  C_37
REMARK   12  A    between atoms: C_35  and  N_41
REMARK   13  A    between atoms: C_37  and  C_38
REMARK   14  A    between atoms: C_37  and  C_39
REMARK   15  A    between atoms: C_37  and  C_40
REMARK   16  A    between atoms: C_42  and  O_44
REMARK   17  A    between atoms: O_44  and  C_45
REMARK   18  A    between atoms: N_52  and  C_53
REMARK   19  A    between atoms: C_53  and  C_59
REMARK   20  A    between atoms: C_55  and  C_57
REMARK   21  A    between atoms: C_59  and  O_61
REMARK                            x       y       z     vdW  Elec       q    Type
REMARK                         _______ _______ _______ _____ _____    ______ ____
ROOT
ATOM      1  C   UNL     1       5.844   0.248  24.246  0.00  0.00    +0.193 C 
ATOM      2  C   UNL     1       5.824  -1.294  24.196  0.00  0.00    +0.153 C 
ATOM      3  N   UNL     1       5.497  -1.769  25.540  0.00  0.00    -0.285 N 
ATOM      4  C   UNL     1       5.828  -3.043  25.973  0.00  0.00    +0.237 C 
ATOM      5  O   UNL     1       6.104  -3.261  27.159  0.00  0.00    -0.274 OA
ATOM      6  C   UNL     1       5.433  -0.629  26.472  0.00  0.00    +0.166 C 
ATOM      7  C   UNL     1       5.169   0.573  25.568  0.00  0.00    +0.078 C 
ENDROOT
BRANCH   6   8
ATOM      8  C   UNL     1       4.285  -0.702  27.508  0.00  0.00    +0.235 C 
ATOM      9  N   UNL     1       3.024  -0.495  27.016  0.00  0.00    -0.298 N 
ATOM     10  H   UNL     1       2.904  -0.363  26.011  0.00  0.00    +0.150 HD
ATOM     11  O   UNL     1       4.448  -0.995  28.696  0.00  0.00    -0.274 OA
BRANCH   9  12
ATOM     12  C   UNL     1       1.836  -0.599  27.832  0.00  0.00    +0.138 C 
ATOM     13  C   UNL     1       1.480  -1.991  28.346  0.00  0.00    +0.048 C 
ATOM     14  C   UNL     1       0.667  -1.372  27.249  0.00  0.00    +0.048 C 
BRANCH  12  15
ATOM     15  C   UNL     1       1.520   0.628  28.660  0.00  0.00    +0.329 C 
ATOM     16  O   UNL     1       0.443   1.202  28.610  0.00  0.00    -0.249 OA
BRANCH  15  17
ATOM     17  O   UNL     1       2.574   1.075  29.390  0.00  0.00    -0.479 OA
ATOM     18  H   UNL     1       3.157   1.643  28.834  0.00  0.00    +0.295 HD
ENDBRANCH  15  17
ENDBRANCH  12  15
BRANCH  13  19
ATOM     19  C   UNL     1       0.858  -2.204  29.652  0.00  0.00    -0.028 C 
ATOM     20  C   UNL     1       1.110  -3.226  30.481  0.00  0.00    +0.004 C 
ENDBRANCH  13  19
ENDBRANCH   9  12
ENDBRANCH   6   8
BRANCH   1  21
ATOM     21  O   UNL     1       7.186   0.731  24.197  0.00  0.00    -0.486 OA
BRANCH  21  24
ATOM     22  C   UNL     1       6.420   4.200  24.742  0.00  0.00    +0.094 A 
ATOM     23  C   UNL     1       6.327   2.824  24.622  0.00  0.00    +0.076 A 
ATOM     24  C   UNL     1       7.477   2.076  24.343  0.00  0.00    +0.132 A 
ATOM     25  C   UNL     1       8.729   2.751  24.216  0.00  0.00    +0.043 A 
ATOM     26  C   UNL     1       9.987   2.130  24.034  0.00  0.00    +0.017 A 
ATOM     27  C   UNL     1      11.143   2.819  23.705  0.00  0.00    +0.047 A 
ATOM     28  C   UNL     1      11.138   4.198  23.710  0.00  0.00    +0.136 A 
ATOM     29  C   UNL     1       9.938   4.857  24.037  0.00  0.00    +0.085 A 
ATOM     30 BR   UNL     1       9.969   6.769  24.199  0.00  0.00    -0.044 Br
ATOM     31  C   UNL     1       8.724   4.168  24.277  0.00  0.00    +0.093 A 
ATOM     32  N   UNL     1       7.590   4.854  24.560  0.00  0.00    -0.244 NA
BRANCH  22  39
ATOM     33  C   UNL     1       2.362   4.813  28.204  0.00  0.00    +0.221 C 
ATOM     34  N   UNL     1       2.538   5.788  27.247  0.00  0.00    -0.264 N 
ATOM     35  H   UNL     1       1.898   6.557  27.158  0.00  0.00    +0.157 HD
ATOM     36  C   UNL     1       3.513   5.666  26.286  0.00  0.00    +0.165 A 
ATOM     37  S   UNL     1       3.418   6.801  25.017  0.00  0.00    -0.060 S 
ATOM     38  C   UNL     1       4.779   6.053  24.273  0.00  0.00    +0.078 A 
ATOM     39  C   UNL     1       5.244   5.016  25.067  0.00  0.00    +0.098 A 
ATOM     40  N   UNL     1       4.497   4.805  26.220  0.00  0.00    -0.223 NA
ATOM     41  O   UNL     1       2.975   3.748  28.260  0.00  0.00    -0.275 OA
BRANCH  33  43
ATOM     42  C   UNL     1       1.358   4.168  30.412  0.00  0.00    +0.017 C 
ATOM     43  C   UNL     1       1.283   5.149  29.239  0.00  0.00    +0.069 C 
ATOM     44  C   UNL     1       1.446   6.579  29.750  0.00  0.00    +0.017 C 
ENDBRANCH  33  43
ENDBRANCH  22  39
BRANCH  28  45
ATOM     45  O   UNL     1      12.253   4.936  23.410  0.00  0.00    -0.494 OA
ATOM     46  C   UNL     1      12.586   5.035  22.024  0.00  0.00    +0.277 C 
ENDBRANCH  28  45
ENDBRANCH  21  24
ENDBRANCH   1  21
BRANCH   4  47
ATOM     47  C   UNL     1       5.716  -4.240  24.983  0.00  0.00    +0.168 C 
BRANCH  47  48
ATOM     48  N   UNL     1       7.086  -4.707  24.776  0.00  0.00    -0.269 N 
ATOM     49  H   UNL     1       7.693  -4.795  25.587  0.00  0.00    +0.153 HD
ATOM     50  C   UNL     1       7.759  -4.394  23.634  0.00  0.00    +0.401 C 
ATOM     51  O   UNL     1       7.235  -3.942  22.624  0.00  0.00    -0.226 OA
BRANCH  50  52
ATOM     52  O   UNL     1       9.084  -4.624  23.806  0.00  0.00    -0.447 OA
BRANCH  52  53
ATOM     53  C   UNL     1       9.849  -3.490  24.225  0.00  0.00    +0.178 C 
ATOM     54  C   UNL     1       9.263  -2.902  25.512  0.00  0.00    +0.045 C 
ATOM     55  C   UNL     1       9.399  -1.382  25.391  0.00  0.00    +0.004 C 
ATOM     56  C   UNL     1      10.115  -1.126  24.071  0.00  0.00    +0.004 C 
ATOM     57  C   UNL     1       9.772  -2.340  23.226  0.00  0.00    +0.045 C 
ENDBRANCH  52  53
ENDBRANCH  50  52
ENDBRANCH  47  48
BRANCH  47  58
ATOM     58  C   UNL     1       4.778  -5.394  25.488  0.00  0.00    -0.011 C 
ATOM     59  C   UNL     1       3.533  -4.782  26.172  0.00  0.00    +0.013 C 
ATOM     60  C   UNL     1       5.495  -6.271  26.533  0.00  0.00    +0.013 C 
ATOM     61  C   UNL     1       4.283  -6.315  24.354  0.00  0.00    +0.013 C 
ENDBRANCH  47  58
ENDBRANCH   4  47
TORSDOF 15
ENDMDL
MODEL 9
REMARK VINA RESULT:      -4.1      3.077      6.901
REMARK  Name = 
REMARK  21 active torsions:
REMARK  status: ('A' for Active; 'I' for Inactive)
REMARK    1  A    between atoms: C_1  and  C_2
REMARK    2  A    between atoms: C_2  and  C_3
REMARK    3  A    between atoms: C_2  and  C_4
REMARK    4  A    between atoms: C_9  and  C_12
REMARK    5  A    between atoms: C_18  and  O_21
REMARK    6  A    between atoms: O_21  and  C_22
REMARK    7  A    between atoms: C_23  and  O_25
REMARK    8  A    between atoms: O_25  and  C_26
REMARK    9  A    between atoms: C_29  and  C_50
REMARK   10  A    between atoms: C_33  and  C_35
REMARK   11  A    between atoms: C_35  and  C_37
REMARK   12  A    between atoms: C_35  and  N_41
REMARK   13  A    between atoms: C_37  and  C_38
REMARK   14  A    between atoms: C_37  and  C_39
REMARK   15  A    between atoms: C_37  and  C_40
REMARK   16  A    between atoms: C_42  and  O_44
REMARK   17  A    between atoms: O_44  and  C_45
REMARK   18  A    between atoms: N_52  and  C_53
REMARK   19  A    between atoms: C_53  and  C_59
REMARK   20  A    between atoms: C_55  and  C_57
REMARK   21  A    between atoms: C_59  and  O_61
REMARK                            x       y       z     vdW  Elec       q    Type
REMARK                         _______ _______ _______ _____ _____    ______ ____
ROOT
ATOM      1  C   UNL     1       5.005   2.895  23.360  0.00  0.00    +0.193 C 
ATOM      2  C   UNL     1       4.325   2.082  24.482  0.00  0.00    +0.153 C 
ATOM      3  N   UNL     1       5.065   2.337  25.716  0.00  0.00    -0.285 N 
ATOM      4  C   UNL     1       5.034   1.461  26.789  0.00  0.00    +0.237 C 
ATOM      5  O   UNL     1       6.016   1.326  27.530  0.00  0.00    -0.274 OA
ATOM      6  C   UNL     1       6.252   3.162  25.427  0.00  0.00    +0.166 C 
ATOM      7  C   UNL     1       5.905   3.861  24.113  0.00  0.00    +0.078 C 
ENDROOT
BRANCH   6   8
ATOM      8  C   UNL     1       6.553   4.257  26.479  0.00  0.00    +0.235 C 
ATOM      9  N   UNL     1       5.516   4.585  27.310  0.00  0.00    -0.298 N 
ATOM     10  H   UNL     1       4.641   4.068  27.233  0.00  0.00    +0.150 HD
ATOM     11  O   UNL     1       7.663   4.773  26.635  0.00  0.00    -0.274 OA
BRANCH   9  12
ATOM     12  C   UNL     1       5.649   5.534  28.393  0.00  0.00    +0.138 C 
ATOM     13  C   UNL     1       4.437   6.415  28.683  0.00  0.00    +0.048 C 
ATOM     14  C   UNL     1       5.646   7.006  28.022  0.00  0.00    +0.048 C 
BRANCH  12  15
ATOM     15  C   UNL     1       6.566   5.098  29.516  0.00  0.00    +0.329 C 
ATOM     16  O   UNL     1       6.276   4.208  30.300  0.00  0.00    -0.249 OA
BRANCH  15  17
ATOM     17  O   UNL     1       7.692   5.849  29.617  0.00  0.00    -0.479 OA
ATOM     18  H   UNL     1       7.692   6.350  30.466  0.00  0.00    +0.295 HD
ENDBRANCH  15  17
ENDBRANCH  12  15
BRANCH  13  19
ATOM     19  C   UNL     1       4.092   6.844  30.037  0.00  0.00    -0.028 C 
ATOM     20  C   UNL     1       2.856   7.107  30.483  0.00  0.00    +0.004 C 
ENDBRANCH  13  19
ENDBRANCH   9  12
ENDBRANCH   6   8
BRANCH   1  21
ATOM     21  O   UNL     1       5.748   2.033  22.499  0.00  0.00    -0.486 OA
BRANCH  21  24
ATOM     22  C   UNL     1       7.760  -0.606  23.880  0.00  0.00    +0.094 A 
ATOM     23  C   UNL     1       6.702   0.128  23.370  0.00  0.00    +0.076 A 
ATOM     24  C   UNL     1       6.924   1.433  22.914  0.00  0.00    +0.132 A 
ATOM     25  C   UNL     1       8.247   1.969  22.963  0.00  0.00    +0.043 A 
ATOM     26  C   UNL     1       8.647   3.227  22.453  0.00  0.00    +0.017 A 
ATOM     27  C   UNL     1       9.883   3.799  22.704  0.00  0.00    +0.047 A 
ATOM     28  C   UNL     1      10.858   3.060  23.340  0.00  0.00    +0.136 A 
ATOM     29  C   UNL     1      10.546   1.744  23.729  0.00  0.00    +0.085 A 
ATOM     30 BR   UNL     1      11.947   0.662  24.471  0.00  0.00    -0.044 Br
ATOM     31  C   UNL     1       9.257   1.180  23.570  0.00  0.00    +0.093 A 
ATOM     32  N   UNL     1       9.004  -0.084  23.988  0.00  0.00    -0.244 NA
BRANCH  22  39
ATOM     33  C   UNL     1       4.594  -4.928  23.525  0.00  0.00    +0.221 C 
ATOM     34  N   UNL     1       5.782  -5.060  24.211  0.00  0.00    -0.264 N 
ATOM     35  H   UNL     1       6.024  -5.915  24.680  0.00  0.00    +0.157 HD
ATOM     36  C   UNL     1       6.611  -3.981  24.400  0.00  0.00    +0.165 A 
ATOM     37  S   UNL     1       7.887  -4.241  25.501  0.00  0.00    -0.060 S 
ATOM     38  C   UNL     1       8.388  -2.609  25.273  0.00  0.00    +0.078 A 
ATOM     39  C   UNL     1       7.576  -1.989  24.336  0.00  0.00    +0.098 A 
ATOM     40  N   UNL     1       6.554  -2.795  23.849  0.00  0.00    -0.223 NA
ATOM     41  O   UNL     1       4.133  -3.873  23.091  0.00  0.00    -0.275 OA
BRANCH  33  43
ATOM     42  C   UNL     1       4.004  -7.124  24.585  0.00  0.00    +0.017 C 
ATOM     43  C   UNL     1       3.834  -6.246  23.342  0.00  0.00    +0.069 C 
ATOM     44  C   UNL     1       2.350  -5.989  23.090  0.00  0.00    +0.017 C 
ENDBRANCH  33  43
ENDBRANCH  22  39
BRANCH  28  45
ATOM     45  O   UNL     1      12.105   3.564  23.602  0.00  0.00    -0.494 OA
ATOM     46  C   UNL     1      12.271   4.968  23.396  0.00  0.00    +0.277 C 
ENDBRANCH  28  45
ENDBRANCH  21  24
ENDBRANCH   1  21
BRANCH   4  47
ATOM     47  C   UNL     1       3.701   0.741  27.151  0.00  0.00    +0.168 C 
BRANCH  47  48
ATOM     48  N   UNL     1       4.087  -0.596  27.599  0.00  0.00    -0.269 N 
ATOM     49  H   UNL     1       4.517  -0.691  28.515  0.00  0.00    +0.153 HD
ATOM     50  C   UNL     1       4.517  -1.528  26.705  0.00  0.00    +0.401 C 
ATOM     51  O   UNL     1       4.388  -1.434  25.491  0.00  0.00    -0.226 OA
BRANCH  50  52
ATOM     52  O   UNL     1       5.134  -2.542  27.361  0.00  0.00    -0.447 OA
BRANCH  52  53
ATOM     53  C   UNL     1       4.454  -3.799  27.315  0.00  0.00    +0.178 C 
ATOM     54  C   UNL     1       3.119  -3.652  26.580  0.00  0.00    +0.045 C 
ATOM     55  C   UNL     1       2.123  -4.554  27.315  0.00  0.00    +0.004 C 
ATOM     56  C   UNL     1       2.914  -5.248  28.415  0.00  0.00    +0.004 C 
ATOM     57  C   UNL     1       4.059  -4.293  28.703  0.00  0.00    +0.045 C 
ENDBRANCH  52  53
ENDBRANCH  50  52
ENDBRANCH  47  48
BRANCH  47  58
ATOM     58  C   UNL     1       2.848   1.494  28.233  0.00  0.00    -0.011 C 
ATOM     59  C   UNL     1       3.763   1.912  29.409  0.00  0.00    +0.013 C 
ATOM     60  C   UNL     1       1.749   0.579  28.805  0.00  0.00    +0.013 C 
ATOM     61  C   UNL     1       2.171   2.771  27.692  0.00  0.00    +0.013 C 
ENDBRANCH  47  58
ENDBRANCH   4  47
TORSDOF 15
ENDMDL
