MODEL 1
REMARK VINA RESULT:      -7.8      0.000      0.000
REMARK  Name = 
REMARK  17 active torsions:
REMARK  status: ('A' for Active; 'I' for Inactive)
REMARK    1  A    between atoms: C_1  and  C_2
REMARK    2  A    between atoms: C_2  and  C_3
REMARK    3  A    between atoms: C_2  and  C_4
REMARK    4  A    between atoms: C_2  and  N_5
REMARK    5  A    between atoms: C_6  and  C_8
REMARK    6  A    between atoms: N_17  and  C_18
REMARK    7  A    between atoms: C_18  and  C_19
REMARK    8  A    between atoms: C_19  and  C_20
REMARK    9  A    between atoms: C_19  and  O_49
REMARK   10  A    between atoms: C_20  and  C_21
REMARK   11  A    between atoms: C_20  and  N_28
REMARK   12  A    between atoms: C_21  and  C_22
REMARK   13  A    between atoms: C_29  and  C_31
REMARK   14  A    between atoms: C_31  and  C_32
REMARK   15  A    between atoms: C_31  and  N_36
REMARK   16  A    between atoms: C_32  and  C_33
REMARK   17  A    between atoms: C_37  and  C_39
REMARK                            x       y       z     vdW  Elec       q    Type
REMARK                         _______ _______ _______ _____ _____    ______ ____
ROOT
ATOM      1  C   UNL     1       4.220  -4.020  25.703  0.00  0.00    +0.107 C 
ENDROOT
BRANCH   1   2
ATOM      2  N   UNL     1       5.351  -4.228  24.767  0.00  0.00    -0.308 N 
ATOM      3  H   UNL     1       5.477  -3.520  24.039  0.00  0.00    +0.149 HD
ATOM      4  C   UNL     1       6.317  -5.212  24.884  0.00  0.00    +0.234 C 
ATOM      5  O   UNL     1       6.349  -5.989  25.840  0.00  0.00    -0.274 OA
BRANCH   4   6
ATOM      6  C   UNL     1       7.406  -5.241  23.757  0.00  0.00    +0.168 C 
BRANCH   6   7
ATOM      7  N   UNL     1       7.839  -3.877  23.460  0.00  0.00    -0.298 N 
ATOM      8  H   UNL     1       7.397  -3.374  22.695  0.00  0.00    +0.150 HD
ATOM      9  C   UNL     1       9.068  -3.385  23.874  0.00  0.00    +0.263 C 
ATOM     10  O   UNL     1       9.820  -4.010  24.607  0.00  0.00    -0.269 OA
BRANCH   9  11
ATOM     11  C   UNL     1       9.465  -2.084  23.284  0.00  0.00    +0.126 A 
ATOM     12  C   UNL     1       9.207  -1.865  21.947  0.00  0.00    +0.033 A 
ATOM     13  C   UNL     1       9.380  -0.581  21.462  0.00  0.00    +0.012 A 
ATOM     14  C   UNL     1       9.808   0.432  22.332  0.00  0.00    +0.000 A 
ATOM     15  C   UNL     1      10.134   0.087  23.664  0.00  0.00    +0.072 A 
ATOM     16  C   UNL     1      10.607   1.089  24.500  0.00  0.00    +0.028 A 
ATOM     17  C   UNL     1      10.676   2.419  24.077  0.00  0.00    +0.002 A 
ATOM     18  C   UNL     1      10.288   2.758  22.785  0.00  0.00    +0.001 A 
ATOM     19  C   UNL     1       9.878   1.763  21.903  0.00  0.00    +0.010 A 
ATOM     20  N   UNL     1       9.960  -1.154  24.149  0.00  0.00    -0.242 NA
ENDBRANCH   9  11
ENDBRANCH   6   7
BRANCH   6  21
ATOM     21  C   UNL     1       6.957  -6.057  22.540  0.00  0.00    +0.127 C 
BRANCH  21  22
ATOM     22  C   UNL     1       6.140  -5.355  21.480  0.00  0.00    +0.213 C 
ATOM     23  N   UNL     1       6.032  -5.929  20.256  0.00  0.00    -0.329 N 
ATOM     24  H   UNL     1       5.607  -5.370  19.526  0.00  0.00    +0.145 HD
ATOM     25  H   UNL     1       6.593  -6.729  19.983  0.00  0.00    +0.145 HD
ATOM     26  O   UNL     1       5.644  -4.248  21.676  0.00  0.00    -0.276 OA
ENDBRANCH  21  22
ENDBRANCH   6  21
ENDBRANCH   4   6
ENDBRANCH   1   2
BRANCH   1  27
ATOM     27  C   UNL     1       4.435  -2.695  26.507  0.00  0.00    +0.149 C 
BRANCH  27  28
ATOM     28  O   UNL     1       4.641  -2.970  27.912  0.00  0.00    -0.389 OA
ATOM     29  H   UNL     1       3.964  -3.598  28.215  0.00  0.00    +0.210 HD
ENDBRANCH  27  28
BRANCH  27  30
ATOM     30  C   UNL     1       5.567  -1.742  26.023  0.00  0.00    +0.118 C 
BRANCH  30  32
ATOM     31  C   UNL     1       6.368   0.496  25.406  0.00  0.00    +0.143 C 
ATOM     32  N   UNL     1       5.170  -0.345  25.724  0.00  0.00    -0.289 NA
ATOM     33  C   UNL     1       4.367   0.283  26.802  0.00  0.00    +0.089 C 
ATOM     34  C   UNL     1       5.124   0.812  28.043  0.00  0.00    +0.006 C 
ATOM     35  C   UNL     1       6.347   1.659  27.656  0.00  0.00    -0.005 C 
ATOM     36  C   UNL     1       7.116   2.095  28.916  0.00  0.00    +0.004 C 
ATOM     37  C   UNL     1       6.211   2.932  29.829  0.00  0.00    +0.000 C 
ATOM     38  C   UNL     1       4.923   2.189  30.177  0.00  0.00    +0.000 C 
ATOM     39  C   UNL     1       4.200   1.668  28.932  0.00  0.00    +0.005 C 
ATOM     40  C   UNL     1       7.201   0.890  26.649  0.00  0.00    +0.032 C 
BRANCH  31  43
ATOM     41  N   UNL     1       6.950   2.722  24.427  0.00  0.00    -0.309 N 
ATOM     42  H   UNL     1       7.862   2.458  24.789  0.00  0.00    +0.149 HD
ATOM     43  C   UNL     1       5.977   1.739  24.529  0.00  0.00    +0.231 C 
ATOM     44  O   UNL     1       4.849   1.865  24.053  0.00  0.00    -0.274 OA
BRANCH  41  46
ATOM     45  C   UNL     1       5.434   4.680  24.282  0.00  0.00    +0.031 C 
ATOM     46  C   UNL     1       6.769   4.064  23.825  0.00  0.00    +0.026 C 
ATOM     47  C   UNL     1       7.896   5.000  24.303  0.00  0.00    +0.031 C 
ATOM     48  C   UNL     1       6.824   4.035  22.286  0.00  0.00    +0.031 C 
ENDBRANCH  41  46
ENDBRANCH  31  43
ENDBRANCH  30  32
ENDBRANCH  27  30
ENDBRANCH   1  27
BRANCH   1  49
ATOM     49  C   UNL     1       2.835  -4.169  25.000  0.00  0.00    +0.060 C 
BRANCH  49  50
ATOM     50  C   UNL     1       2.446  -5.518  24.425  0.00  0.00    -0.046 A 
ATOM     51  C   UNL     1       2.705  -6.702  25.128  0.00  0.00    +0.004 A 
ATOM     52  C   UNL     1       2.336  -7.942  24.600  0.00  0.00    +0.000 A 
ATOM     53  C   UNL     1       1.709  -8.021  23.355  0.00  0.00    +0.000 A 
ATOM     54  C   UNL     1       1.470  -6.862  22.632  0.00  0.00    +0.000 A 
ATOM     55  C   UNL     1       1.853  -5.628  23.161  0.00  0.00    +0.004 A 
ENDBRANCH  49  50
ENDBRANCH   1  49
TORSDOF 14
ENDMDL
MODEL 2
REMARK VINA RESULT:      -7.7      2.135      7.533
REMARK  Name = 
REMARK  17 active torsions:
REMARK  status: ('A' for Active; 'I' for Inactive)
REMARK    1  A    between atoms: C_1  and  C_2
REMARK    2  A    between atoms: C_2  and  C_3
REMARK    3  A    between atoms: C_2  and  C_4
REMARK    4  A    between atoms: C_2  and  N_5
REMARK    5  A    between atoms: C_6  and  C_8
REMARK    6  A    between atoms: N_17  and  C_18
REMARK    7  A    between atoms: C_18  and  C_19
REMARK    8  A    between atoms: C_19  and  C_20
REMARK    9  A    between atoms: C_19  and  O_49
REMARK   10  A    between atoms: C_20  and  C_21
REMARK   11  A    between atoms: C_20  and  N_28
REMARK   12  A    between atoms: C_21  and  C_22
REMARK   13  A    between atoms: C_29  and  C_31
REMARK   14  A    between atoms: C_31  and  C_32
REMARK   15  A    between atoms: C_31  and  N_36
REMARK   16  A    between atoms: C_32  and  C_33
REMARK   17  A    between atoms: C_37  and  C_39
REMARK                            x       y       z     vdW  Elec       q    Type
REMARK                         _______ _______ _______ _____ _____    ______ ____
ROOT
ATOM      1  C   UNL     1       9.306  -3.119  24.981  0.00  0.00    +0.107 C 
ENDROOT
BRANCH   1   2
ATOM      2  N   UNL     1       8.270  -2.093  25.251  0.00  0.00    -0.308 N 
ATOM      3  H   UNL     1       7.465  -2.081  24.620  0.00  0.00    +0.149 HD
ATOM      4  C   UNL     1       8.238  -1.259  26.355  0.00  0.00    +0.234 C 
ATOM      5  O   UNL     1       9.068  -1.340  27.262  0.00  0.00    -0.274 OA
BRANCH   4   6
ATOM      6  C   UNL     1       7.047  -0.241  26.410  0.00  0.00    +0.168 C 
BRANCH   6   7
ATOM      7  N   UNL     1       7.340   0.903  25.550  0.00  0.00    -0.298 N 
ATOM      8  H   UNL     1       7.529   1.806  25.975  0.00  0.00    +0.150 HD
ATOM      9  C   UNL     1       6.980   0.933  24.210  0.00  0.00    +0.263 C 
ATOM     10  O   UNL     1       6.500  -0.030  23.631  0.00  0.00    -0.269 OA
BRANCH   9  11
ATOM     11  C   UNL     1       7.117   2.249  23.542  0.00  0.00    +0.126 A 
ATOM     12  C   UNL     1       6.364   2.492  22.412  0.00  0.00    +0.033 A 
ATOM     13  C   UNL     1       6.335   3.788  21.927  0.00  0.00    +0.012 A 
ATOM     14  C   UNL     1       7.064   4.787  22.588  0.00  0.00    +0.000 A 
ATOM     15  C   UNL     1       7.878   4.418  23.683  0.00  0.00    +0.072 A 
ATOM     16  C   UNL     1       8.635   5.408  24.295  0.00  0.00    +0.028 A 
ATOM     17  C   UNL     1       8.534   6.746  23.909  0.00  0.00    +0.002 A 
ATOM     18  C   UNL     1       7.679   7.108  22.873  0.00  0.00    +0.001 A 
ATOM     19  C   UNL     1       6.962   6.127  22.195  0.00  0.00    +0.010 A 
ATOM     20  N   UNL     1       7.905   3.166  24.170  0.00  0.00    -0.242 NA
ENDBRANCH   9  11
ENDBRANCH   6   7
BRANCH   6  21
ATOM     21  C   UNL     1       6.656   0.114  27.847  0.00  0.00    +0.127 C 
BRANCH  21  22
ATOM     22  C   UNL     1       7.146   1.429  28.410  0.00  0.00    +0.213 C 
ATOM     23  N   UNL     1       7.928   1.410  29.519  0.00  0.00    -0.329 N 
ATOM     24  H   UNL     1       8.117   2.303  29.958  0.00  0.00    +0.145 HD
ATOM     25  H   UNL     1       8.072   0.567  30.064  0.00  0.00    +0.145 HD
ATOM     26  O   UNL     1       6.790   2.505  27.938  0.00  0.00    -0.276 OA
ENDBRANCH  21  22
ENDBRANCH   6  21
ENDBRANCH   4   6
ENDBRANCH   1   2
BRANCH   1  27
ATOM     27  C   UNL     1       8.663  -4.545  25.020  0.00  0.00    +0.149 C 
BRANCH  27  28
ATOM     28  O   UNL     1       9.589  -5.543  24.533  0.00  0.00    -0.389 OA
ATOM     29  H   UNL     1       9.904  -5.280  23.651  0.00  0.00    +0.210 HD
ENDBRANCH  27  28
BRANCH  27  30
ATOM     30  C   UNL     1       8.091  -5.032  26.384  0.00  0.00    +0.118 C 
BRANCH  30  32
ATOM     31  C   UNL     1       5.793  -4.862  25.536  0.00  0.00    +0.143 C 
ATOM     32  N   UNL     1       6.756  -5.675  26.346  0.00  0.00    -0.289 NA
ATOM     33  C   UNL     1       6.196  -5.953  27.691  0.00  0.00    +0.089 C 
ATOM     34  C   UNL     1       5.556  -4.771  28.458  0.00  0.00    +0.006 C 
ATOM     35  C   UNL     1       4.585  -3.969  27.576  0.00  0.00    -0.005 C 
ATOM     36  C   UNL     1       4.035  -2.758  28.350  0.00  0.00    +0.004 C 
ATOM     37  C   UNL     1       3.285  -3.224  29.604  0.00  0.00    +0.000 C 
ATOM     38  C   UNL     1       4.160  -4.113  30.485  0.00  0.00    +0.000 C 
ATOM     39  C   UNL     1       4.789  -5.268  29.700  0.00  0.00    +0.005 C 
ATOM     40  C   UNL     1       5.277  -3.598  26.265  0.00  0.00    +0.032 C 
BRANCH  31  43
ATOM     41  N   UNL     1       3.466  -5.063  24.642  0.00  0.00    -0.309 N 
ATOM     42  H   UNL     1       3.559  -4.051  24.635  0.00  0.00    +0.149 HD
ATOM     43  C   UNL     1       4.622  -5.749  24.978  0.00  0.00    +0.231 C 
ATOM     44  O   UNL     1       4.705  -6.977  24.940  0.00  0.00    -0.274 OA
BRANCH  41  46
ATOM     45  C   UNL     1       2.306  -6.490  22.978  0.00  0.00    +0.031 C 
ATOM     46  C   UNL     1       2.167  -5.675  24.277  0.00  0.00    +0.026 C 
ATOM     47  C   UNL     1       1.726  -6.650  25.387  0.00  0.00    +0.031 C 
ATOM     48  C   UNL     1       1.045  -4.633  24.116  0.00  0.00    +0.031 C 
ENDBRANCH  41  46
ENDBRANCH  31  43
ENDBRANCH  30  32
ENDBRANCH  27  30
ENDBRANCH   1  27
BRANCH   1  49
ATOM     49  C   UNL     1      10.147  -2.790  23.707  0.00  0.00    +0.060 C 
BRANCH  49  50
ATOM     50  C   UNL     1      10.085  -1.388  23.131  0.00  0.00    -0.046 A 
ATOM     51  C   UNL     1      10.623  -0.298  23.828  0.00  0.00    +0.004 A 
ATOM     52  C   UNL     1      10.573   0.990  23.289  0.00  0.00    +0.000 A 
ATOM     53  C   UNL     1       9.977   1.214  22.046  0.00  0.00    +0.000 A 
ATOM     54  C   UNL     1       9.413   0.151  21.354  0.00  0.00    +0.000 A 
ATOM     55  C   UNL     1       9.456  -1.131  21.906  0.00  0.00    +0.004 A 
ENDBRANCH  49  50
ENDBRANCH   1  49
TORSDOF 14
ENDMDL
MODEL 3
REMARK VINA RESULT:      -7.4      2.301      9.112
REMARK  Name = 
REMARK  17 active torsions:
REMARK  status: ('A' for Active; 'I' for Inactive)
REMARK    1  A    between atoms: C_1  and  C_2
REMARK    2  A    between atoms: C_2  and  C_3
REMARK    3  A    between atoms: C_2  and  C_4
REMARK    4  A    between atoms: C_2  and  N_5
REMARK    5  A    between atoms: C_6  and  C_8
REMARK    6  A    between atoms: N_17  and  C_18
REMARK    7  A    between atoms: C_18  and  C_19
REMARK    8  A    between atoms: C_19  and  C_20
REMARK    9  A    between atoms: C_19  and  O_49
REMARK   10  A    between atoms: C_20  and  C_21
REMARK   11  A    between atoms: C_20  and  N_28
REMARK   12  A    between atoms: C_21  and  C_22
REMARK   13  A    between atoms: C_29  and  C_31
REMARK   14  A    between atoms: C_31  and  C_32
REMARK   15  A    between atoms: C_31  and  N_36
REMARK   16  A    between atoms: C_32  and  C_33
REMARK   17  A    between atoms: C_37  and  C_39
REMARK                            x       y       z     vdW  Elec       q    Type
REMARK                         _______ _______ _______ _____ _____    ______ ____
ROOT
ATOM      1  C   UNL     1       9.684   0.643  24.705  0.00  0.00    +0.107 C 
ENDROOT
BRANCH   1   2
ATOM      2  N   UNL     1       8.302   0.863  25.196  0.00  0.00    -0.308 N 
ATOM      3  H   UNL     1       7.637   1.256  24.525  0.00  0.00    +0.149 HD
ATOM      4  C   UNL     1       7.814   0.454  26.424  0.00  0.00    +0.234 C 
ATOM      5  O   UNL     1       8.496  -0.196  27.217  0.00  0.00    -0.274 OA
BRANCH   4   6
ATOM      6  C   UNL     1       6.319   0.818  26.723  0.00  0.00    +0.168 C 
BRANCH   6   7
ATOM      7  N   UNL     1       5.479  -0.362  26.528  0.00  0.00    -0.298 N 
ATOM      8  H   UNL     1       5.605  -0.926  25.691  0.00  0.00    +0.150 HD
ATOM      9  C   UNL     1       4.270  -0.527  27.190  0.00  0.00    +0.263 C 
ATOM     10  O   UNL     1       3.881   0.238  28.059  0.00  0.00    -0.269 OA
BRANCH   9  11
ATOM     11  C   UNL     1       3.424  -1.642  26.701  0.00  0.00    +0.126 A 
ATOM     12  C   UNL     1       2.111  -1.700  27.122  0.00  0.00    +0.033 A 
ATOM     13  C   UNL     1       1.277  -2.609  26.495  0.00  0.00    +0.012 A 
ATOM     14  C   UNL     1       1.788  -3.425  25.476  0.00  0.00    +0.000 A 
ATOM     15  C   UNL     1       3.169  -3.353  25.181  0.00  0.00    +0.072 A 
ATOM     16  C   UNL     1       3.672  -4.203  24.206  0.00  0.00    +0.028 A 
ATOM     17  C   UNL     1       2.835  -5.045  23.469  0.00  0.00    +0.002 A 
ATOM     18  C   UNL     1       1.467  -5.058  23.723  0.00  0.00    +0.001 A 
ATOM     19  C   UNL     1       0.945  -4.269  24.742  0.00  0.00    +0.010 A 
ATOM     20  N   UNL     1       3.987  -2.467  25.774  0.00  0.00    -0.242 NA
ENDBRANCH   9  11
ENDBRANCH   6   7
BRANCH   6  21
ATOM     21  C   UNL     1       5.865   2.067  25.962  0.00  0.00    +0.127 C 
BRANCH  21  22
ATOM     22  C   UNL     1       4.842   1.893  24.862  0.00  0.00    +0.213 C 
ATOM     23  N   UNL     1       5.278   1.643  23.602  0.00  0.00    -0.329 N 
ATOM     24  H   UNL     1       4.585   1.680  22.864  0.00  0.00    +0.145 HD
ATOM     25  H   UNL     1       6.257   1.713  23.345  0.00  0.00    +0.145 HD
ATOM     26  O   UNL     1       3.641   2.053  25.067  0.00  0.00    -0.276 OA
ENDBRANCH  21  22
ENDBRANCH   6  21
ENDBRANCH   4   6
ENDBRANCH   1   2
BRANCH   1  27
ATOM     27  C   UNL     1       9.721  -0.611  23.770  0.00  0.00    +0.149 C 
BRANCH  27  28
ATOM     28  O   UNL     1      10.867  -0.565  22.889  0.00  0.00    -0.389 OA
ATOM     29  H   UNL     1      11.377  -1.387  22.988  0.00  0.00    +0.210 HD
ENDBRANCH  27  28
BRANCH  27  30
ATOM     30  C   UNL     1       9.683  -2.011  24.450  0.00  0.00    +0.118 C 
BRANCH  30  32
ATOM     31  C   UNL     1       8.454  -3.846  25.523  0.00  0.00    +0.143 C 
ATOM     32  N   UNL     1       8.358  -2.475  24.927  0.00  0.00    -0.289 NA
ATOM     33  C   UNL     1       7.307  -2.436  23.881  0.00  0.00    +0.089 C 
ATOM     34  C   UNL     1       7.286  -3.585  22.845  0.00  0.00    +0.006 C 
ATOM     35  C   UNL     1       7.396  -4.966  23.512  0.00  0.00    -0.005 C 
ATOM     36  C   UNL     1       7.455  -6.073  22.444  0.00  0.00    +0.004 C 
ATOM     37  C   UNL     1       6.187  -6.046  21.581  0.00  0.00    +0.000 C 
ATOM     38  C   UNL     1       5.957  -4.669  20.962  0.00  0.00    +0.000 C 
ATOM     39  C   UNL     1       5.993  -3.551  22.007  0.00  0.00    +0.005 C 
ATOM     40  C   UNL     1       8.585  -4.975  24.472  0.00  0.00    +0.032 C 
BRANCH  31  43
ATOM     41  N   UNL     1       6.941  -5.442  26.714  0.00  0.00    -0.309 N 
ATOM     42  H   UNL     1       7.584  -6.107  26.293  0.00  0.00    +0.149 HD
ATOM     43  C   UNL     1       7.288  -4.111  26.541  0.00  0.00    +0.231 C 
ATOM     44  O   UNL     1       6.669  -3.186  27.068  0.00  0.00    -0.274 OA
BRANCH  41  46
ATOM     45  C   UNL     1       4.873  -6.800  26.545  0.00  0.00    +0.031 C 
ATOM     46  C   UNL     1       5.765  -5.943  27.462  0.00  0.00    +0.026 C 
ATOM     47  C   UNL     1       6.236  -6.845  28.620  0.00  0.00    +0.031 C 
ATOM     48  C   UNL     1       4.928  -4.807  28.082  0.00  0.00    +0.031 C 
ENDBRANCH  41  46
ENDBRANCH  31  43
ENDBRANCH  30  32
ENDBRANCH  27  30
ENDBRANCH   1  27
BRANCH   1  49
ATOM     49  C   UNL     1      10.318   1.944  24.120  0.00  0.00    +0.060 C 
BRANCH  49  50
ATOM     50  C   UNL     1       9.402   3.057  23.648  0.00  0.00    -0.046 A 
ATOM     51  C   UNL     1       8.486   2.844  22.610  0.00  0.00    +0.004 A 
ATOM     52  C   UNL     1       7.637   3.869  22.185  0.00  0.00    +0.000 A 
ATOM     53  C   UNL     1       7.694   5.129  22.784  0.00  0.00    +0.000 A 
ATOM     54  C   UNL     1       8.615   5.367  23.795  0.00  0.00    +0.000 A 
ATOM     55  C   UNL     1       9.468   4.341  24.205  0.00  0.00    +0.004 A 
ENDBRANCH  49  50
ENDBRANCH   1  49
TORSDOF 14
ENDMDL
MODEL 4
REMARK VINA RESULT:      -7.4      2.271      8.122
REMARK  Name = 
REMARK  17 active torsions:
REMARK  status: ('A' for Active; 'I' for Inactive)
REMARK    1  A    between atoms: C_1  and  C_2
REMARK    2  A    between atoms: C_2  and  C_3
REMARK    3  A    between atoms: C_2  and  C_4
REMARK    4  A    between atoms: C_2  and  N_5
REMARK    5  A    between atoms: C_6  and  C_8
REMARK    6  A    between atoms: N_17  and  C_18
REMARK    7  A    between atoms: C_18  and  C_19
REMARK    8  A    between atoms: C_19  and  C_20
REMARK    9  A    between atoms: C_19  and  O_49
REMARK   10  A    between atoms: C_20  and  C_21
REMARK   11  A    between atoms: C_20  and  N_28
REMARK   12  A    between atoms: C_21  and  C_22
REMARK   13  A    between atoms: C_29  and  C_31
REMARK   14  A    between atoms: C_31  and  C_32
REMARK   15  A    between atoms: C_31  and  N_36
REMARK   16  A    between atoms: C_32  and  C_33
REMARK   17  A    between atoms: C_37  and  C_39
REMARK                            x       y       z     vdW  Elec       q    Type
REMARK                         _______ _______ _______ _____ _____    ______ ____
ROOT
ATOM      1  C   UNL     1       8.324  -3.212  26.010  0.00  0.00    +0.107 C 
ENDROOT
BRANCH   1   2
ATOM      2  N   UNL     1       7.685  -1.875  26.051  0.00  0.00    -0.308 N 
ATOM      3  H   UNL     1       6.774  -1.791  25.592  0.00  0.00    +0.149 HD
ATOM      4  C   UNL     1       8.149  -0.788  26.770  0.00  0.00    +0.234 C 
ATOM      5  O   UNL     1       9.136  -0.860  27.504  0.00  0.00    -0.274 OA
BRANCH   4   6
ATOM      6  C   UNL     1       7.307   0.528  26.641  0.00  0.00    +0.168 C 
BRANCH   6   7
ATOM      7  N   UNL     1       8.122   1.571  26.022  0.00  0.00    -0.298 N 
ATOM      8  H   UNL     1       9.000   1.838  26.459  0.00  0.00    +0.150 HD
ATOM      9  C   UNL     1       7.592   2.491  25.127  0.00  0.00    +0.263 C 
ATOM     10  O   UNL     1       6.446   2.424  24.709  0.00  0.00    -0.269 OA
BRANCH   9  11
ATOM     11  C   UNL     1       8.477   3.630  24.786  0.00  0.00    +0.126 A 
ATOM     12  C   UNL     1       8.163   4.877  25.286  0.00  0.00    +0.033 A 
ATOM     13  C   UNL     1       9.104   5.881  25.144  0.00  0.00    +0.012 A 
ATOM     14  C   UNL     1      10.320   5.600  24.505  0.00  0.00    +0.000 A 
ATOM     15  C   UNL     1      10.509   4.315  23.945  0.00  0.00    +0.072 A 
ATOM     16  C   UNL     1      11.695   4.067  23.269  0.00  0.00    +0.028 A 
ATOM     17  C   UNL     1      12.716   5.019  23.214  0.00  0.00    +0.002 A 
ATOM     18  C   UNL     1      12.545   6.257  23.827  0.00  0.00    +0.001 A 
ATOM     19  C   UNL     1      11.339   6.558  24.450  0.00  0.00    +0.010 A 
ATOM     20  N   UNL     1       9.607   3.329  24.086  0.00  0.00    -0.242 NA
ENDBRANCH   9  11
ENDBRANCH   6   7
BRANCH   6  21
ATOM     21  C   UNL     1       6.646   0.924  27.964  0.00  0.00    +0.127 C 
BRANCH  21  22
ATOM     22  C   UNL     1       7.347   1.948  28.828  0.00  0.00    +0.213 C 
ATOM     23  N   UNL     1       8.094   1.513  29.875  0.00  0.00    -0.329 N 
ATOM     24  H   UNL     1       8.427   2.219  30.520  0.00  0.00    +0.145 HD
ATOM     25  H   UNL     1       8.080   0.547  30.184  0.00  0.00    +0.145 HD
ATOM     26  O   UNL     1       7.192   3.154  28.654  0.00  0.00    -0.276 OA
ENDBRANCH  21  22
ENDBRANCH   6  21
ENDBRANCH   4   6
ENDBRANCH   1   2
BRANCH   1  27
ATOM     27  C   UNL     1       7.269  -4.315  26.355  0.00  0.00    +0.149 C 
BRANCH  27  28
ATOM     28  O   UNL     1       7.830  -5.309  27.243  0.00  0.00    -0.389 OA
ATOM     29  H   UNL     1       8.362  -4.862  27.924  0.00  0.00    +0.210 HD
ENDBRANCH  27  28
BRANCH  27  30
ATOM     30  C   UNL     1       5.909  -3.842  26.948  0.00  0.00    +0.118 C 
BRANCH  30  32
ATOM     31  C   UNL     1       4.442  -5.526  25.928  0.00  0.00    +0.143 C 
ATOM     32  N   UNL     1       4.710  -4.063  26.105  0.00  0.00    -0.289 NA
ATOM     33  C   UNL     1       4.781  -3.386  24.787  0.00  0.00    +0.089 C 
ATOM     34  C   UNL     1       5.628  -4.061  23.681  0.00  0.00    +0.006 C 
ATOM     35  C   UNL     1       5.317  -5.561  23.551  0.00  0.00    -0.005 C 
ATOM     36  C   UNL     1       6.237  -6.208  22.500  0.00  0.00    +0.004 C 
ATOM     37  C   UNL     1       6.029  -5.545  21.132  0.00  0.00    +0.000 C 
ATOM     38  C   UNL     1       6.224  -4.033  21.205  0.00  0.00    +0.000 C 
ATOM     39  C   UNL     1       5.384  -3.393  22.313  0.00  0.00    +0.005 C 
ATOM     40  C   UNL     1       5.399  -6.219  24.928  0.00  0.00    +0.032 C 
BRANCH  31  43
ATOM     41  N   UNL     1       2.702  -6.577  24.471  0.00  0.00    -0.309 N 
ATOM     42  H   UNL     1       3.531  -7.024  24.087  0.00  0.00    +0.149 HD
ATOM     43  C   UNL     1       2.931  -5.796  25.593  0.00  0.00    +0.231 C 
ATOM     44  O   UNL     1       2.024  -5.265  26.233  0.00  0.00    -0.274 OA
BRANCH  41  46
ATOM     45  C   UNL     1       0.701  -5.483  23.498  0.00  0.00    +0.031 C 
ATOM     46  C   UNL     1       1.386  -6.819  23.835  0.00  0.00    +0.026 C 
ATOM     47  C   UNL     1       1.586  -7.582  22.511  0.00  0.00    +0.031 C 
ATOM     48  C   UNL     1       0.452  -7.672  24.715  0.00  0.00    +0.031 C 
ENDBRANCH  41  46
ENDBRANCH  31  43
ENDBRANCH  30  32
ENDBRANCH  27  30
ENDBRANCH   1  27
BRANCH   1  49
ATOM     49  C   UNL     1       9.137  -3.440  24.697  0.00  0.00    +0.060 C 
BRANCH  49  50
ATOM     50  C   UNL     1       9.396  -2.258  23.782  0.00  0.00    -0.046 A 
ATOM     51  C   UNL     1       8.828  -2.200  22.502  0.00  0.00    +0.004 A 
ATOM     52  C   UNL     1       9.061  -1.105  21.666  0.00  0.00    +0.000 A 
ATOM     53  C   UNL     1       9.872  -0.051  22.091  0.00  0.00    +0.000 A 
ATOM     54  C   UNL     1      10.466  -0.104  23.344  0.00  0.00    +0.000 A 
ATOM     55  C   UNL     1      10.238  -1.208  24.168  0.00  0.00    +0.004 A 
ENDBRANCH  49  50
ENDBRANCH   1  49
TORSDOF 14
ENDMDL
MODEL 5
REMARK VINA RESULT:      -7.2      2.230      8.004
REMARK  Name = 
REMARK  17 active torsions:
REMARK  status: ('A' for Active; 'I' for Inactive)
REMARK    1  A    between atoms: C_1  and  C_2
REMARK    2  A    between atoms: C_2  and  C_3
REMARK    3  A    between atoms: C_2  and  C_4
REMARK    4  A    between atoms: C_2  and  N_5
REMARK    5  A    between atoms: C_6  and  C_8
REMARK    6  A    between atoms: N_17  and  C_18
REMARK    7  A    between atoms: C_18  and  C_19
REMARK    8  A    between atoms: C_19  and  C_20
REMARK    9  A    between atoms: C_19  and  O_49
REMARK   10  A    between atoms: C_20  and  C_21
REMARK   11  A    between atoms: C_20  and  N_28
REMARK   12  A    between atoms: C_21  and  C_22
REMARK   13  A    between atoms: C_29  and  C_31
REMARK   14  A    between atoms: C_31  and  C_32
REMARK   15  A    between atoms: C_31  and  N_36
REMARK   16  A    between atoms: C_32  and  C_33
REMARK   17  A    between atoms: C_37  and  C_39
REMARK                            x       y       z     vdW  Elec       q    Type
REMARK                         _______ _______ _______ _____ _____    ______ ____
ROOT
ATOM      1  C   UNL     1       8.332  -3.334  24.300  0.00  0.00    +0.107 C 
ENDROOT
BRANCH   1   2
ATOM      2  N   UNL     1       7.365  -2.245  24.578  0.00  0.00    -0.308 N 
ATOM      3  H   UNL     1       6.648  -2.079  23.868  0.00  0.00    +0.149 HD
ATOM      4  C   UNL     1       7.272  -1.542  25.767  0.00  0.00    +0.234 C 
ATOM      5  O   UNL     1       7.973  -1.810  26.743  0.00  0.00    -0.274 OA
BRANCH   4   6
ATOM      6  C   UNL     1       6.178  -0.421  25.814  0.00  0.00    +0.168 C 
BRANCH   6   7
ATOM      7  N   UNL     1       6.822   0.889  25.896  0.00  0.00    -0.298 N 
ATOM      8  H   UNL     1       6.842   1.375  26.788  0.00  0.00    +0.150 HD
ATOM      9  C   UNL     1       7.037   1.678  24.775  0.00  0.00    +0.263 C 
ATOM     10  O   UNL     1       6.812   1.291  23.638  0.00  0.00    -0.269 OA
BRANCH   9  11
ATOM     11  C   UNL     1       7.465   3.071  25.048  0.00  0.00    +0.126 A 
ATOM     12  C   UNL     1       6.898   3.732  26.119  0.00  0.00    +0.033 A 
ATOM     13  C   UNL     1       7.456   4.940  26.495  0.00  0.00    +0.012 A 
ATOM     14  C   UNL     1       8.556   5.442  25.784  0.00  0.00    +0.000 A 
ATOM     15  C   UNL     1       9.006   4.734  24.645  0.00  0.00    +0.072 A 
ATOM     16  C   UNL     1      10.061   5.269  23.920  0.00  0.00    +0.028 A 
ATOM     17  C   UNL     1      10.726   6.422  24.343  0.00  0.00    +0.002 A 
ATOM     18  C   UNL     1      10.318   7.073  25.503  0.00  0.00    +0.001 A 
ATOM     19  C   UNL     1       9.218   6.600  26.211  0.00  0.00    +0.010 A 
ATOM     20  N   UNL     1       8.478   3.554  24.277  0.00  0.00    -0.242 NA
ENDBRANCH   9  11
ENDBRANCH   6   7
BRANCH   6  21
ATOM     21  C   UNL     1       5.121  -0.689  26.890  0.00  0.00    +0.127 C 
BRANCH  21  22
ATOM     22  C   UNL     1       3.969   0.282  27.009  0.00  0.00    +0.213 C 
ATOM     23  N   UNL     1       3.155   0.197  28.091  0.00  0.00    -0.329 N 
ATOM     24  H   UNL     1       2.310   0.756  28.071  0.00  0.00    +0.145 HD
ATOM     25  H   UNL     1       3.202  -0.580  28.742  0.00  0.00    +0.145 HD
ATOM     26  O   UNL     1       3.709   1.086  26.117  0.00  0.00    -0.276 OA
ENDBRANCH  21  22
ENDBRANCH   6  21
ENDBRANCH   4   6
ENDBRANCH   1   2
BRANCH   1  27
ATOM     27  C   UNL     1       7.685  -4.383  23.334  0.00  0.00    +0.149 C 
BRANCH  27  28
ATOM     28  O   UNL     1       8.393  -5.643  23.389  0.00  0.00    -0.389 OA
ATOM     29  H   UNL     1       8.591  -5.855  24.318  0.00  0.00    +0.210 HD
ENDBRANCH  27  28
BRANCH  27  30
ATOM     30  C   UNL     1       6.164  -4.669  23.507  0.00  0.00    +0.118 C 
BRANCH  30  32
ATOM     31  C   UNL     1       5.682  -5.725  25.671  0.00  0.00    +0.143 C 
ATOM     32  N   UNL     1       5.605  -4.465  24.865  0.00  0.00    -0.289 NA
ATOM     33  C   UNL     1       4.219  -3.937  24.859  0.00  0.00    +0.089 C 
ATOM     34  C   UNL     1       3.072  -4.940  24.587  0.00  0.00    +0.006 C 
ATOM     35  C   UNL     1       3.208  -6.215  25.434  0.00  0.00    -0.005 C 
ATOM     36  C   UNL     1       2.098  -7.218  25.073  0.00  0.00    +0.004 C 
ATOM     37  C   UNL     1       0.718  -6.601  25.336  0.00  0.00    +0.000 C 
ATOM     38  C   UNL     1       0.547  -5.273  24.602  0.00  0.00    +0.000 C 
ATOM     39  C   UNL     1       1.699  -4.304  24.880  0.00  0.00    +0.005 C 
ATOM     40  C   UNL     1       4.620  -6.781  25.280  0.00  0.00    +0.032 C 
BRANCH  31  43
ATOM     41  N   UNL     1       4.881  -6.248  27.981  0.00  0.00    -0.309 N 
ATOM     42  H   UNL     1       4.515  -7.060  27.491  0.00  0.00    +0.149 HD
ATOM     43  C   UNL     1       5.683  -5.420  27.212  0.00  0.00    +0.231 C 
ATOM     44  O   UNL     1       6.281  -4.449  27.677  0.00  0.00    -0.274 OA
BRANCH  41  46
ATOM     45  C   UNL     1       3.955  -4.663  29.647  0.00  0.00    +0.031 C 
ATOM     46  C   UNL     1       4.559  -6.059  29.415  0.00  0.00    +0.026 C 
ATOM     47  C   UNL     1       3.505  -7.096  29.848  0.00  0.00    +0.031 C 
ATOM     48  C   UNL     1       5.786  -6.249  30.327  0.00  0.00    +0.031 C 
ENDBRANCH  41  46
ENDBRANCH  31  43
ENDBRANCH  30  32
ENDBRANCH  27  30
ENDBRANCH   1  27
BRANCH   1  49
ATOM     49  C   UNL     1       9.730  -2.790  23.869  0.00  0.00    +0.060 C 
BRANCH  49  50
ATOM     50  C   UNL     1       9.815  -1.418  23.227  0.00  0.00    -0.046 A 
ATOM     51  C   UNL     1      10.358  -0.329  23.924  0.00  0.00    +0.004 A 
ATOM     52  C   UNL     1      10.444   0.930  23.325  0.00  0.00    +0.000 A 
ATOM     53  C   UNL     1       9.981   1.127  22.023  0.00  0.00    +0.000 A 
ATOM     54  C   UNL     1       9.415   0.068  21.328  0.00  0.00    +0.000 A 
ATOM     55  C   UNL     1       9.322  -1.184  21.937  0.00  0.00    +0.004 A 
ENDBRANCH  49  50
ENDBRANCH   1  49
TORSDOF 14
ENDMDL
MODEL 6
REMARK VINA RESULT:      -7.2      2.577      4.097
REMARK  Name = 
REMARK  17 active torsions:
REMARK  status: ('A' for Active; 'I' for Inactive)
REMARK    1  A    between atoms: C_1  and  C_2
REMARK    2  A    between atoms: C_2  and  C_3
REMARK    3  A    between atoms: C_2  and  C_4
REMARK    4  A    between atoms: C_2  and  N_5
REMARK    5  A    between atoms: C_6  and  C_8
REMARK    6  A    between atoms: N_17  and  C_18
REMARK    7  A    between atoms: C_18  and  C_19
REMARK    8  A    between atoms: C_19  and  C_20
REMARK    9  A    between atoms: C_19  and  O_49
REMARK   10  A    between atoms: C_20  and  C_21
REMARK   11  A    between atoms: C_20  and  N_28
REMARK   12  A    between atoms: C_21  and  C_22
REMARK   13  A    between atoms: C_29  and  C_31
REMARK   14  A    between atoms: C_31  and  C_32
REMARK   15  A    between atoms: C_31  and  N_36
REMARK   16  A    between atoms: C_32  and  C_33
REMARK   17  A    between atoms: C_37  and  C_39
REMARK                            x       y       z     vdW  Elec       q    Type
REMARK                         _______ _______ _______ _____ _____    ______ ____
ROOT
ATOM      1  C   UNL     1       5.597  -2.276  25.654  0.00  0.00    +0.107 C 
ENDROOT
BRANCH   1   2
ATOM      2  N   UNL     1       6.854  -1.719  25.099  0.00  0.00    -0.308 N 
ATOM      3  H   UNL     1       6.760  -1.094  24.294  0.00  0.00    +0.149 HD
ATOM      4  C   UNL     1       8.110  -1.863  25.661  0.00  0.00    +0.234 C 
ATOM      5  O   UNL     1       8.285  -2.440  26.735  0.00  0.00    -0.274 OA
BRANCH   4   6
ATOM      6  C   UNL     1       9.292  -1.195  24.877  0.00  0.00    +0.168 C 
BRANCH   6   7
ATOM      7  N   UNL     1       8.909   0.156  24.473  0.00  0.00    -0.298 N 
ATOM      8  H   UNL     1       7.996   0.307  24.053  0.00  0.00    +0.150 HD
ATOM      9  C   UNL     1       9.847   1.155  24.250  0.00  0.00    +0.263 C 
ATOM     10  O   UNL     1      11.037   1.011  24.484  0.00  0.00    -0.269 OA
BRANCH   9  11
ATOM     11  C   UNL     1       9.326   2.385  23.606  0.00  0.00    +0.126 A 
ATOM     12  C   UNL     1       8.441   2.251  22.557  0.00  0.00    +0.033 A 
ATOM     13  C   UNL     1       7.798   3.392  22.110  0.00  0.00    +0.012 A 
ATOM     14  C   UNL     1       8.070   4.622  22.727  0.00  0.00    +0.000 A 
ATOM     15  C   UNL     1       9.062   4.669  23.734  0.00  0.00    +0.072 A 
ATOM     16  C   UNL     1       9.358   5.901  24.299  0.00  0.00    +0.028 A 
ATOM     17  C   UNL     1       8.641   7.051  23.959  0.00  0.00    +0.002 A 
ATOM     18  C   UNL     1       7.621   6.980  23.015  0.00  0.00    +0.001 A 
ATOM     19  C   UNL     1       7.351   5.772  22.381  0.00  0.00    +0.010 A 
ATOM     20  N   UNL     1       9.684   3.566  24.184  0.00  0.00    -0.242 NA
ENDBRANCH   9  11
ENDBRANCH   6   7
BRANCH   6  21
ATOM     21  C   UNL     1       9.811  -2.086  23.745  0.00  0.00    +0.127 C 
BRANCH  21  22
ATOM     22  C   UNL     1       9.315  -1.811  22.344  0.00  0.00    +0.213 C 
ATOM     23  N   UNL     1      10.145  -1.189  21.469  0.00  0.00    -0.329 N 
ATOM     24  H   UNL     1       9.739  -0.885  20.593  0.00  0.00    +0.145 HD
ATOM     25  H   UNL     1      11.024  -0.775  21.761  0.00  0.00    +0.145 HD
ATOM     26  O   UNL     1       8.160  -2.063  22.008  0.00  0.00    -0.276 OA
ENDBRANCH  21  22
ENDBRANCH   6  21
ENDBRANCH   4   6
ENDBRANCH   1   2
BRANCH   1  27
ATOM     27  C   UNL     1       4.738  -1.126  26.279  0.00  0.00    +0.149 C 
BRANCH  27  28
ATOM     28  O   UNL     1       4.405  -1.419  27.655  0.00  0.00    -0.389 OA
ATOM     29  H   UNL     1       4.268  -0.583  28.133  0.00  0.00    +0.210 HD
ENDBRANCH  27  28
BRANCH  27  30
ATOM     30  C   UNL     1       5.320   0.316  26.212  0.00  0.00    +0.118 C 
BRANCH  30  32
ATOM     31  C   UNL     1       4.842   2.254  24.782  0.00  0.00    +0.143 C 
ATOM     32  N   UNL     1       4.356   1.402  25.914  0.00  0.00    -0.289 NA
ATOM     33  C   UNL     1       4.030   2.243  27.093  0.00  0.00    +0.089 C 
ATOM     34  C   UNL     1       5.056   3.327  27.504  0.00  0.00    +0.006 C 
ATOM     35  C   UNL     1       5.525   4.162  26.302  0.00  0.00    -0.005 C 
ATOM     36  C   UNL     1       6.602   5.171  26.740  0.00  0.00    +0.004 C 
ATOM     37  C   UNL     1       6.040   6.120  27.806  0.00  0.00    +0.000 C 
ATOM     38  C   UNL     1       5.462   5.353  28.994  0.00  0.00    +0.000 C 
ATOM     39  C   UNL     1       4.459   4.280  28.558  0.00  0.00    +0.005 C 
ATOM     40  C   UNL     1       5.976   3.230  25.178  0.00  0.00    +0.032 C 
BRANCH  31  43
ATOM     41  N   UNL     1       3.994   4.129  23.361  0.00  0.00    -0.309 N 
ATOM     42  H   UNL     1       4.994   4.278  23.251  0.00  0.00    +0.149 HD
ATOM     43  C   UNL     1       3.652   2.983  24.062  0.00  0.00    +0.231 C 
ATOM     44  O   UNL     1       2.487   2.608  24.199  0.00  0.00    -0.274 OA
BRANCH  41  46
ATOM     45  C   UNL     1       3.801   6.330  22.236  0.00  0.00    +0.031 C 
ATOM     46  C   UNL     1       3.046   5.095  22.758  0.00  0.00    +0.026 C 
ATOM     47  C   UNL     1       2.340   4.442  21.553  0.00  0.00    +0.031 C 
ATOM     48  C   UNL     1       1.948   5.539  23.743  0.00  0.00    +0.031 C 
ENDBRANCH  41  46
ENDBRANCH  31  43
ENDBRANCH  30  32
ENDBRANCH  27  30
ENDBRANCH   1  27
BRANCH   1  49
ATOM     49  C   UNL     1       4.856  -3.196  24.634  0.00  0.00    +0.060 C 
BRANCH  49  50
ATOM     50  C   UNL     1       5.678  -4.030  23.668  0.00  0.00    -0.046 A 
ATOM     51  C   UNL     1       6.799  -4.746  24.110  0.00  0.00    +0.004 A 
ATOM     52  C   UNL     1       7.547  -5.521  23.219  0.00  0.00    +0.000 A 
ATOM     53  C   UNL     1       7.193  -5.587  21.870  0.00  0.00    +0.000 A 
ATOM     54  C   UNL     1       6.103  -4.862  21.410  0.00  0.00    +0.000 A 
ATOM     55  C   UNL     1       5.368  -4.080  22.303  0.00  0.00    +0.004 A 
ENDBRANCH  49  50
ENDBRANCH   1  49
TORSDOF 14
ENDMDL
MODEL 7
REMARK VINA RESULT:      -7.0      1.970      8.184
REMARK  Name = 
REMARK  17 active torsions:
REMARK  status: ('A' for Active; 'I' for Inactive)
REMARK    1  A    between atoms: C_1  and  C_2
REMARK    2  A    between atoms: C_2  and  C_3
REMARK    3  A    between atoms: C_2  and  C_4
REMARK    4  A    between atoms: C_2  and  N_5
REMARK    5  A    between atoms: C_6  and  C_8
REMARK    6  A    between atoms: N_17  and  C_18
REMARK    7  A    between atoms: C_18  and  C_19
REMARK    8  A    between atoms: C_19  and  C_20
REMARK    9  A    between atoms: C_19  and  O_49
REMARK   10  A    between atoms: C_20  and  C_21
REMARK   11  A    between atoms: C_20  and  N_28
REMARK   12  A    between atoms: C_21  and  C_22
REMARK   13  A    between atoms: C_29  and  C_31
REMARK   14  A    between atoms: C_31  and  C_32
REMARK   15  A    between atoms: C_31  and  N_36
REMARK   16  A    between atoms: C_32  and  C_33
REMARK   17  A    between atoms: C_37  and  C_39
REMARK                            x       y       z     vdW  Elec       q    Type
REMARK                         _______ _______ _______ _____ _____    ______ ____
ROOT
ATOM      1  C   UNL     1       7.884  -3.340  24.171  0.00  0.00    +0.107 C 
ENDROOT
BRANCH   1   2
ATOM      2  N   UNL     1       7.049  -2.194  24.604  0.00  0.00    -0.308 N 
ATOM      3  H   UNL     1       6.606  -1.646  23.862  0.00  0.00    +0.149 HD
ATOM      4  C   UNL     1       6.713  -1.899  25.914  0.00  0.00    +0.234 C 
ATOM      5  O   UNL     1       7.047  -2.620  26.855  0.00  0.00    -0.274 OA
BRANCH   4   6
ATOM      6  C   UNL     1       5.831  -0.620  26.122  0.00  0.00    +0.168 C 
BRANCH   6   7
ATOM      7  N   UNL     1       6.278   0.437  25.217  0.00  0.00    -0.298 N 
ATOM      8  H   UNL     1       7.275   0.605  25.108  0.00  0.00    +0.150 HD
ATOM      9  C   UNL     1       5.446   1.474  24.822  0.00  0.00    +0.263 C 
ATOM     10  O   UNL     1       4.258   1.516  25.106  0.00  0.00    -0.269 OA
BRANCH   9  11
ATOM     11  C   UNL     1       6.114   2.593  24.114  0.00  0.00    +0.126 A 
ATOM     12  C   UNL     1       5.358   3.375  23.265  0.00  0.00    +0.033 A 
ATOM     13  C   UNL     1       5.932   4.537  22.783  0.00  0.00    +0.012 A 
ATOM     14  C   UNL     1       7.240   4.870  23.164  0.00  0.00    +0.000 A 
ATOM     15  C   UNL     1       7.963   3.957  23.966  0.00  0.00    +0.072 A 
ATOM     16  C   UNL     1       9.274   4.273  24.293  0.00  0.00    +0.028 A 
ATOM     17  C   UNL     1       9.843   5.495  23.925  0.00  0.00    +0.002 A 
ATOM     18  C   UNL     1       9.098   6.416  23.194  0.00  0.00    +0.001 A 
ATOM     19  C   UNL     1       7.806   6.095  22.791  0.00  0.00    +0.010 A 
ATOM     20  N   UNL     1       7.413   2.830  24.449  0.00  0.00    -0.242 NA
ENDBRANCH   9  11
ENDBRANCH   6   7
BRANCH   6  21
ATOM     21  C   UNL     1       5.740  -0.214  27.596  0.00  0.00    +0.127 C 
BRANCH  21  22
ATOM     22  C   UNL     1       4.417  -0.403  28.302  0.00  0.00    +0.213 C 
ATOM     23  N   UNL     1       3.942  -1.664  28.466  0.00  0.00    -0.329 N 
ATOM     24  H   UNL     1       2.991  -1.752  28.806  0.00  0.00    +0.145 HD
ATOM     25  H   UNL     1       4.365  -2.464  28.009  0.00  0.00    +0.145 HD
ATOM     26  O   UNL     1       3.731   0.553  28.654  0.00  0.00    -0.276 OA
ENDBRANCH  21  22
ENDBRANCH   6  21
ENDBRANCH   4   6
ENDBRANCH   1   2
BRANCH   1  27
ATOM     27  C   UNL     1       7.134  -4.154  23.064  0.00  0.00    +0.149 C 
BRANCH  27  28
ATOM     28  O   UNL     1       8.066  -4.702  22.104  0.00  0.00    -0.389 OA
ATOM     29  H   UNL     1       8.178  -4.070  21.373  0.00  0.00    +0.210 HD
ENDBRANCH  27  28
BRANCH  27  30
ATOM     30  C   UNL     1       6.188  -5.297  23.535  0.00  0.00    +0.118 C 
BRANCH  30  32
ATOM     31  C   UNL     1       4.969  -5.968  25.558  0.00  0.00    +0.143 C 
ATOM     32  N   UNL     1       5.129  -4.919  24.501  0.00  0.00    -0.289 NA
ATOM     33  C   UNL     1       3.823  -4.626  23.859  0.00  0.00    +0.089 C 
ATOM     34  C   UNL     1       2.947  -5.831  23.437  0.00  0.00    +0.006 C 
ATOM     35  C   UNL     1       2.826  -6.876  24.557  0.00  0.00    -0.005 C 
ATOM     36  C   UNL     1       2.018  -8.092  24.069  0.00  0.00    +0.004 C 
ATOM     37  C   UNL     1       0.607  -7.659  23.651  0.00  0.00    +0.000 C 
ATOM     38  C   UNL     1       0.648  -6.545  22.606  0.00  0.00    +0.000 C 
ATOM     39  C   UNL     1       1.529  -5.372  23.044  0.00  0.00    +0.005 C 
ATOM     40  C   UNL     1       4.220  -7.233  25.074  0.00  0.00    +0.032 C 
BRANCH  31  43
ATOM     41  N   UNL     1       3.985  -6.297  27.834  0.00  0.00    -0.309 N 
ATOM     42  H   UNL     1       4.316  -7.242  27.659  0.00  0.00    +0.149 HD
ATOM     43  C   UNL     1       4.344  -5.368  26.869  0.00  0.00    +0.231 C 
ATOM     44  O   UNL     1       4.104  -4.166  26.978  0.00  0.00    -0.274 OA
BRANCH  41  46
ATOM     45  C   UNL     1       3.027  -7.303  29.888  0.00  0.00    +0.031 C 
ATOM     46  C   UNL     1       3.212  -6.015  29.065  0.00  0.00    +0.026 C 
ATOM     47  C   UNL     1       3.988  -5.014  29.945  0.00  0.00    +0.031 C 
ATOM     48  C   UNL     1       1.835  -5.389  28.771  0.00  0.00    +0.031 C 
ENDBRANCH  41  46
ENDBRANCH  31  43
ENDBRANCH  30  32
ENDBRANCH  27  30
ENDBRANCH   1  27
BRANCH   1  49
ATOM     49  C   UNL     1       9.344  -2.912  23.824  0.00  0.00    +0.060 C 
BRANCH  49  50
ATOM     50  C   UNL     1       9.587  -1.521  23.269  0.00  0.00    -0.046 A 
ATOM     51  C   UNL     1      10.101  -0.501  24.081  0.00  0.00    +0.004 A 
ATOM     52  C   UNL     1      10.332   0.776  23.563  0.00  0.00    +0.000 A 
ATOM     53  C   UNL     1      10.046   1.060  22.226  0.00  0.00    +0.000 A 
ATOM     54  C   UNL     1       9.510   0.070  21.414  0.00  0.00    +0.000 A 
ATOM     55  C   UNL     1       9.270  -1.200  21.943  0.00  0.00    +0.004 A 
ENDBRANCH  49  50
ENDBRANCH   1  49
TORSDOF 14
ENDMDL
MODEL 8
REMARK VINA RESULT:      -6.7      3.131      9.668
REMARK  Name = 
REMARK  17 active torsions:
REMARK  status: ('A' for Active; 'I' for Inactive)
REMARK    1  A    between atoms: C_1  and  C_2
REMARK    2  A    between atoms: C_2  and  C_3
REMARK    3  A    between atoms: C_2  and  C_4
REMARK    4  A    between atoms: C_2  and  N_5
REMARK    5  A    between atoms: C_6  and  C_8
REMARK    6  A    between atoms: N_17  and  C_18
REMARK    7  A    between atoms: C_18  and  C_19
REMARK    8  A    between atoms: C_19  and  C_20
REMARK    9  A    between atoms: C_19  and  O_49
REMARK   10  A    between atoms: C_20  and  C_21
REMARK   11  A    between atoms: C_20  and  N_28
REMARK   12  A    between atoms: C_21  and  C_22
REMARK   13  A    between atoms: C_29  and  C_31
REMARK   14  A    between atoms: C_31  and  C_32
REMARK   15  A    between atoms: C_31  and  N_36
REMARK   16  A    between atoms: C_32  and  C_33
REMARK   17  A    between atoms: C_37  and  C_39
REMARK                            x       y       z     vdW  Elec       q    Type
REMARK                         _______ _______ _______ _____ _____    ______ ____
ROOT
ATOM      1  C   UNL     1       9.470   1.076  23.906  0.00  0.00    +0.107 C 
ENDROOT
BRANCH   1   2
ATOM      2  N   UNL     1       8.113   1.508  24.320  0.00  0.00    -0.308 N 
ATOM      3  H   UNL     1       8.025   1.890  25.266  0.00  0.00    +0.149 HD
ATOM      4  C   UNL     1       7.005   1.567  23.494  0.00  0.00    +0.234 C 
ATOM      5  O   UNL     1       7.069   1.307  22.292  0.00  0.00    -0.274 OA
BRANCH   4   6
ATOM      6  C   UNL     1       5.672   2.041  24.170  0.00  0.00    +0.168 C 
BRANCH   6   7
ATOM      7  N   UNL     1       4.827   2.700  23.176  0.00  0.00    -0.298 N 
ATOM      8  H   UNL     1       5.265   3.223  22.422  0.00  0.00    +0.150 HD
ATOM      9  C   UNL     1       3.494   2.998  23.419  0.00  0.00    +0.263 C 
ATOM     10  O   UNL     1       2.906   2.633  24.426  0.00  0.00    -0.269 OA
BRANCH   9  11
ATOM     11  C   UNL     1       2.847   3.884  22.422  0.00  0.00    +0.126 A 
ATOM     12  C   UNL     1       2.737   5.228  22.713  0.00  0.00    +0.033 A 
ATOM     13  C   UNL     1       2.334   6.074  21.695  0.00  0.00    +0.012 A 
ATOM     14  C   UNL     1       2.052   5.542  20.428  0.00  0.00    +0.000 A 
ATOM     15  C   UNL     1       2.106   4.140  20.257  0.00  0.00    +0.072 A 
ATOM     16  C   UNL     1       1.773   3.623  19.012  0.00  0.00    +0.028 A 
ATOM     17  C   UNL     1       1.482   4.457  17.930  0.00  0.00    +0.002 A 
ATOM     18  C   UNL     1       1.498   5.838  18.094  0.00  0.00    +0.001 A 
ATOM     19  C   UNL     1       1.758   6.382  19.347  0.00  0.00    +0.010 A 
ATOM     20  N   UNL     1       2.507   3.310  21.234  0.00  0.00    -0.242 NA
ENDBRANCH   9  11
ENDBRANCH   6   7
BRANCH   6  21
ATOM     21  C   UNL     1       5.926   2.855  25.443  0.00  0.00    +0.127 C 
BRANCH  21  22
ATOM     22  C   UNL     1       5.509   2.250  26.764  0.00  0.00    +0.213 C 
ATOM     23  N   UNL     1       4.242   2.457  27.203  0.00  0.00    -0.329 N 
ATOM     24  H   UNL     1       4.036   2.170  28.152  0.00  0.00    +0.145 HD
ATOM     25  H   UNL     1       3.616   3.116  26.753  0.00  0.00    +0.145 HD
ATOM     26  O   UNL     1       6.308   1.651  27.479  0.00  0.00    -0.276 OA
ENDBRANCH  21  22
ENDBRANCH   6  21
ENDBRANCH   4   6
ENDBRANCH   1   2
BRANCH   1  27
ATOM     27  C   UNL     1       9.436  -0.426  23.467  0.00  0.00    +0.149 C 
BRANCH  27  28
ATOM     28  O   UNL     1      10.571  -0.746  22.629  0.00  0.00    -0.389 OA
ATOM     29  H   UNL     1      10.852   0.056  22.157  0.00  0.00    +0.210 HD
ENDBRANCH  27  28
BRANCH  27  30
ATOM     30  C   UNL     1       9.343  -1.497  24.594  0.00  0.00    +0.118 C 
BRANCH  30  32
ATOM     31  C   UNL     1       8.030  -3.237  25.725  0.00  0.00    +0.143 C 
ATOM     32  N   UNL     1       7.980  -1.948  24.962  0.00  0.00    -0.289 NA
ATOM     33  C   UNL     1       7.064  -2.068  23.801  0.00  0.00    +0.089 C 
ATOM     34  C   UNL     1       7.194  -3.331  22.915  0.00  0.00    +0.006 C 
ATOM     35  C   UNL     1       7.249  -4.619  23.751  0.00  0.00    -0.005 C 
ATOM     36  C   UNL     1       7.461  -5.840  22.838  0.00  0.00    +0.004 C 
ATOM     37  C   UNL     1       6.308  -5.959  21.833  0.00  0.00    +0.000 C 
ATOM     38  C   UNL     1       6.128  -4.672  21.030  0.00  0.00    +0.000 C 
ATOM     39  C   UNL     1       6.013  -3.439  21.930  0.00  0.00    +0.005 C 
ATOM     40  C   UNL     1       8.312  -4.475  24.840  0.00  0.00    +0.032 C 
BRANCH  31  43
ATOM     41  N   UNL     1       6.409  -4.735  26.901  0.00  0.00    -0.309 N 
ATOM     42  H   UNL     1       7.110  -5.423  26.638  0.00  0.00    +0.149 HD
ATOM     43  C   UNL     1       6.753  -3.422  26.621  0.00  0.00    +0.231 C 
ATOM     44  O   UNL     1       6.060  -2.463  26.962  0.00  0.00    -0.274 OA
BRANCH  41  46
ATOM     45  C   UNL     1       3.934  -4.626  26.812  0.00  0.00    +0.031 C 
ATOM     46  C   UNL     1       5.160  -5.186  27.556  0.00  0.00    +0.026 C 
ATOM     47  C   UNL     1       5.072  -6.724  27.499  0.00  0.00    +0.031 C 
ATOM     48  C   UNL     1       5.091  -4.782  29.041  0.00  0.00    +0.031 C 
ENDBRANCH  41  46
ENDBRANCH  31  43
ENDBRANCH  30  32
ENDBRANCH  27  30
ENDBRANCH   1  27
BRANCH   1  49
ATOM     49  C   UNL     1      10.122   2.064  22.889  0.00  0.00    +0.060 C 
BRANCH  49  50
ATOM     50  C   UNL     1      10.443   3.475  23.342  0.00  0.00    -0.046 A 
ATOM     51  C   UNL     1       9.439   4.321  23.833  0.00  0.00    +0.004 A 
ATOM     52  C   UNL     1       9.741   5.617  24.259  0.00  0.00    +0.000 A 
ATOM     53  C   UNL     1      11.052   6.094  24.195  0.00  0.00    +0.000 A 
ATOM     54  C   UNL     1      12.054   5.282  23.685  0.00  0.00    +0.000 A 
ATOM     55  C   UNL     1      11.742   3.992  23.250  0.00  0.00    +0.004 A 
ENDBRANCH  49  50
ENDBRANCH   1  49
TORSDOF 14
ENDMDL
MODEL 9
REMARK VINA RESULT:      -6.7      2.830      6.990
REMARK  Name = 
REMARK  17 active torsions:
REMARK  status: ('A' for Active; 'I' for Inactive)
REMARK    1  A    between atoms: C_1  and  C_2
REMARK    2  A    between atoms: C_2  and  C_3
REMARK    3  A    between atoms: C_2  and  C_4
REMARK    4  A    between atoms: C_2  and  N_5
REMARK    5  A    between atoms: C_6  and  C_8
REMARK    6  A    between atoms: N_17  and  C_18
REMARK    7  A    between atoms: C_18  and  C_19
REMARK    8  A    between atoms: C_19  and  C_20
REMARK    9  A    between atoms: C_19  and  O_49
REMARK   10  A    between atoms: C_20  and  C_21
REMARK   11  A    between atoms: C_20  and  N_28
REMARK   12  A    between atoms: C_21  and  C_22
REMARK   13  A    between atoms: C_29  and  C_31
REMARK   14  A    between atoms: C_31  and  C_32
REMARK   15  A    between atoms: C_31  and  N_36
REMARK   16  A    between atoms: C_32  and  C_33
REMARK   17  A    between atoms: C_37  and  C_39
REMARK                            x       y       z     vdW  Elec       q    Type
REMARK                         _______ _______ _______ _____ _____    ______ ____
ROOT
ATOM      1  C   UNL     1       5.141   1.718  28.607  0.00  0.00    +0.107 C 
ENDROOT
BRANCH   1   2
ATOM      2  N   UNL     1       4.748   0.311  28.353  0.00  0.00    -0.308 N 
ATOM      3  H   UNL     1       5.006  -0.078  27.443  0.00  0.00    +0.149 HD
ATOM      4  C   UNL     1       4.194  -0.546  29.288  0.00  0.00    +0.234 C 
ATOM      5  O   UNL     1       4.027  -0.215  30.463  0.00  0.00    -0.274 OA
BRANCH   4   6
ATOM      6  C   UNL     1       3.846  -1.986  28.776  0.00  0.00    +0.168 C 
BRANCH   6   7
ATOM      7  N   UNL     1       4.775  -2.365  27.714  0.00  0.00    -0.298 N 
ATOM      8  H   UNL     1       4.740  -1.871  26.826  0.00  0.00    +0.150 HD
ATOM      9  C   UNL     1       5.408  -3.600  27.691  0.00  0.00    +0.263 C 
ATOM     10  O   UNL     1       5.324  -4.405  28.606  0.00  0.00    -0.269 OA
BRANCH   9  11
ATOM     11  C   UNL     1       6.116  -3.931  26.430  0.00  0.00    +0.126 A 
ATOM     12  C   UNL     1       7.318  -4.602  26.511  0.00  0.00    +0.033 A 
ATOM     13  C   UNL     1       7.858  -5.093  25.336  0.00  0.00    +0.012 A 
ATOM     14  C   UNL     1       7.177  -4.891  24.127  0.00  0.00    +0.000 A 
ATOM     15  C   UNL     1       5.997  -4.112  24.138  0.00  0.00    +0.072 A 
ATOM     16  C   UNL     1       5.362  -3.875  22.927  0.00  0.00    +0.028 A 
ATOM     17  C   UNL     1       5.812  -4.459  21.740  0.00  0.00    +0.002 A 
ATOM     18  C   UNL     1       6.936  -5.280  21.753  0.00  0.00    +0.001 A 
ATOM     19  C   UNL     1       7.634  -5.477  22.940  0.00  0.00    +0.010 A 
ATOM     20  N   UNL     1       5.458  -3.638  25.274  0.00  0.00    -0.242 NA
ENDBRANCH   9  11
ENDBRANCH   6   7
BRANCH   6  21
ATOM     21  C   UNL     1       2.363  -2.130  28.419  0.00  0.00    +0.127 C 
BRANCH  21  22
ATOM     22  C   UNL     1       1.911  -1.644  27.061  0.00  0.00    +0.213 C 
ATOM     23  N   UNL     1       0.919  -0.720  26.999  0.00  0.00    -0.329 N 
ATOM     24  H   UNL     1       0.536  -0.524  26.082  0.00  0.00    +0.145 HD
ATOM     25  H   UNL     1       0.376  -0.455  27.813  0.00  0.00    +0.145 HD
ATOM     26  O   UNL     1       2.360  -2.122  26.023  0.00  0.00    -0.276 OA
ENDBRANCH  21  22
ENDBRANCH   6  21
ENDBRANCH   4   6
ENDBRANCH   1   2
BRANCH   1  27
ATOM     27  C   UNL     1       6.605   1.957  28.108  0.00  0.00    +0.149 C 
BRANCH  27  28
ATOM     28  O   UNL     1       7.526   2.024  29.221  0.00  0.00    -0.389 OA
ATOM     29  H   UNL     1       7.020   2.116  30.046  0.00  0.00    +0.210 HD
ENDBRANCH  27  28
BRANCH  27  30
ATOM     30  C   UNL     1       7.175   0.955  27.061  0.00  0.00    +0.118 C 
BRANCH  30  32
ATOM     31  C   UNL     1       7.312   2.000  24.844  0.00  0.00    +0.143 C 
ATOM     32  N   UNL     1       8.083   1.520  26.035  0.00  0.00    -0.289 NA
ATOM     33  C   UNL     1       9.155   0.584  25.616  0.00  0.00    +0.089 C 
ATOM     34  C   UNL     1       8.780  -0.528  24.607  0.00  0.00    +0.006 C 
ATOM     35  C   UNL     1       7.984   0.021  23.412  0.00  0.00    -0.005 C 
ATOM     36  C   UNL     1       7.562  -1.127  22.478  0.00  0.00    +0.004 C 
ATOM     37  C   UNL     1       8.798  -1.861  21.945  0.00  0.00    +0.000 C 
ATOM     38  C   UNL     1       9.694  -2.352  23.081  0.00  0.00    +0.000 C 
ATOM     39  C   UNL     1      10.040  -1.235  24.069  0.00  0.00    +0.005 C 
ATOM     40  C   UNL     1       6.814   0.861  23.923  0.00  0.00    +0.032 C 
BRANCH  31  43
ATOM     41  N   UNL     1       8.647   4.115  24.831  0.00  0.00    -0.309 N 
ATOM     42  H   UNL     1       8.613   3.947  25.832  0.00  0.00    +0.149 HD
ATOM     43  C   UNL     1       8.106   3.102  24.054  0.00  0.00    +0.231 C 
ATOM     44  O   UNL     1       8.154   3.106  22.824  0.00  0.00    -0.274 OA
BRANCH  41  46
ATOM     45  C   UNL     1       8.336   6.056  23.318  0.00  0.00    +0.031 C 
ATOM     46  C   UNL     1       9.271   5.359  24.323  0.00  0.00    +0.026 C 
ATOM     47  C   UNL     1       9.499   6.336  25.494  0.00  0.00    +0.031 C 
ATOM     48  C   UNL     1      10.642   5.110  23.666  0.00  0.00    +0.031 C 
ENDBRANCH  41  46
ENDBRANCH  31  43
ENDBRANCH  30  32
ENDBRANCH  27  30
ENDBRANCH   1  27
BRANCH   1  49
ATOM     49  C   UNL     1       4.075   2.733  28.088  0.00  0.00    +0.060 C 
BRANCH  49  50
ATOM     50  C   UNL     1       4.214   3.286  26.682  0.00  0.00    -0.046 A 
ATOM     51  C   UNL     1       4.879   4.497  26.446  0.00  0.00    +0.004 A 
ATOM     52  C   UNL     1       5.013   4.997  25.148  0.00  0.00    +0.000 A 
ATOM     53  C   UNL     1       4.478   4.300  24.063  0.00  0.00    +0.000 A 
ATOM     54  C   UNL     1       3.791   3.114  24.280  0.00  0.00    +0.000 A 
ATOM     55  C   UNL     1       3.651   2.627  25.581  0.00  0.00    +0.004 A 
ENDBRANCH  49  50
ENDBRANCH   1  49
TORSDOF 14
ENDMDL
