MODEL 1
REMARK VINA RESULT:      -5.9      0.000      0.000
REMARK  Name = 
REMARK  4 active torsions:
REMARK  status: ('A' for Active; 'I' for Inactive)
REMARK    1  A    between atoms: C_1  and  C_2
REMARK    2  A    between atoms: N_4  and  C_10
REMARK    3  A    between atoms: C_13  and  C_15
REMARK    4  A    between atoms: C_15  and  O_16
REMARK                            x       y       z     vdW  Elec       q    Type
REMARK                         _______ _______ _______ _____ _____    ______ ____
ROOT
ATOM      1  C   UNL     1       5.362  -3.964  27.814  0.00  0.00    +0.051 C 
ATOM      2  C   UNL     1       6.595  -4.242  27.018  0.00  0.00    +0.030 A 
ATOM      3  C   UNL     1       7.372  -5.445  27.400  0.00  0.00    +0.257 A 
ATOM      4  O   UNL     1       6.991  -6.221  28.270  0.00  0.00    -0.267 OA
ATOM      5  N   UNL     1       8.530  -5.646  26.714  0.00  0.00    -0.275 N 
ATOM      6  H   UNL     1       9.058  -6.475  26.943  0.00  0.00    +0.173 HD
ATOM      7  C   UNL     1       8.950  -4.939  25.625  0.00  0.00    +0.332 A 
ATOM      8  O   UNL     1       9.940  -5.312  24.997  0.00  0.00    -0.246 OA
ATOM      9  N   UNL     1       8.183  -3.833  25.287  0.00  0.00    -0.270 N 
ATOM     10  C   UNL     1       7.036  -3.504  25.988  0.00  0.00    +0.102 A 
ENDROOT
BRANCH   9  11
ATOM     11  C   UNL     1       8.607  -3.120  24.099  0.00  0.00    +0.248 C 
ATOM     12  O   UNL     1       9.536  -2.050  24.378  0.00  0.00    -0.343 OA
ATOM     13  C   UNL     1       9.266  -1.012  23.401  0.00  0.00    +0.169 C 
ATOM     14  C   UNL     1       7.825  -1.213  23.063  0.00  0.00    +0.007 C 
ATOM     15  C   UNL     1       7.452  -2.427  23.462  0.00  0.00    +0.025 C 
BRANCH  13  16
ATOM     16  C   UNL     1      10.184  -1.183  22.175  0.00  0.00    +0.191 C 
BRANCH  16  17
ATOM     17  O   UNL     1       9.527  -0.841  20.957  0.00  0.00    -0.392 OA
ATOM     18  H   UNL     1       9.244   0.086  21.034  0.00  0.00    +0.210 HD
ENDBRANCH  16  17
ENDBRANCH  13  16
ENDBRANCH   9  11
TORSDOF 3
ENDMDL
MODEL 2
REMARK VINA RESULT:      -5.9      3.009      3.229
REMARK  Name = 
REMARK  4 active torsions:
REMARK  status: ('A' for Active; 'I' for Inactive)
REMARK    1  A    between atoms: C_1  and  C_2
REMARK    2  A    between atoms: N_4  and  C_10
REMARK    3  A    between atoms: C_13  and  C_15
REMARK    4  A    between atoms: C_15  and  O_16
REMARK                            x       y       z     vdW  Elec       q    Type
REMARK                         _______ _______ _______ _____ _____    ______ ____
ROOT
ATOM      1  C   UNL     1       5.516  -6.046  26.437  0.00  0.00    +0.051 C 
ATOM      2  C   UNL     1       5.664  -5.739  24.983  0.00  0.00    +0.030 A 
ATOM      3  C   UNL     1       4.981  -6.656  24.040  0.00  0.00    +0.257 A 
ATOM      4  O   UNL     1       4.265  -7.575  24.424  0.00  0.00    -0.267 OA
ATOM      5  N   UNL     1       5.184  -6.408  22.718  0.00  0.00    -0.275 N 
ATOM      6  H   UNL     1       4.705  -7.006  22.062  0.00  0.00    +0.173 HD
ATOM      7  C   UNL     1       5.820  -5.319  22.195  0.00  0.00    +0.332 A 
ATOM      8  O   UNL     1       5.808  -5.127  20.981  0.00  0.00    -0.246 OA
ATOM      9  N   UNL     1       6.428  -4.474  23.113  0.00  0.00    -0.270 N 
ATOM     10  C   UNL     1       6.346  -4.702  24.476  0.00  0.00    +0.102 A 
ENDROOT
BRANCH   9  11
ATOM     11  C   UNL     1       7.056  -3.294  22.552  0.00  0.00    +0.248 C 
ATOM     12  O   UNL     1       8.326  -2.980  23.161  0.00  0.00    -0.343 OA
ATOM     13  C   UNL     1       8.440  -1.534  23.144  0.00  0.00    +0.169 C 
ATOM     14  C   UNL     1       7.020  -1.070  23.162  0.00  0.00    +0.007 C 
ATOM     15  C   UNL     1       6.229  -2.083  22.816  0.00  0.00    +0.025 C 
BRANCH  13  16
ATOM     16  C   UNL     1       9.190  -1.073  21.881  0.00  0.00    +0.191 C 
BRANCH  16  17
ATOM     17  O   UNL     1      10.453  -1.718  21.737  0.00  0.00    -0.392 OA
ATOM     18  H   UNL     1      10.956  -1.219  21.070  0.00  0.00    +0.210 HD
ENDBRANCH  16  17
ENDBRANCH  13  16
ENDBRANCH   9  11
TORSDOF 3
ENDMDL
MODEL 3
REMARK VINA RESULT:      -5.8      2.037      5.964
REMARK  Name = 
REMARK  4 active torsions:
REMARK  status: ('A' for Active; 'I' for Inactive)
REMARK    1  A    between atoms: C_1  and  C_2
REMARK    2  A    between atoms: N_4  and  C_10
REMARK    3  A    between atoms: C_13  and  C_15
REMARK    4  A    between atoms: C_15  and  O_16
REMARK                            x       y       z     vdW  Elec       q    Type
REMARK                         _______ _______ _______ _____ _____    ______ ____
ROOT
ATOM      1  C   UNL     1      11.106   1.018  24.478  0.00  0.00    +0.051 C 
ATOM      2  C   UNL     1      10.146   0.016  23.927  0.00  0.00    +0.030 A 
ATOM      3  C   UNL     1       9.681   0.238  22.538  0.00  0.00    +0.257 A 
ATOM      4  O   UNL     1      10.115   1.149  21.840  0.00  0.00    -0.267 OA
ATOM      5  N   UNL     1       8.752  -0.641  22.074  0.00  0.00    -0.275 N 
ATOM      6  H   UNL     1       8.444  -0.521  21.121  0.00  0.00    +0.173 HD
ATOM      7  C   UNL     1       8.335  -1.776  22.709  0.00  0.00    +0.332 A 
ATOM      8  O   UNL     1       7.604  -2.572  22.122  0.00  0.00    -0.246 OA
ATOM      9  N   UNL     1       8.810  -1.958  24.000  0.00  0.00    -0.270 N 
ATOM     10  C   UNL     1       9.691  -1.063  24.582  0.00  0.00    +0.102 A 
ENDROOT
BRANCH   9  11
ATOM     11  C   UNL     1       8.404  -3.190  24.645  0.00  0.00    +0.248 C 
ATOM     12  O   UNL     1       8.239  -3.059  26.073  0.00  0.00    -0.343 OA
ATOM     13  C   UNL     1       8.623  -4.334  26.647  0.00  0.00    +0.169 C 
ATOM     14  C   UNL     1       9.596  -4.886  25.657  0.00  0.00    +0.007 C 
ATOM     15  C   UNL     1       9.463  -4.229  24.507  0.00  0.00    +0.025 C 
BRANCH  13  16
ATOM     16  C   UNL     1       7.386  -5.236  26.817  0.00  0.00    +0.191 C 
BRANCH  16  17
ATOM     17  O   UNL     1       7.507  -6.115  27.932  0.00  0.00    -0.392 OA
ATOM     18  H   UNL     1       8.294  -6.666  27.780  0.00  0.00    +0.210 HD
ENDBRANCH  16  17
ENDBRANCH  13  16
ENDBRANCH   9  11
TORSDOF 3
ENDMDL
MODEL 4
REMARK VINA RESULT:      -5.7      1.560      1.581
REMARK  Name = 
REMARK  4 active torsions:
REMARK  status: ('A' for Active; 'I' for Inactive)
REMARK    1  A    between atoms: C_1  and  C_2
REMARK    2  A    between atoms: N_4  and  C_10
REMARK    3  A    between atoms: C_13  and  C_15
REMARK    4  A    between atoms: C_15  and  O_16
REMARK                            x       y       z     vdW  Elec       q    Type
REMARK                         _______ _______ _______ _____ _____    ______ ____
ROOT
ATOM      1  C   UNL     1       4.183  -6.186  25.590  0.00  0.00    +0.051 C 
ATOM      2  C   UNL     1       5.596  -5.746  25.790  0.00  0.00    +0.030 A 
ATOM      3  C   UNL     1       6.267  -6.217  27.025  0.00  0.00    +0.257 A 
ATOM      4  O   UNL     1       5.727  -6.990  27.809  0.00  0.00    -0.267 OA
ATOM      5  N   UNL     1       7.529  -5.750  27.230  0.00  0.00    -0.275 N 
ATOM      6  H   UNL     1       8.010  -6.081  28.053  0.00  0.00    +0.173 HD
ATOM      7  C   UNL     1       8.270  -5.027  26.341  0.00  0.00    +0.332 A 
ATOM      8  O   UNL     1       9.454  -4.792  26.579  0.00  0.00    -0.246 OA
ATOM      9  N   UNL     1       7.611  -4.624  25.188  0.00  0.00    -0.270 N 
ATOM     10  C   UNL     1       6.297  -4.981  24.940  0.00  0.00    +0.102 A 
ENDROOT
BRANCH   9  11
ATOM     11  C   UNL     1       8.422  -3.902  24.227  0.00  0.00    +0.248 C 
ATOM     12  O   UNL     1       8.625  -2.517  24.580  0.00  0.00    -0.343 OA
ATOM     13  C   UNL     1       8.696  -1.785  23.330  0.00  0.00    +0.169 C 
ATOM     14  C   UNL     1       7.885  -2.615  22.390  0.00  0.00    +0.007 C 
ATOM     15  C   UNL     1       7.734  -3.833  22.907  0.00  0.00    +0.025 C 
BRANCH  13  16
ATOM     16  C   UNL     1      10.161  -1.647  22.875  0.00  0.00    +0.191 C 
BRANCH  16  17
ATOM     17  O   UNL     1      10.281  -1.566  21.457  0.00  0.00    -0.392 OA
ATOM     18  H   UNL     1      11.035  -2.125  21.200  0.00  0.00    +0.210 HD
ENDBRANCH  16  17
ENDBRANCH  13  16
ENDBRANCH   9  11
TORSDOF 3
ENDMDL
MODEL 5
REMARK VINA RESULT:      -5.7      2.327      5.807
REMARK  Name = 
REMARK  4 active torsions:
REMARK  status: ('A' for Active; 'I' for Inactive)
REMARK    1  A    between atoms: C_1  and  C_2
REMARK    2  A    between atoms: N_4  and  C_10
REMARK    3  A    between atoms: C_13  and  C_15
REMARK    4  A    between atoms: C_15  and  O_16
REMARK                            x       y       z     vdW  Elec       q    Type
REMARK                         _______ _______ _______ _____ _____    ______ ____
ROOT
ATOM      1  C   UNL     1       9.808   0.474  21.797  0.00  0.00    +0.051 C 
ATOM      2  C   UNL     1       9.564   0.042  23.206  0.00  0.00    +0.030 A 
ATOM      3  C   UNL     1      10.074   0.938  24.271  0.00  0.00    +0.257 A 
ATOM      4  O   UNL     1      10.599   2.018  24.022  0.00  0.00    -0.267 OA
ATOM      5  N   UNL     1       9.909   0.497  25.548  0.00  0.00    -0.275 N 
ATOM      6  H   UNL     1      10.226   1.106  26.286  0.00  0.00    +0.173 HD
ATOM      7  C   UNL     1       9.193  -0.600  25.930  0.00  0.00    +0.332 A 
ATOM      8  O   UNL     1       8.988  -0.812  27.125  0.00  0.00    -0.246 OA
ATOM      9  N   UNL     1       8.715  -1.402  24.903  0.00  0.00    -0.270 N 
ATOM     10  C   UNL     1       8.915  -1.073  23.573  0.00  0.00    +0.102 A 
ENDROOT
BRANCH   9  11
ATOM     11  C   UNL     1       7.912  -2.534  25.318  0.00  0.00    +0.248 C 
ATOM     12  O   UNL     1       8.700  -3.680  25.705  0.00  0.00    -0.343 OA
ATOM     13  C   UNL     1       7.931  -4.850  25.327  0.00  0.00    +0.169 C 
ATOM     14  C   UNL     1       7.102  -4.371  24.182  0.00  0.00    +0.007 C 
ATOM     15  C   UNL     1       7.089  -3.039  24.183  0.00  0.00    +0.025 C 
BRANCH  13  16
ATOM     16  C   UNL     1       7.071  -5.328  26.513  0.00  0.00    +0.191 C 
BRANCH  16  17
ATOM     17  O   UNL     1       7.855  -5.917  27.547  0.00  0.00    -0.392 OA
ATOM     18  H   UNL     1       7.387  -5.762  28.386  0.00  0.00    +0.210 HD
ENDBRANCH  16  17
ENDBRANCH  13  16
ENDBRANCH   9  11
TORSDOF 3
ENDMDL
MODEL 6
REMARK VINA RESULT:      -5.6      2.641      3.432
REMARK  Name = 
REMARK  4 active torsions:
REMARK  status: ('A' for Active; 'I' for Inactive)
REMARK    1  A    between atoms: C_1  and  C_2
REMARK    2  A    between atoms: N_4  and  C_10
REMARK    3  A    between atoms: C_13  and  C_15
REMARK    4  A    between atoms: C_15  and  O_16
REMARK                            x       y       z     vdW  Elec       q    Type
REMARK                         _______ _______ _______ _____ _____    ______ ____
ROOT
ATOM      1  C   UNL     1       6.544  -5.965  21.668  0.00  0.00    +0.051 C 
ATOM      2  C   UNL     1       6.720  -4.902  22.702  0.00  0.00    +0.030 A 
ATOM      3  C   UNL     1       6.045  -5.123  24.002  0.00  0.00    +0.257 A 
ATOM      4  O   UNL     1       5.435  -6.157  24.255  0.00  0.00    -0.267 OA
ATOM      5  N   UNL     1       6.154  -4.114  24.908  0.00  0.00    -0.275 N 
ATOM      6  H   UNL     1       5.722  -4.259  25.808  0.00  0.00    +0.173 HD
ATOM      7  C   UNL     1       6.943  -3.007  24.784  0.00  0.00    +0.332 A 
ATOM      8  O   UNL     1       7.076  -2.240  25.735  0.00  0.00    -0.246 OA
ATOM      9  N   UNL     1       7.576  -2.848  23.558  0.00  0.00    -0.270 N 
ATOM     10  C   UNL     1       7.447  -3.784  22.548  0.00  0.00    +0.102 A 
ENDROOT
BRANCH   9  11
ATOM     11  C   UNL     1       8.452  -1.698  23.455  0.00  0.00    +0.248 C 
ATOM     12  O   UNL     1       8.237  -0.924  22.256  0.00  0.00    -0.343 OA
ATOM     13  C   UNL     1       9.531  -0.391  21.877  0.00  0.00    +0.169 C 
ATOM     14  C   UNL     1      10.497  -1.384  22.435  0.00  0.00    +0.007 C 
ATOM     15  C   UNL     1       9.874  -2.130  23.345  0.00  0.00    +0.025 C 
BRANCH  13  16
ATOM     16  C   UNL     1       9.726   1.015  22.477  0.00  0.00    +0.191 C 
BRANCH  16  17
ATOM     17  O   UNL     1       9.948   2.003  21.475  0.00  0.00    -0.392 OA
ATOM     18  H   UNL     1       9.119   2.504  21.376  0.00  0.00    +0.210 HD
ENDBRANCH  16  17
ENDBRANCH  13  16
ENDBRANCH   9  11
TORSDOF 3
ENDMDL
MODEL 7
REMARK VINA RESULT:      -5.5      2.551      3.625
REMARK  Name = 
REMARK  4 active torsions:
REMARK  status: ('A' for Active; 'I' for Inactive)
REMARK    1  A    between atoms: C_1  and  C_2
REMARK    2  A    between atoms: N_4  and  C_10
REMARK    3  A    between atoms: C_13  and  C_15
REMARK    4  A    between atoms: C_15  and  O_16
REMARK                            x       y       z     vdW  Elec       q    Type
REMARK                         _______ _______ _______ _____ _____    ______ ____
ROOT
ATOM      1  C   UNL     1       9.651  -5.100  25.427  0.00  0.00    +0.051 C 
ATOM      2  C   UNL     1       8.870  -4.023  24.748  0.00  0.00    +0.030 A 
ATOM      3  C   UNL     1       7.521  -4.392  24.257  0.00  0.00    +0.257 A 
ATOM      4  O   UNL     1       7.030  -5.497  24.462  0.00  0.00    -0.267 OA
ATOM      5  N   UNL     1       6.851  -3.423  23.576  0.00  0.00    -0.275 N 
ATOM      6  H   UNL     1       5.920  -3.649  23.258  0.00  0.00    +0.173 HD
ATOM      7  C   UNL     1       7.240  -2.122  23.444  0.00  0.00    +0.332 A 
ATOM      8  O   UNL     1       6.475  -1.303  22.936  0.00  0.00    -0.246 OA
ATOM      9  N   UNL     1       8.500  -1.812  23.935  0.00  0.00    -0.270 N 
ATOM     10  C   UNL     1       9.287  -2.761  24.564  0.00  0.00    +0.102 A 
ENDROOT
BRANCH   9  11
ATOM     11  C   UNL     1       8.882  -0.418  23.837  0.00  0.00    +0.248 C 
ATOM     12  O   UNL     1       9.814  -0.156  22.767  0.00  0.00    -0.343 OA
ATOM     13  C   UNL     1      10.668   0.923  23.224  0.00  0.00    +0.169 C 
ATOM     14  C   UNL     1      10.649   0.780  24.711  0.00  0.00    +0.007 C 
ATOM     15  C   UNL     1       9.618   0.013  25.059  0.00  0.00    +0.025 C 
BRANCH  13  16
ATOM     16  C   UNL     1      10.106   2.281  22.760  0.00  0.00    +0.191 C 
BRANCH  16  17
ATOM     17  O   UNL     1       9.585   2.225  21.435  0.00  0.00    -0.392 OA
ATOM     18  H   UNL     1      10.343   2.144  20.831  0.00  0.00    +0.210 HD
ENDBRANCH  16  17
ENDBRANCH  13  16
ENDBRANCH   9  11
TORSDOF 3
ENDMDL
MODEL 8
REMARK VINA RESULT:      -5.4      3.249      5.454
REMARK  Name = 
REMARK  4 active torsions:
REMARK  status: ('A' for Active; 'I' for Inactive)
REMARK    1  A    between atoms: C_1  and  C_2
REMARK    2  A    between atoms: N_4  and  C_10
REMARK    3  A    between atoms: C_13  and  C_15
REMARK    4  A    between atoms: C_15  and  O_16
REMARK                            x       y       z     vdW  Elec       q    Type
REMARK                         _______ _______ _______ _____ _____    ______ ____
ROOT
ATOM      1  C   UNL     1       9.710   1.278  21.791  0.00  0.00    +0.051 C 
ATOM      2  C   UNL     1       9.397   0.254  22.832  0.00  0.00    +0.030 A 
ATOM      3  C   UNL     1       9.974   0.482  24.178  0.00  0.00    +0.257 A 
ATOM      4  O   UNL     1      10.609   1.494  24.455  0.00  0.00    -0.267 OA
ATOM      5  N   UNL     1       9.742  -0.494  25.097  0.00  0.00    -0.275 N 
ATOM      6  H   UNL     1      10.104  -0.343  26.026  0.00  0.00    +0.173 HD
ATOM      7  C   UNL     1       8.913  -1.567  24.935  0.00  0.00    +0.332 A 
ATOM      8  O   UNL     1       8.665  -2.299  25.892  0.00  0.00    -0.246 OA
ATOM      9  N   UNL     1       8.377  -1.733  23.666  0.00  0.00    -0.270 N 
ATOM     10  C   UNL     1       8.633  -0.833  22.646  0.00  0.00    +0.102 A 
ENDROOT
BRANCH   9  11
ATOM     11  C   UNL     1       7.457  -2.843  23.518  0.00  0.00    +0.248 C 
ATOM     12  O   UNL     1       7.787  -3.713  22.414  0.00  0.00    -0.343 OA
ATOM     13  C   UNL     1       6.526  -4.209  21.896  0.00  0.00    +0.169 C 
ATOM     14  C   UNL     1       5.553  -3.132  22.249  0.00  0.00    +0.007 C 
ATOM     15  C   UNL     1       6.090  -2.352  23.185  0.00  0.00    +0.025 C 
BRANCH  13  16
ATOM     16  C   UNL     1       6.172  -5.556  22.555  0.00  0.00    +0.191 C 
BRANCH  16  17
ATOM     17  O   UNL     1       5.457  -6.417  21.673  0.00  0.00    -0.392 OA
ATOM     18  H   UNL     1       5.043  -5.855  20.996  0.00  0.00    +0.210 HD
ENDBRANCH  16  17
ENDBRANCH  13  16
ENDBRANCH   9  11
TORSDOF 3
ENDMDL
MODEL 9
REMARK VINA RESULT:      -5.4      2.053      2.561
REMARK  Name = 
REMARK  4 active torsions:
REMARK  status: ('A' for Active; 'I' for Inactive)
REMARK    1  A    between atoms: C_1  and  C_2
REMARK    2  A    between atoms: N_4  and  C_10
REMARK    3  A    between atoms: C_13  and  C_15
REMARK    4  A    between atoms: C_15  and  O_16
REMARK                            x       y       z     vdW  Elec       q    Type
REMARK                         _______ _______ _______ _____ _____    ______ ____
ROOT
ATOM      1  C   UNL     1       4.564  -3.432  24.365  0.00  0.00    +0.051 C 
ATOM      2  C   UNL     1       6.057  -3.416  24.353  0.00  0.00    +0.030 A 
ATOM      3  C   UNL     1       6.736  -4.654  24.803  0.00  0.00    +0.257 A 
ATOM      4  O   UNL     1       6.116  -5.671  25.097  0.00  0.00    -0.267 OA
ATOM      5  N   UNL     1       8.095  -4.601  24.855  0.00  0.00    -0.275 N 
ATOM      6  H   UNL     1       8.574  -5.444  25.135  0.00  0.00    +0.173 HD
ATOM      7  C   UNL     1       8.876  -3.582  24.393  0.00  0.00    +0.332 A 
ATOM      8  O   UNL     1      10.098  -3.715  24.356  0.00  0.00    -0.246 OA
ATOM      9  N   UNL     1       8.201  -2.449  23.960  0.00  0.00    -0.270 N 
ATOM     10  C   UNL     1       6.818  -2.385  23.956  0.00  0.00    +0.102 A 
ENDROOT
BRANCH   9  11
ATOM     11  C   UNL     1       9.036  -1.394  23.422  0.00  0.00    +0.248 C 
ATOM     12  O   UNL     1       8.391  -0.102  23.419  0.00  0.00    -0.343 OA
ATOM     13  C   UNL     1       8.892   0.600  22.253  0.00  0.00    +0.169 C 
ATOM     14  C   UNL     1       9.249  -0.500  21.307  0.00  0.00    +0.007 C 
ATOM     15  C   UNL     1       9.335  -1.643  21.984  0.00  0.00    +0.025 C 
BRANCH  13  16
ATOM     16  C   UNL     1      10.109   1.463  22.633  0.00  0.00    +0.191 C 
BRANCH  16  17
ATOM     17  O   UNL     1      10.399   2.452  21.648  0.00  0.00    -0.392 OA
ATOM     18  H   UNL     1       9.723   2.372  20.953  0.00  0.00    +0.210 HD
ENDBRANCH  16  17
ENDBRANCH  13  16
ENDBRANCH   9  11
TORSDOF 3
ENDMDL
