MODEL 1
REMARK VINA RESULT:      -7.2      0.000      0.000
REMARK  Name = 
REMARK  4 active torsions:
REMARK  status: ('A' for Active; 'I' for Inactive)
REMARK    1  A    between atoms: C_3  and  N_13
REMARK    2  A    between atoms: C_6  and  O_12
REMARK    3  A    between atoms: C_8  and  C_10
REMARK    4  A    between atoms: C_10  and  O_11
REMARK                            x       y       z     vdW  Elec       q    Type
REMARK                         _______ _______ _______ _____ _____    ______ ____
ROOT
ATOM      1  N   UNL     1       8.695  -2.013  22.817  0.00  0.00    -0.308 N 
ATOM      2  C   UNL     1       8.714  -3.200  23.511  0.00  0.00    +0.170 A 
ATOM      3  N   UNL     1       9.657  -3.637  24.381  0.00  0.00    -0.196 NA
ATOM      4  C   UNL     1       9.356  -4.778  24.941  0.00  0.00    +0.195 A 
ATOM      5  N   UNL     1      10.165  -5.309  25.892  0.00  0.00    -0.329 N 
ATOM      6  H   UNL     1      10.132  -6.294  26.104  0.00  0.00    +0.145 HD
ATOM      7  H   UNL     1      11.070  -4.867  25.980  0.00  0.00    +0.145 HD
ATOM      8  N   UNL     1       8.233  -5.520  24.638  0.00  0.00    -0.293 N 
ATOM      9  H   UNL     1       8.051  -6.390  25.104  0.00  0.00    +0.172 HD
ATOM     10  C   UNL     1       7.256  -5.123  23.743  0.00  0.00    +0.280 A 
ATOM     11  O   UNL     1       6.282  -5.830  23.497  0.00  0.00    -0.265 OA
ATOM     12  C   UNL     1       7.529  -3.825  23.175  0.00  0.00    +0.172 A 
ATOM     13  N   UNL     1       6.742  -3.032  22.390  0.00  0.00    -0.229 NA
ATOM     14  C   UNL     1       7.436  -1.921  22.260  0.00  0.00    +0.202 A 
ENDROOT
BRANCH   1  20
ATOM     15  C   UNL     1      10.183   0.011  25.113  0.00  0.00    +0.010 C 
ATOM     16  C   UNL     1       9.541   0.043  23.934  0.00  0.00    -0.046 C 
ATOM     17  C   UNL     1       8.692   1.211  23.463  0.00  0.00    +0.070 C 
ATOM     18  C   UNL     1       8.758   1.108  21.930  0.00  0.00    +0.126 C 
ATOM     19  C   UNL     1       9.725  -0.034  21.607  0.00  0.00    +0.061 C 
ATOM     20  C   UNL     1       9.718  -0.972  22.821  0.00  0.00    +0.118 C 
BRANCH  18  21
ATOM     21  O   UNL     1       9.253   2.334  21.394  0.00  0.00    -0.391 OA
ATOM     22  H   UNL     1       9.658   2.839  22.120  0.00  0.00    +0.210 HD
ENDBRANCH  18  21
BRANCH  17  23
ATOM     23  C   UNL     1       7.227   1.162  23.926  0.00  0.00    +0.166 C 
BRANCH  23  24
ATOM     24  O   UNL     1       6.325   1.266  22.830  0.00  0.00    -0.394 OA
ATOM     25  H   UNL     1       6.485   0.505  22.247  0.00  0.00    +0.209 HD
ENDBRANCH  23  24
ENDBRANCH  17  23
ENDBRANCH   1  20
TORSDOF 4
ENDMDL
MODEL 2
REMARK VINA RESULT:      -6.7      1.916      2.603
REMARK  Name = 
REMARK  4 active torsions:
REMARK  status: ('A' for Active; 'I' for Inactive)
REMARK    1  A    between atoms: C_3  and  N_13
REMARK    2  A    between atoms: C_6  and  O_12
REMARK    3  A    between atoms: C_8  and  C_10
REMARK    4  A    between atoms: C_10  and  O_11
REMARK                            x       y       z     vdW  Elec       q    Type
REMARK                         _______ _______ _______ _____ _____    ______ ____
ROOT
ATOM      1  N   UNL     1       9.714  -0.904  24.397  0.00  0.00    -0.308 N 
ATOM      2  C   UNL     1       8.926  -1.909  24.908  0.00  0.00    +0.170 A 
ATOM      3  N   UNL     1       8.045  -1.831  25.935  0.00  0.00    -0.196 NA
ATOM      4  C   UNL     1       7.388  -2.942  26.138  0.00  0.00    +0.195 A 
ATOM      5  N   UNL     1       6.415  -2.998  27.082  0.00  0.00    -0.329 N 
ATOM      6  H   UNL     1       6.122  -3.883  27.467  0.00  0.00    +0.145 HD
ATOM      7  H   UNL     1       6.383  -2.209  27.713  0.00  0.00    +0.145 HD
ATOM      8  N   UNL     1       7.603  -4.112  25.440  0.00  0.00    -0.293 N 
ATOM      9  H   UNL     1       7.065  -4.935  25.638  0.00  0.00    +0.172 HD
ATOM     10  C   UNL     1       8.507  -4.242  24.400  0.00  0.00    +0.280 A 
ATOM     11  O   UNL     1       8.672  -5.313  23.822  0.00  0.00    -0.265 OA
ATOM     12  C   UNL     1       9.184  -3.003  24.105  0.00  0.00    +0.172 A 
ATOM     13  N   UNL     1      10.013  -2.687  23.067  0.00  0.00    -0.229 NA
ATOM     14  C   UNL     1      10.248  -1.401  23.226  0.00  0.00    +0.202 A 
ENDROOT
BRANCH   1  20
ATOM     15  C   UNL     1       7.585   1.545  25.421  0.00  0.00    +0.010 C 
ATOM     16  C   UNL     1       8.596   1.312  24.570  0.00  0.00    -0.046 C 
ATOM     17  C   UNL     1       8.763   2.021  23.237  0.00  0.00    +0.070 C 
ATOM     18  C   UNL     1      10.279   1.963  22.986  0.00  0.00    +0.126 C 
ATOM     19  C   UNL     1      10.907   1.329  24.230  0.00  0.00    +0.061 C 
ATOM     20  C   UNL     1       9.817   0.468  24.882  0.00  0.00    +0.118 C 
BRANCH  18  21
ATOM     21  O   UNL     1      10.780   3.286  22.804  0.00  0.00    -0.391 OA
ATOM     22  H   UNL     1      10.298   3.691  22.063  0.00  0.00    +0.210 HD
ENDBRANCH  18  21
BRANCH  17  23
ATOM     23  C   UNL     1       8.015   1.364  22.067  0.00  0.00    +0.166 C 
BRANCH  23  24
ATOM     24  O   UNL     1       8.805   1.338  20.884  0.00  0.00    -0.394 OA
ATOM     25  H   UNL     1       9.479   0.646  20.998  0.00  0.00    +0.209 HD
ENDBRANCH  23  24
ENDBRANCH  17  23
ENDBRANCH   1  20
TORSDOF 4
ENDMDL
MODEL 3
REMARK VINA RESULT:      -6.6      1.506      2.219
REMARK  Name = 
REMARK  4 active torsions:
REMARK  status: ('A' for Active; 'I' for Inactive)
REMARK    1  A    between atoms: C_3  and  N_13
REMARK    2  A    between atoms: C_6  and  O_12
REMARK    3  A    between atoms: C_8  and  C_10
REMARK    4  A    between atoms: C_10  and  O_11
REMARK                            x       y       z     vdW  Elec       q    Type
REMARK                         _______ _______ _______ _____ _____    ______ ____
ROOT
ATOM      1  N   UNL     1       7.627  -1.799  23.815  0.00  0.00    -0.308 N 
ATOM      2  C   UNL     1       8.077  -3.083  24.014  0.00  0.00    +0.170 A 
ATOM      3  N   UNL     1       8.957  -3.518  24.949  0.00  0.00    -0.196 NA
ATOM      4  C   UNL     1       9.129  -4.813  24.935  0.00  0.00    +0.195 A 
ATOM      5  N   UNL     1       9.922  -5.408  25.861  0.00  0.00    -0.329 N 
ATOM      6  H   UNL     1      10.312  -6.323  25.692  0.00  0.00    +0.145 HD
ATOM      7  H   UNL     1      10.493  -4.777  26.406  0.00  0.00    +0.145 HD
ATOM      8  N   UNL     1       8.542  -5.666  24.022  0.00  0.00    -0.293 N 
ATOM      9  H   UNL     1       8.709  -6.655  24.062  0.00  0.00    +0.172 HD
ATOM     10  C   UNL     1       7.656  -5.263  23.040  0.00  0.00    +0.280 A 
ATOM     11  O   UNL     1       7.174  -6.062  22.240  0.00  0.00    -0.265 OA
ATOM     12  C   UNL     1       7.388  -3.846  23.091  0.00  0.00    +0.172 A 
ATOM     13  N   UNL     1       6.466  -3.106  22.409  0.00  0.00    -0.229 NA
ATOM     14  C   UNL     1       6.579  -1.900  22.924  0.00  0.00    +0.202 A 
ENDROOT
BRANCH   1  20
ATOM     15  C   UNL     1       7.020   1.545  23.641  0.00  0.00    +0.010 C 
ATOM     16  C   UNL     1       8.022   0.653  23.682  0.00  0.00    -0.046 C 
ATOM     17  C   UNL     1       9.377   0.870  23.028  0.00  0.00    +0.070 C 
ATOM     18  C   UNL     1      10.326   0.002  23.870  0.00  0.00    +0.126 C 
ATOM     19  C   UNL     1       9.494  -0.572  25.019  0.00  0.00    +0.061 C 
ATOM     20  C   UNL     1       8.037  -0.599  24.537  0.00  0.00    +0.118 C 
BRANCH  18  21
ATOM     21  O   UNL     1      11.379   0.814  24.386  0.00  0.00    -0.391 OA
ATOM     22  H   UNL     1      11.749   0.367  25.166  0.00  0.00    +0.210 HD
ENDBRANCH  18  21
BRANCH  17  23
ATOM     23  C   UNL     1       9.448   0.443  21.554  0.00  0.00    +0.166 C 
BRANCH  23  24
ATOM     24  O   UNL     1       9.911  -0.895  21.416  0.00  0.00    -0.394 OA
ATOM     25  H   UNL     1      10.370  -0.959  20.560  0.00  0.00    +0.209 HD
ENDBRANCH  23  24
ENDBRANCH  17  23
ENDBRANCH   1  20
TORSDOF 4
ENDMDL
MODEL 4
REMARK VINA RESULT:      -6.4      2.449      3.633
REMARK  Name = 
REMARK  4 active torsions:
REMARK  status: ('A' for Active; 'I' for Inactive)
REMARK    1  A    between atoms: C_3  and  N_13
REMARK    2  A    between atoms: C_6  and  O_12
REMARK    3  A    between atoms: C_8  and  C_10
REMARK    4  A    between atoms: C_10  and  O_11
REMARK                            x       y       z     vdW  Elec       q    Type
REMARK                         _______ _______ _______ _____ _____    ______ ____
ROOT
ATOM      1  N   UNL     1       7.992  -3.454  24.762  0.00  0.00    -0.308 N 
ATOM      2  C   UNL     1       7.126  -4.431  25.191  0.00  0.00    +0.170 A 
ATOM      3  N   UNL     1       6.113  -5.005  24.497  0.00  0.00    -0.196 NA
ATOM      4  C   UNL     1       5.512  -5.962  25.152  0.00  0.00    +0.195 A 
ATOM      5  N   UNL     1       4.527  -6.683  24.561  0.00  0.00    -0.329 N 
ATOM      6  H   UNL     1       3.857  -7.191  25.117  0.00  0.00    +0.145 HD
ATOM      7  H   UNL     1       4.183  -6.305  23.689  0.00  0.00    +0.145 HD
ATOM      8  N   UNL     1       5.812  -6.322  26.450  0.00  0.00    -0.293 N 
ATOM      9  H   UNL     1       5.318  -7.070  26.903  0.00  0.00    +0.172 HD
ATOM     10  C   UNL     1       6.822  -5.750  27.202  0.00  0.00    +0.280 A 
ATOM     11  O   UNL     1       7.037  -6.097  28.361  0.00  0.00    -0.265 OA
ATOM     12  C   UNL     1       7.552  -4.747  26.467  0.00  0.00    +0.172 A 
ATOM     13  N   UNL     1       8.698  -4.082  26.798  0.00  0.00    -0.229 NA
ATOM     14  C   UNL     1       8.979  -3.376  25.723  0.00  0.00    +0.202 A 
ENDROOT
BRANCH   1  20
ATOM     15  C   UNL     1      10.222  -1.773  22.817  0.00  0.00    +0.010 C 
ATOM     16  C   UNL     1       9.006  -1.656  23.374  0.00  0.00    -0.046 C 
ATOM     17  C   UNL     1       8.397  -0.333  23.810  0.00  0.00    +0.070 C 
ATOM     18  C   UNL     1       6.883  -0.588  23.719  0.00  0.00    +0.126 C 
ATOM     19  C   UNL     1       6.707  -1.991  23.135  0.00  0.00    +0.061 C 
ATOM     20  C   UNL     1       7.984  -2.772  23.472  0.00  0.00    +0.118 C 
BRANCH  18  21
ATOM     21  O   UNL     1       6.290   0.381  22.856  0.00  0.00    -0.391 OA
ATOM     22  H   UNL     1       6.689   0.282  21.974  0.00  0.00    +0.210 HD
ENDBRANCH  18  21
BRANCH  17  23
ATOM     23  C   UNL     1       8.769   0.100  25.236  0.00  0.00    +0.166 C 
BRANCH  23  24
ATOM     24  O   UNL     1       9.986   0.837  25.261  0.00  0.00    -0.394 OA
ATOM     25  H   UNL     1       9.864   1.580  25.877  0.00  0.00    +0.209 HD
ENDBRANCH  23  24
ENDBRANCH  17  23
ENDBRANCH   1  20
TORSDOF 4
ENDMDL
MODEL 5
REMARK VINA RESULT:      -6.3      2.732      5.908
REMARK  Name = 
REMARK  4 active torsions:
REMARK  status: ('A' for Active; 'I' for Inactive)
REMARK    1  A    between atoms: C_3  and  N_13
REMARK    2  A    between atoms: C_6  and  O_12
REMARK    3  A    between atoms: C_8  and  C_10
REMARK    4  A    between atoms: C_10  and  O_11
REMARK                            x       y       z     vdW  Elec       q    Type
REMARK                         _______ _______ _______ _____ _____    ______ ____
ROOT
ATOM      1  N   UNL     1       7.597  -2.209  24.513  0.00  0.00    -0.308 N 
ATOM      2  C   UNL     1       8.252  -1.022  24.745  0.00  0.00    +0.170 A 
ATOM      3  N   UNL     1       9.537  -0.713  24.446  0.00  0.00    -0.196 NA
ATOM      4  C   UNL     1       9.849   0.525  24.723  0.00  0.00    +0.195 A 
ATOM      5  N   UNL     1      11.078   1.008  24.411  0.00  0.00    -0.329 N 
ATOM      6  H   UNL     1      11.444   1.824  24.876  0.00  0.00    +0.145 HD
ATOM      7  H   UNL     1      11.758   0.309  24.143  0.00  0.00    +0.145 HD
ATOM      8  N   UNL     1       8.996   1.426  25.327  0.00  0.00    -0.293 N 
ATOM      9  H   UNL     1       9.290   2.367  25.512  0.00  0.00    +0.172 HD
ATOM     10  C   UNL     1       7.685   1.146  25.668  0.00  0.00    +0.280 A 
ATOM     11  O   UNL     1       6.971   1.981  26.220  0.00  0.00    -0.265 OA
ATOM     12  C   UNL     1       7.295  -0.191  25.295  0.00  0.00    +0.172 A 
ATOM     13  N   UNL     1       6.063  -0.780  25.315  0.00  0.00    -0.229 NA
ATOM     14  C   UNL     1       6.264  -1.959  24.765  0.00  0.00    +0.202 A 
ENDROOT
BRANCH   1  20
ATOM     15  C   UNL     1       6.466  -5.293  23.625  0.00  0.00    +0.010 C 
ATOM     16  C   UNL     1       7.417  -4.685  24.351  0.00  0.00    -0.046 C 
ATOM     17  C   UNL     1       8.033  -5.278  25.607  0.00  0.00    +0.070 C 
ATOM     18  C   UNL     1       9.426  -4.629  25.664  0.00  0.00    +0.126 C 
ATOM     19  C   UNL     1       9.575  -3.793  24.390  0.00  0.00    +0.061 C 
ATOM     20  C   UNL     1       8.156  -3.427  23.937  0.00  0.00    +0.118 C 
BRANCH  18  21
ATOM     21  O   UNL     1      10.423  -5.649  25.699  0.00  0.00    -0.391 OA
ATOM     22  H   UNL     1      10.112  -6.353  26.295  0.00  0.00    +0.210 HD
ENDBRANCH  18  21
BRANCH  17  23
ATOM     23  C   UNL     1       7.263  -4.974  26.900  0.00  0.00    +0.166 C 
BRANCH  23  24
ATOM     24  O   UNL     1       7.465  -5.983  27.883  0.00  0.00    -0.394 OA
ATOM     25  H   UNL     1       7.350  -6.844  27.445  0.00  0.00    +0.209 HD
ENDBRANCH  23  24
ENDBRANCH  17  23
ENDBRANCH   1  20
TORSDOF 4
ENDMDL
MODEL 6
REMARK VINA RESULT:      -6.3      2.418      5.972
REMARK  Name = 
REMARK  4 active torsions:
REMARK  status: ('A' for Active; 'I' for Inactive)
REMARK    1  A    between atoms: C_3  and  N_13
REMARK    2  A    between atoms: C_6  and  O_12
REMARK    3  A    between atoms: C_8  and  C_10
REMARK    4  A    between atoms: C_10  and  O_11
REMARK                            x       y       z     vdW  Elec       q    Type
REMARK                         _______ _______ _______ _____ _____    ______ ____
ROOT
ATOM      1  N   UNL     1       7.986  -1.902  24.305  0.00  0.00    -0.308 N 
ATOM      2  C   UNL     1       8.603  -0.896  23.598  0.00  0.00    +0.170 A 
ATOM      3  N   UNL     1       8.276  -0.426  22.369  0.00  0.00    -0.196 NA
ATOM      4  C   UNL     1       9.005   0.591  21.993  0.00  0.00    +0.195 A 
ATOM      5  N   UNL     1       8.749   1.220  20.819  0.00  0.00    -0.329 N 
ATOM      6  H   UNL     1       9.458   1.778  20.369  0.00  0.00    +0.145 HD
ATOM      7  H   UNL     1       8.109   0.736  20.204  0.00  0.00    +0.145 HD
ATOM      8  N   UNL     1      10.056   1.105  22.723  0.00  0.00    -0.293 N 
ATOM      9  H   UNL     1      10.581   1.892  22.385  0.00  0.00    +0.172 HD
ATOM     10  C   UNL     1      10.438   0.643  23.970  0.00  0.00    +0.280 A 
ATOM     11  O   UNL     1      11.394   1.127  24.571  0.00  0.00    -0.265 OA
ATOM     12  C   UNL     1       9.592  -0.427  24.440  0.00  0.00    +0.172 A 
ATOM     13  N   UNL     1       9.542  -1.027  25.664  0.00  0.00    -0.229 NA
ATOM     14  C   UNL     1       8.518  -1.850  25.576  0.00  0.00    +0.202 A 
ENDROOT
BRANCH   1  20
ATOM     15  C   UNL     1       5.504  -3.713  25.767  0.00  0.00    +0.010 C 
ATOM     16  C   UNL     1       6.491  -3.811  24.862  0.00  0.00    -0.046 C 
ATOM     17  C   UNL     1       7.249  -5.095  24.569  0.00  0.00    +0.070 C 
ATOM     18  C   UNL     1       7.719  -4.910  23.117  0.00  0.00    +0.126 C 
ATOM     19  C   UNL     1       7.118  -3.592  22.623  0.00  0.00    +0.061 C 
ATOM     20  C   UNL     1       6.867  -2.730  23.867  0.00  0.00    +0.118 C 
BRANCH  18  21
ATOM     21  O   UNL     1       7.243  -5.995  22.322  0.00  0.00    -0.391 OA
ATOM     22  H   UNL     1       6.792  -5.623  21.544  0.00  0.00    +0.210 HD
ENDBRANCH  18  21
BRANCH  17  23
ATOM     23  C   UNL     1       8.458  -5.344  25.482  0.00  0.00    +0.166 C 
BRANCH  23  24
ATOM     24  O   UNL     1       9.627  -5.659  24.734  0.00  0.00    -0.394 OA
ATOM     25  H   UNL     1      10.355  -5.782  25.368  0.00  0.00    +0.209 HD
ENDBRANCH  23  24
ENDBRANCH  17  23
ENDBRANCH   1  20
TORSDOF 4
ENDMDL
MODEL 7
REMARK VINA RESULT:      -6.3      2.850      6.317
REMARK  Name = 
REMARK  4 active torsions:
REMARK  status: ('A' for Active; 'I' for Inactive)
REMARK    1  A    between atoms: C_3  and  N_13
REMARK    2  A    between atoms: C_6  and  O_12
REMARK    3  A    between atoms: C_8  and  C_10
REMARK    4  A    between atoms: C_10  and  O_11
REMARK                            x       y       z     vdW  Elec       q    Type
REMARK                         _______ _______ _______ _____ _____    ______ ____
ROOT
ATOM      1  N   UNL     1       8.445  -0.253  24.180  0.00  0.00    -0.308 N 
ATOM      2  C   UNL     1       8.456   0.974  23.560  0.00  0.00    +0.170 A 
ATOM      3  N   UNL     1       7.440   1.575  22.894  0.00  0.00    -0.196 NA
ATOM      4  C   UNL     1       7.734   2.777  22.476  0.00  0.00    +0.195 A 
ATOM      5  N   UNL     1       6.795   3.537  21.859  0.00  0.00    -0.329 N 
ATOM      6  H   UNL     1       7.064   4.308  21.268  0.00  0.00    +0.145 HD
ATOM      7  H   UNL     1       5.955   3.044  21.588  0.00  0.00    +0.145 HD
ATOM      8  N   UNL     1       8.972   3.369  22.621  0.00  0.00    -0.293 N 
ATOM      9  H   UNL     1       9.140   4.299  22.283  0.00  0.00    +0.172 HD
ATOM     10  C   UNL     1      10.042   2.784  23.275  0.00  0.00    +0.280 A 
ATOM     11  O   UNL     1      11.130   3.349  23.362  0.00  0.00    -0.265 OA
ATOM     12  C   UNL     1       9.712   1.489  23.815  0.00  0.00    +0.172 A 
ATOM     13  N   UNL     1      10.431   0.681  24.648  0.00  0.00    -0.229 NA
ATOM     14  C   UNL     1       9.613  -0.316  24.912  0.00  0.00    +0.202 A 
ENDROOT
BRANCH   1  20
ATOM     15  C   UNL     1       7.207  -2.540  26.376  0.00  0.00    +0.010 C 
ATOM     16  C   UNL     1       7.623  -2.411  25.106  0.00  0.00    -0.046 C 
ATOM     17  C   UNL     1       8.263  -3.533  24.306  0.00  0.00    +0.070 C 
ATOM     18  C   UNL     1       7.935  -3.169  22.849  0.00  0.00    +0.126 C 
ATOM     19  C   UNL     1       7.038  -1.930  22.897  0.00  0.00    +0.061 C 
ATOM     20  C   UNL     1       7.347  -1.213  24.218  0.00  0.00    +0.118 C 
BRANCH  18  21
ATOM     21  O   UNL     1       7.242  -4.253  22.234  0.00  0.00    -0.391 OA
ATOM     22  H   UNL     1       7.807  -4.609  21.526  0.00  0.00    +0.210 HD
ENDBRANCH  18  21
BRANCH  17  23
ATOM     23  C   UNL     1       9.785  -3.655  24.484  0.00  0.00    +0.166 C 
BRANCH  23  24
ATOM     24  O   UNL     1      10.167  -4.973  24.860  0.00  0.00    -0.394 OA
ATOM     25  H   UNL     1      10.658  -5.358  24.114  0.00  0.00    +0.209 HD
ENDBRANCH  23  24
ENDBRANCH  17  23
ENDBRANCH   1  20
TORSDOF 4
ENDMDL
MODEL 8
REMARK VINA RESULT:      -6.2      2.897      6.386
REMARK  Name = 
REMARK  4 active torsions:
REMARK  status: ('A' for Active; 'I' for Inactive)
REMARK    1  A    between atoms: C_3  and  N_13
REMARK    2  A    between atoms: C_6  and  O_12
REMARK    3  A    between atoms: C_8  and  C_10
REMARK    4  A    between atoms: C_10  and  O_11
REMARK                            x       y       z     vdW  Elec       q    Type
REMARK                         _______ _______ _______ _____ _____    ______ ____
ROOT
ATOM      1  N   UNL     1       6.749  -4.172  24.237  0.00  0.00    -0.308 N 
ATOM      2  C   UNL     1       7.211  -2.979  23.733  0.00  0.00    +0.170 A 
ATOM      3  N   UNL     1       6.497  -1.857  23.471  0.00  0.00    -0.196 NA
ATOM      4  C   UNL     1       7.234  -0.857  23.068  0.00  0.00    +0.195 A 
ATOM      5  N   UNL     1       6.674   0.357  22.838  0.00  0.00    -0.329 N 
ATOM      6  H   UNL     1       7.135   1.033  22.248  0.00  0.00    +0.145 HD
ATOM      7  H   UNL     1       5.664   0.366  22.816  0.00  0.00    +0.145 HD
ATOM      8  N   UNL     1       8.594  -0.931  22.851  0.00  0.00    -0.293 N 
ATOM      9  H   UNL     1       9.111  -0.127  22.544  0.00  0.00    +0.172 HD
ATOM     10  C   UNL     1       9.359  -2.061  23.085  0.00  0.00    +0.280 A 
ATOM     11  O   UNL     1      10.567  -2.079  22.860  0.00  0.00    -0.265 OA
ATOM     12  C   UNL     1       8.576  -3.153  23.610  0.00  0.00    +0.172 A 
ATOM     13  N   UNL     1       8.981  -4.356  24.110  0.00  0.00    -0.229 NA
ATOM     14  C   UNL     1       7.871  -4.910  24.551  0.00  0.00    +0.202 A 
ENDROOT
BRANCH   1  20
ATOM     15  C   UNL     1       4.241  -2.909  26.160  0.00  0.00    +0.010 C 
ATOM     16  C   UNL     1       4.926  -4.040  25.924  0.00  0.00    -0.046 C 
ATOM     17  C   UNL     1       5.186  -5.106  26.975  0.00  0.00    +0.070 C 
ATOM     18  C   UNL     1       5.351  -6.392  26.147  0.00  0.00    +0.126 C 
ATOM     19  C   UNL     1       5.067  -6.018  24.691  0.00  0.00    +0.061 C 
ATOM     20  C   UNL     1       5.367  -4.519  24.555  0.00  0.00    +0.118 C 
BRANCH  18  21
ATOM     21  O   UNL     1       4.410  -7.367  26.595  0.00  0.00    -0.391 OA
ATOM     22  H   UNL     1       4.553  -8.181  26.081  0.00  0.00    +0.210 HD
ENDBRANCH  18  21
BRANCH  17  23
ATOM     23  C   UNL     1       6.443  -4.869  27.826  0.00  0.00    +0.166 C 
BRANCH  23  24
ATOM     24  O   UNL     1       7.283  -6.017  27.855  0.00  0.00    -0.394 OA
ATOM     25  H   UNL     1       7.817  -5.967  28.667  0.00  0.00    +0.209 HD
ENDBRANCH  23  24
ENDBRANCH  17  23
ENDBRANCH   1  20
TORSDOF 4
ENDMDL
MODEL 9
REMARK VINA RESULT:      -6.1      2.303      5.732
REMARK  Name = 
REMARK  4 active torsions:
REMARK  status: ('A' for Active; 'I' for Inactive)
REMARK    1  A    between atoms: C_3  and  N_13
REMARK    2  A    between atoms: C_6  and  O_12
REMARK    3  A    between atoms: C_8  and  C_10
REMARK    4  A    between atoms: C_10  and  O_11
REMARK                            x       y       z     vdW  Elec       q    Type
REMARK                         _______ _______ _______ _____ _____    ______ ____
ROOT
ATOM      1  N   UNL     1       9.161  -1.920  24.453  0.00  0.00    -0.308 N 
ATOM      2  C   UNL     1       9.023  -0.554  24.385  0.00  0.00    +0.170 A 
ATOM      3  N   UNL     1       8.429   0.266  25.287  0.00  0.00    -0.196 NA
ATOM      4  C   UNL     1       8.523   1.531  24.977  0.00  0.00    +0.195 A 
ATOM      5  N   UNL     1       8.044   2.480  25.820  0.00  0.00    -0.329 N 
ATOM      6  H   UNL     1       7.824   3.404  25.482  0.00  0.00    +0.145 HD
ATOM      7  H   UNL     1       7.462   2.133  26.570  0.00  0.00    +0.145 HD
ATOM      8  N   UNL     1       9.100   2.007  23.818  0.00  0.00    -0.293 N 
ATOM      9  H   UNL     1       9.147   2.993  23.634  0.00  0.00    +0.172 HD
ATOM     10  C   UNL     1       9.699   1.206  22.861  0.00  0.00    +0.280 A 
ATOM     11  O   UNL     1      10.184   1.680  21.837  0.00  0.00    -0.265 OA
ATOM     12  C   UNL     1       9.678  -0.190  23.225  0.00  0.00    +0.172 A 
ATOM     13  N   UNL     1      10.295  -1.255  22.636  0.00  0.00    -0.229 NA
ATOM     14  C   UNL     1      10.032  -2.263  23.441  0.00  0.00    +0.202 A 
ENDROOT
BRANCH   1  20
ATOM     15  C   UNL     1       9.707  -5.113  25.496  0.00  0.00    +0.010 C 
ATOM     16  C   UNL     1       8.726  -4.276  25.123  0.00  0.00    -0.046 C 
ATOM     17  C   UNL     1       7.444  -4.724  24.441  0.00  0.00    +0.070 C 
ATOM     18  C   UNL     1       6.431  -3.634  24.830  0.00  0.00    +0.126 C 
ATOM     19  C   UNL     1       7.150  -2.689  25.796  0.00  0.00    +0.061 C 
ATOM     20  C   UNL     1       8.649  -2.808  25.493  0.00  0.00    +0.118 C 
BRANCH  18  21
ATOM     21  O   UNL     1       5.311  -4.237  25.476  0.00  0.00    -0.391 OA
ATOM     22  H   UNL     1       5.207  -3.820  26.349  0.00  0.00    +0.210 HD
ENDBRANCH  18  21
BRANCH  17  23
ATOM     23  C   UNL     1       7.538  -4.826  22.911  0.00  0.00    +0.166 C 
BRANCH  23  24
ATOM     24  O   UNL     1       7.006  -3.672  22.272  0.00  0.00    -0.394 OA
ATOM     25  H   UNL     1       6.067  -3.608  22.519  0.00  0.00    +0.209 HD
ENDBRANCH  23  24
ENDBRANCH  17  23
ENDBRANCH   1  20
TORSDOF 4
ENDMDL
