MODEL 1
REMARK VINA RESULT:      -6.5      0.000      0.000
REMARK  Name = 
REMARK  5 active torsions:
REMARK  status: ('A' for Active; 'I' for Inactive)
REMARK    1  A    between atoms: C5M_1  and  C5_2
REMARK    2  A    between atoms: N1_4  and  C1*_10
REMARK    3  A    between atoms: C3*_12  and  O3*_17
REMARK    4  A    between atoms: C4*_13  and  C5*_15
REMARK    5  A    between atoms: C5*_15  and  O5*_16
REMARK                            x       y       z     vdW  Elec       q    Type
REMARK                         _______ _______ _______ _____ _____    ______ ____
ROOT
ATOM      1  C5M   T A   1       6.913  -2.909  26.837  0.00  0.00    +0.019 C 
ATOM      2  C5    T A   1       6.627  -4.269  26.208  0.00  0.00    +0.090 C 
ATOM      3  C4    T A   1       7.408  -5.352  26.915  0.00  0.00    +0.225 C 
ATOM      4  O4    T A   1       7.064  -5.800  28.005  0.00  0.00    -0.275 OA
ATOM      5  N3    T A   1       8.586  -5.741  26.334  0.00  0.00    -0.240 N 
ATOM      6  H3    T A   1       9.178  -6.320  26.911  0.00  0.00    +0.159 HD
ATOM      7  C2    T A   1       9.229  -5.076  25.325  0.00  0.00    +0.310 C 
ATOM      8  O2    T A   1      10.448  -5.168  25.204  0.00  0.00    -0.252 OA
ATOM      9  N1    T A   1       8.424  -4.284  24.535  0.00  0.00    -0.259 N 
ATOM     10  C6    T A   1       6.983  -4.310  24.730  0.00  0.00    +0.124 C 
ENDROOT
BRANCH   9  11
ATOM     11  C1*   T A   1       9.037  -3.277  23.699  0.00  0.00    +0.212 C 
ATOM     12  O4*   T A   1       9.385  -2.176  24.553  0.00  0.00    -0.350 OA
ATOM     13  C4*   T A   1       9.157  -0.950  23.822  0.00  0.00    +0.174 C 
ATOM     14  C3*   T A   1       8.830  -1.360  22.379  0.00  0.00    +0.150 C 
ATOM     15  C2*   T A   1       8.176  -2.709  22.579  0.00  0.00    +0.086 C 
BRANCH  14  16
ATOM     16  O3*   T A   1       9.962  -1.539  21.530  0.00  0.00    -0.389 OA
ATOM     17  H3*   T A   1      10.741  -1.101  21.937  0.00  0.00    +0.210 HD
ENDBRANCH  14  16
BRANCH  13  18
ATOM     18  C5*   T A   1      10.384  -0.065  24.005  0.00  0.00    +0.190 C 
BRANCH  18  19
ATOM     19  O5*   T A   1      10.355   0.538  25.302  0.00  0.00    -0.392 OA
ATOM     20  H5*   T A   1       9.579   0.147  25.754  0.00  0.00    +0.210 HD
ENDBRANCH  18  19
ENDBRANCH  13  18
ENDBRANCH   9  11
TORSDOF 4
ENDMDL
MODEL 2
REMARK VINA RESULT:      -6.0      2.709      3.335
REMARK  Name = 
REMARK  5 active torsions:
REMARK  status: ('A' for Active; 'I' for Inactive)
REMARK    1  A    between atoms: C5M_1  and  C5_2
REMARK    2  A    between atoms: N1_4  and  C1*_10
REMARK    3  A    between atoms: C3*_12  and  O3*_17
REMARK    4  A    between atoms: C4*_13  and  C5*_15
REMARK    5  A    between atoms: C5*_15  and  O5*_16
REMARK                            x       y       z     vdW  Elec       q    Type
REMARK                         _______ _______ _______ _____ _____    ______ ____
ROOT
ATOM      1  C5M   T A   1       8.733  -1.072  26.808  0.00  0.00    +0.019 C 
ATOM      2  C5    T A   1       7.931  -2.010  25.911  0.00  0.00    +0.090 C 
ATOM      3  C4    T A   1       8.691  -3.297  25.682  0.00  0.00    +0.225 C 
ATOM      4  O4    T A   1       8.748  -4.181  26.531  0.00  0.00    -0.275 OA
ATOM      5  N3    T A   1       9.408  -3.390  24.518  0.00  0.00    -0.240 N 
ATOM      6  H3    T A   1      10.050  -4.167  24.472  0.00  0.00    +0.159 HD
ATOM      7  C2    T A   1       9.694  -2.348  23.678  0.00  0.00    +0.310 C 
ATOM      8  O2    T A   1      10.702  -2.379  22.977  0.00  0.00    -0.252 OA
ATOM      9  N1    T A   1       8.818  -1.285  23.740  0.00  0.00    -0.259 N 
ATOM     10  C6    T A   1       7.621  -1.391  24.557  0.00  0.00    +0.124 C 
ENDROOT
BRANCH   9  11
ATOM     11  C1*   T A   1       9.223  -0.012  23.185  0.00  0.00    +0.212 C 
ATOM     12  O4*   T A   1       8.460   1.001  23.858  0.00  0.00    -0.350 OA
ATOM     13  C4*   T A   1       8.128   2.028  22.897  0.00  0.00    +0.174 C 
ATOM     14  C3*   T A   1       8.905   1.689  21.616  0.00  0.00    +0.150 C 
ATOM     15  C2*   T A   1       8.990   0.181  21.693  0.00  0.00    +0.086 C 
BRANCH  14  16
ATOM     16  O3*   T A   1      10.233   2.205  21.560  0.00  0.00    -0.389 OA
ATOM     17  H3*   T A   1      10.326   2.767  20.761  0.00  0.00    +0.210 HD
ENDBRANCH  14  16
BRANCH  13  18
ATOM     18  C5*   T A   1       8.441   3.378  23.532  0.00  0.00    +0.190 C 
BRANCH  18  19
ATOM     19  O5*   T A   1       8.430   4.397  22.527  0.00  0.00    -0.392 OA
ATOM     20  H5*   T A   1       7.574   4.296  22.062  0.00  0.00    +0.210 HD
ENDBRANCH  18  19
ENDBRANCH  13  18
ENDBRANCH   9  11
TORSDOF 4
ENDMDL
MODEL 3
REMARK VINA RESULT:      -5.9      2.421      5.662
REMARK  Name = 
REMARK  5 active torsions:
REMARK  status: ('A' for Active; 'I' for Inactive)
REMARK    1  A    between atoms: C5M_1  and  C5_2
REMARK    2  A    between atoms: N1_4  and  C1*_10
REMARK    3  A    between atoms: C3*_12  and  O3*_17
REMARK    4  A    between atoms: C4*_13  and  C5*_15
REMARK    5  A    between atoms: C5*_15  and  O5*_16
REMARK                            x       y       z     vdW  Elec       q    Type
REMARK                         _______ _______ _______ _____ _____    ______ ____
ROOT
ATOM      1  C5M   T A   1      10.553   0.242  24.890  0.00  0.00    +0.019 C 
ATOM      2  C5    T A   1      10.637   0.043  23.380  0.00  0.00    +0.090 C 
ATOM      3  C4    T A   1       9.807   1.084  22.665  0.00  0.00    +0.225 C 
ATOM      4  O4    T A   1      10.192   2.240  22.519  0.00  0.00    -0.275 OA
ATOM      5  N3    T A   1       8.548   0.707  22.276  0.00  0.00    -0.240 N 
ATOM      6  H3    T A   1       7.949   1.461  21.974  0.00  0.00    +0.159 HD
ATOM      7  C2    T A   1       7.897  -0.424  22.688  0.00  0.00    +0.310 C 
ATOM      8  O2    T A   1       6.669  -0.452  22.723  0.00  0.00    -0.252 OA
ATOM      9  N1    T A   1       8.713  -1.456  23.101  0.00  0.00    -0.259 N 
ATOM     10  C6    T A   1      10.154  -1.332  22.949  0.00  0.00    +0.124 C 
ENDROOT
BRANCH   9  11
ATOM     11  C1*   T A   1       8.143  -2.528  23.885  0.00  0.00    +0.212 C 
ATOM     12  O4*   T A   1       9.120  -2.892  24.873  0.00  0.00    -0.350 OA
ATOM     13  C4*   T A   1       9.068  -4.325  25.050  0.00  0.00    +0.174 C 
ATOM     14  C3*   T A   1       7.851  -4.817  24.251  0.00  0.00    +0.150 C 
ATOM     15  C2*   T A   1       7.783  -3.801  23.133  0.00  0.00    +0.086 C 
BRANCH  14  16
ATOM     16  O3*   T A   1       6.612  -4.784  24.955  0.00  0.00    -0.389 OA
ATOM     17  H3*   T A   1       6.782  -4.549  25.894  0.00  0.00    +0.210 HD
ENDBRANCH  14  16
BRANCH  13  18
ATOM     18  C5*   T A   1       9.043  -4.608  26.548  0.00  0.00    +0.190 C 
BRANCH  18  19
ATOM     19  O5*   T A   1       8.365  -5.844  26.794  0.00  0.00    -0.392 OA
ATOM     20  H5*   T A   1       8.243  -6.254  25.913  0.00  0.00    +0.210 HD
ENDBRANCH  18  19
ENDBRANCH  13  18
ENDBRANCH   9  11
TORSDOF 4
ENDMDL
MODEL 4
REMARK VINA RESULT:      -5.9      1.904      3.087
REMARK  Name = 
REMARK  5 active torsions:
REMARK  status: ('A' for Active; 'I' for Inactive)
REMARK    1  A    between atoms: C5M_1  and  C5_2
REMARK    2  A    between atoms: N1_4  and  C1*_10
REMARK    3  A    between atoms: C3*_12  and  O3*_17
REMARK    4  A    between atoms: C4*_13  and  C5*_15
REMARK    5  A    between atoms: C5*_15  and  O5*_16
REMARK                            x       y       z     vdW  Elec       q    Type
REMARK                         _______ _______ _______ _____ _____    ______ ____
ROOT
ATOM      1  C5M   T A   1       7.475  -4.172  23.369  0.00  0.00    +0.019 C 
ATOM      2  C5    T A   1       8.567  -4.489  24.386  0.00  0.00    +0.090 C 
ATOM      3  C4    T A   1       7.960  -4.773  25.741  0.00  0.00    +0.225 C 
ATOM      4  O4    T A   1       7.424  -5.845  26.005  0.00  0.00    -0.275 OA
ATOM      5  N3    T A   1       7.938  -3.735  26.635  0.00  0.00    -0.240 N 
ATOM      6  H3    T A   1       7.367  -3.887  27.454  0.00  0.00    +0.159 HD
ATOM      7  C2    T A   1       8.185  -2.423  26.333  0.00  0.00    +0.310 C 
ATOM      8  O2    T A   1       7.680  -1.529  27.007  0.00  0.00    -0.252 OA
ATOM      9  N1    T A   1       8.965  -2.213  25.216  0.00  0.00    -0.259 N 
ATOM     10  C6    T A   1       9.564  -3.351  24.538  0.00  0.00    +0.124 C 
ENDROOT
BRANCH   9  11
ATOM     11  C1*   T A   1       8.978  -0.901  24.608  0.00  0.00    +0.212 C 
ATOM     12  O4*   T A   1       9.158  -1.094  23.196  0.00  0.00    -0.350 OA
ATOM     13  C4*   T A   1      10.003  -0.031  22.702  0.00  0.00    +0.174 C 
ATOM     14  C3*   T A   1      10.180   0.958  23.863  0.00  0.00    +0.150 C 
ATOM     15  C2*   T A   1      10.076   0.047  25.066  0.00  0.00    +0.086 C 
BRANCH  14  16
ATOM     16  O3*   T A   1       9.163   1.951  23.972  0.00  0.00    -0.389 OA
ATOM     17  H3*   T A   1       9.583   2.826  24.120  0.00  0.00    +0.210 HD
ENDBRANCH  14  16
BRANCH  13  18
ATOM     18  C5*   T A   1       9.356   0.528  21.439  0.00  0.00    +0.190 C 
BRANCH  18  19
ATOM     19  O5*   T A   1       9.693   1.911  21.297  0.00  0.00    -0.392 OA
ATOM     20  H5*   T A   1       8.864   2.400  21.475  0.00  0.00    +0.210 HD
ENDBRANCH  18  19
ENDBRANCH  13  18
ENDBRANCH   9  11
TORSDOF 4
ENDMDL
MODEL 5
REMARK VINA RESULT:      -5.8      1.953      5.381
REMARK  Name = 
REMARK  5 active torsions:
REMARK  status: ('A' for Active; 'I' for Inactive)
REMARK    1  A    between atoms: C5M_1  and  C5_2
REMARK    2  A    between atoms: N1_4  and  C1*_10
REMARK    3  A    between atoms: C3*_12  and  O3*_17
REMARK    4  A    between atoms: C4*_13  and  C5*_15
REMARK    5  A    between atoms: C5*_15  and  O5*_16
REMARK                            x       y       z     vdW  Elec       q    Type
REMARK                         _______ _______ _______ _____ _____    ______ ____
ROOT
ATOM      1  C5M   T A   1       9.335  -0.143  24.656  0.00  0.00    +0.019 C 
ATOM      2  C5    T A   1      10.108  -0.739  23.483  0.00  0.00    +0.090 C 
ATOM      3  C4    T A   1       9.390  -0.459  22.182  0.00  0.00    +0.225 C 
ATOM      4  O4    T A   1       9.435   0.639  21.635  0.00  0.00    -0.275 OA
ATOM      5  N3    T A   1       8.593  -1.459  21.690  0.00  0.00    -0.240 N 
ATOM      6  H3    T A   1       7.984  -1.188  20.933  0.00  0.00    +0.159 HD
ATOM      7  C2    T A   1       8.200  -2.572  22.383  0.00  0.00    +0.310 C 
ATOM      8  O2    T A   1       7.145  -3.134  22.101  0.00  0.00    -0.252 OA
ATOM      9  N1    T A   1       9.031  -2.945  23.419  0.00  0.00    -0.259 N 
ATOM     10  C6    T A   1      10.289  -2.243  23.613  0.00  0.00    +0.124 C 
ENDROOT
BRANCH   9  11
ATOM     11  C1*   T A   1       8.532  -3.858  24.422  0.00  0.00    +0.212 C 
ATOM     12  O4*   T A   1       7.592  -3.126  25.225  0.00  0.00    -0.350 OA
ATOM     13  C4*   T A   1       7.733  -3.566  26.594  0.00  0.00    +0.174 C 
ATOM     14  C3*   T A   1       8.688  -4.769  26.568  0.00  0.00    +0.150 C 
ATOM     15  C2*   T A   1       9.562  -4.446  25.376  0.00  0.00    +0.086 C 
BRANCH  14  16
ATOM     16  O3*   T A   1       8.066  -6.029  26.331  0.00  0.00    -0.389 OA
ATOM     17  H3*   T A   1       8.363  -6.668  27.015  0.00  0.00    +0.210 HD
ENDBRANCH  14  16
BRANCH  13  18
ATOM     18  C5*   T A   1       6.336  -3.833  27.143  0.00  0.00    +0.190 C 
BRANCH  18  19
ATOM     19  O5*   T A   1       6.412  -4.773  28.219  0.00  0.00    -0.392 OA
ATOM     20  H5*   T A   1       7.114  -5.406  27.963  0.00  0.00    +0.210 HD
ENDBRANCH  18  19
ENDBRANCH  13  18
ENDBRANCH   9  11
TORSDOF 4
ENDMDL
MODEL 6
REMARK VINA RESULT:      -5.7      2.743      3.588
REMARK  Name = 
REMARK  5 active torsions:
REMARK  status: ('A' for Active; 'I' for Inactive)
REMARK    1  A    between atoms: C5M_1  and  C5_2
REMARK    2  A    between atoms: N1_4  and  C1*_10
REMARK    3  A    between atoms: C3*_12  and  O3*_17
REMARK    4  A    between atoms: C4*_13  and  C5*_15
REMARK    5  A    between atoms: C5*_15  and  O5*_16
REMARK                            x       y       z     vdW  Elec       q    Type
REMARK                         _______ _______ _______ _____ _____    ______ ____
ROOT
ATOM      1  C5M   T A   1       6.144  -2.322  23.082  0.00  0.00    +0.019 C 
ATOM      2  C5    T A   1       7.382  -3.198  23.250  0.00  0.00    +0.090 C 
ATOM      3  C4    T A   1       7.582  -3.554  24.705  0.00  0.00    +0.225 C 
ATOM      4  O4    T A   1       6.913  -4.418  25.265  0.00  0.00    -0.275 OA
ATOM      5  N3    T A   1       8.477  -2.791  25.409  0.00  0.00    -0.240 N 
ATOM      6  H3    T A   1       8.457  -2.920  26.409  0.00  0.00    +0.159 HD
ATOM      7  C2    T A   1       9.009  -1.603  24.986  0.00  0.00    +0.310 C 
ATOM      8  O2    T A   1       9.372  -0.763  25.806  0.00  0.00    -0.252 OA
ATOM      9  N1    T A   1       9.038  -1.424  23.620  0.00  0.00    -0.259 N 
ATOM     10  C6    T A   1       8.645  -2.518  22.747  0.00  0.00    +0.124 C 
ENDROOT
BRANCH   9  11
ATOM     11  C1*   T A   1       9.229  -0.091  23.093  0.00  0.00    +0.212 C 
ATOM     12  O4*   T A   1       8.055   0.665  23.426  0.00  0.00    -0.350 OA
ATOM     13  C4*   T A   1       7.762   1.550  22.322  0.00  0.00    +0.174 C 
ATOM     14  C3*   T A   1       8.949   1.443  21.353  0.00  0.00    +0.150 C 
ATOM     15  C2*   T A   1       9.412   0.022  21.586  0.00  0.00    +0.086 C 
BRANCH  14  16
ATOM     16  O3*   T A   1      10.040   2.316  21.635  0.00  0.00    -0.389 OA
ATOM     17  H3*   T A   1      10.119   2.975  20.911  0.00  0.00    +0.210 HD
ENDBRANCH  14  16
BRANCH  13  18
ATOM     18  C5*   T A   1       7.491   2.936  22.897  0.00  0.00    +0.190 C 
BRANCH  18  19
ATOM     19  O5*   T A   1       7.830   3.934  21.929  0.00  0.00    -0.392 OA
ATOM     20  H5*   T A   1       8.349   3.466  21.243  0.00  0.00    +0.210 HD
ENDBRANCH  18  19
ENDBRANCH  13  18
ENDBRANCH   9  11
TORSDOF 4
ENDMDL
MODEL 7
REMARK VINA RESULT:      -5.6      2.679      5.167
REMARK  Name = 
REMARK  5 active torsions:
REMARK  status: ('A' for Active; 'I' for Inactive)
REMARK    1  A    between atoms: C5M_1  and  C5_2
REMARK    2  A    between atoms: N1_4  and  C1*_10
REMARK    3  A    between atoms: C3*_12  and  O3*_17
REMARK    4  A    between atoms: C4*_13  and  C5*_15
REMARK    5  A    between atoms: C5*_15  and  O5*_16
REMARK                            x       y       z     vdW  Elec       q    Type
REMARK                         _______ _______ _______ _____ _____    ______ ____
ROOT
ATOM      1  C5M   T A   1       7.372   0.702  24.059  0.00  0.00    +0.019 C 
ATOM      2  C5    T A   1       8.553   0.361  24.962  0.00  0.00    +0.090 C 
ATOM      3  C4    T A   1       9.843   0.862  24.353  0.00  0.00    +0.225 C 
ATOM      4  O4    T A   1      10.170   2.044  24.396  0.00  0.00    -0.275 OA
ATOM      5  N3    T A   1      10.588  -0.050  23.652  0.00  0.00    -0.240 N 
ATOM      6  H3    T A   1      11.337   0.343  23.101  0.00  0.00    +0.159 HD
ATOM      7  C2    T A   1      10.155  -1.285  23.249  0.00  0.00    +0.310 C 
ATOM      8  O2    T A   1      10.639  -1.813  22.252  0.00  0.00    -0.252 OA
ATOM      9  N1    T A   1       9.131  -1.822  23.999  0.00  0.00    -0.259 N 
ATOM     10  C6    T A   1       8.687  -1.135  25.201  0.00  0.00    +0.124 C 
ENDROOT
BRANCH   9  11
ATOM     11  C1*   T A   1       8.368  -2.922  23.454  0.00  0.00    +0.212 C 
ATOM     12  O4*   T A   1       6.982  -2.558  23.543  0.00  0.00    -0.350 OA
ATOM     13  C4*   T A   1       6.225  -3.745  23.869  0.00  0.00    +0.174 C 
ATOM     14  C3*   T A   1       7.206  -4.923  23.783  0.00  0.00    +0.150 C 
ATOM     15  C2*   T A   1       8.516  -4.264  24.157  0.00  0.00    +0.086 C 
BRANCH  14  16
ATOM     16  O3*   T A   1       7.353  -5.493  22.485  0.00  0.00    -0.389 OA
ATOM     17  H3*   T A   1       7.066  -4.838  21.811  0.00  0.00    +0.210 HD
ENDBRANCH  14  16
BRANCH  13  18
ATOM     18  C5*   T A   1       5.024  -3.803  22.931  0.00  0.00    +0.190 C 
BRANCH  18  19
ATOM     19  O5*   T A   1       5.443  -3.508  21.595  0.00  0.00    -0.392 OA
ATOM     20  H5*   T A   1       5.317  -4.340  21.093  0.00  0.00    +0.210 HD
ENDBRANCH  18  19
ENDBRANCH  13  18
ENDBRANCH   9  11
TORSDOF 4
ENDMDL
MODEL 8
REMARK VINA RESULT:      -5.5      2.770      3.813
REMARK  Name = 
REMARK  5 active torsions:
REMARK  status: ('A' for Active; 'I' for Inactive)
REMARK    1  A    between atoms: C5M_1  and  C5_2
REMARK    2  A    between atoms: N1_4  and  C1*_10
REMARK    3  A    between atoms: C3*_12  and  O3*_17
REMARK    4  A    between atoms: C4*_13  and  C5*_15
REMARK    5  A    between atoms: C5*_15  and  O5*_16
REMARK                            x       y       z     vdW  Elec       q    Type
REMARK                         _______ _______ _______ _____ _____    ______ ____
ROOT
ATOM      1  C5M   T A   1       6.448  -5.147  21.430  0.00  0.00    +0.019 C 
ATOM      2  C5    T A   1       6.075  -5.638  22.826  0.00  0.00    +0.090 C 
ATOM      3  C4    T A   1       4.642  -5.278  23.146  0.00  0.00    +0.225 C 
ATOM      4  O4    T A   1       3.693  -5.906  22.687  0.00  0.00    -0.275 OA
ATOM      5  N3    T A   1       4.444  -4.145  23.891  0.00  0.00    -0.240 N 
ATOM      6  H3    T A   1       3.489  -3.822  23.932  0.00  0.00    +0.159 HD
ATOM      7  C2    T A   1       5.392  -3.193  24.154  0.00  0.00    +0.310 C 
ATOM      8  O2    T A   1       5.057  -2.031  24.366  0.00  0.00    -0.252 OA
ATOM      9  N1    T A   1       6.698  -3.633  24.097  0.00  0.00    -0.259 N 
ATOM     10  C6    T A   1       6.968  -5.048  23.905  0.00  0.00    +0.124 C 
ENDROOT
BRANCH   9  11
ATOM     11  C1*   T A   1       7.760  -2.657  23.994  0.00  0.00    +0.212 C 
ATOM     12  O4*   T A   1       7.761  -2.179  22.640  0.00  0.00    -0.350 OA
ATOM     13  C4*   T A   1       9.134  -1.968  22.239  0.00  0.00    +0.174 C 
ATOM     14  C3*   T A   1       9.987  -2.154  23.502  0.00  0.00    +0.150 C 
ATOM     15  C2*   T A   1       9.168  -3.155  24.286  0.00  0.00    +0.086 C 
BRANCH  14  16
ATOM     16  O3*   T A   1      10.145  -0.986  24.304  0.00  0.00    -0.389 OA
ATOM     17  H3*   T A   1      10.809  -1.165  25.005  0.00  0.00    +0.210 HD
ENDBRANCH  14  16
BRANCH  13  18
ATOM     18  C5*   T A   1       9.217  -0.600  21.571  0.00  0.00    +0.190 C 
BRANCH  18  19
ATOM     19  O5*   T A   1       8.402   0.335  22.284  0.00  0.00    -0.392 OA
ATOM     20  H5*   T A   1       8.708   0.292  23.214  0.00  0.00    +0.210 HD
ENDBRANCH  18  19
ENDBRANCH  13  18
ENDBRANCH   9  11
TORSDOF 4
ENDMDL
MODEL 9
REMARK VINA RESULT:      -5.5      2.342      5.341
REMARK  Name = 
REMARK  5 active torsions:
REMARK  status: ('A' for Active; 'I' for Inactive)
REMARK    1  A    between atoms: C5M_1  and  C5_2
REMARK    2  A    between atoms: N1_4  and  C1*_10
REMARK    3  A    between atoms: C3*_12  and  O3*_17
REMARK    4  A    between atoms: C4*_13  and  C5*_15
REMARK    5  A    between atoms: C5*_15  and  O5*_16
REMARK                            x       y       z     vdW  Elec       q    Type
REMARK                         _______ _______ _______ _____ _____    ______ ____
ROOT
ATOM      1  C5M   T A   1      10.368  -0.975  22.762  0.00  0.00    +0.019 C 
ATOM      2  C5    T A   1       9.374   0.129  23.111  0.00  0.00    +0.090 C 
ATOM      3  C4    T A   1       9.939   1.023  24.191  0.00  0.00    +0.225 C 
ATOM      4  O4    T A   1      10.785   1.880  23.953  0.00  0.00    -0.275 OA
ATOM      5  N3    T A   1       9.541   0.764  25.476  0.00  0.00    -0.240 N 
ATOM      6  H3    T A   1      10.067   1.242  26.192  0.00  0.00    +0.159 HD
ATOM      7  C2    T A   1       8.887  -0.366  25.890  0.00  0.00    +0.310 C 
ATOM      8  O2    T A   1       9.008  -0.758  27.048  0.00  0.00    -0.252 OA
ATOM      9  N1    T A   1       8.168  -1.021  24.914  0.00  0.00    -0.259 N 
ATOM     10  C6    T A   1       8.043  -0.422  23.595  0.00  0.00    +0.124 C 
ENDROOT
BRANCH   9  11
ATOM     11  C1*   T A   1       7.757  -2.387  25.146  0.00  0.00    +0.212 C 
ATOM     12  O4*   T A   1       8.937  -3.202  25.058  0.00  0.00    -0.350 OA
ATOM     13  C4*   T A   1       8.575  -4.449  24.424  0.00  0.00    +0.174 C 
ATOM     14  C3*   T A   1       7.045  -4.445  24.300  0.00  0.00    +0.150 C 
ATOM     15  C2*   T A   1       6.748  -2.968  24.166  0.00  0.00    +0.086 C 
BRANCH  14  16
ATOM     16  O3*   T A   1       6.344  -4.935  25.440  0.00  0.00    -0.389 OA
ATOM     17  H3*   T A   1       6.920  -5.566  25.925  0.00  0.00    +0.210 HD
ENDBRANCH  14  16
BRANCH  13  18
ATOM     18  C5*   T A   1       9.176  -5.582  25.250  0.00  0.00    +0.190 C 
BRANCH  18  19
ATOM     19  O5*   T A   1       8.850  -5.397  26.631  0.00  0.00    -0.392 OA
ATOM     20  H5*   T A   1       8.773  -4.429  26.753  0.00  0.00    +0.210 HD
ENDBRANCH  18  19
ENDBRANCH  13  18
ENDBRANCH   9  11
TORSDOF 4
ENDMDL
