MODEL 1
REMARK VINA RESULT:      -6.3      0.000      0.000
REMARK  Name = 
REMARK  11 active torsions:
REMARK  status: ('A' for Active; 'I' for Inactive)
REMARK    1  A    between atoms: C_1  and  C_2
REMARK    2  A    between atoms: N_4  and  C_5
REMARK    3  A    between atoms: C_6  and  C_19
REMARK    4  A    between atoms: C_9  and  C_16
REMARK    5  A    between atoms: C_11  and  N_12
REMARK    6  A    between atoms: C_16  and  O_18
REMARK    7  A    between atoms: C_19  and  C_20
REMARK    8  A    between atoms: C_19  and  O_24
REMARK    9  A    between atoms: C_20  and  C_21
REMARK   10  A    between atoms: C_20  and  O_23
REMARK   11  A    between atoms: C_21  and  O_22
REMARK                            x       y       z     vdW  Elec       q    Type
REMARK                         _______ _______ _______ _____ _____    ______ ____
ROOT
ATOM      1  C   UNL     1       8.599  -2.511  23.868  0.00  0.00    +0.160 C 
ATOM      2  C   UNL     1       8.441  -4.061  23.904  0.00  0.00    +0.238 C 
ATOM      3  C   UNL     1       7.475  -4.601  22.914  0.00  0.00    +0.071 C 
ATOM      4  C   UNL     1       6.923  -3.864  21.947  0.00  0.00    +0.204 C 
ATOM      5  O   UNL     1       7.145  -2.534  21.763  0.00  0.00    -0.477 OA
ATOM      6  C   UNL     1       8.049  -1.808  22.596  0.00  0.00    +0.229 C 
ENDROOT
BRANCH   2   7
ATOM      7  N   UNL     1       7.979  -4.468  25.241  0.00  0.00    -0.104 NA
ATOM      8  C   UNL     1       8.647  -5.322  25.914  0.00  0.00    +0.377 C 
ATOM      9  N   UNL     1       8.285  -5.580  27.191  0.00  0.00    -0.289 N 
ATOM     10  H   UNL     1       8.380  -6.551  27.456  0.00  0.00    +0.255 HD
ATOM     11  H   UNL     1       7.349  -5.235  27.382  0.00  0.00    +0.255 HD
ATOM     12  N   UNL     1       9.754  -6.024  25.598  0.00  0.00    -0.289 N 
ATOM     13  H   UNL     1      10.412  -6.112  26.364  0.00  0.00    +0.255 HD
ATOM     14  H   UNL     1      10.227  -5.779  24.738  0.00  0.00    +0.255 HD
ENDBRANCH   2   7
BRANCH   1  17
ATOM     15  C   UNL     1       7.948  -0.509  27.052  0.00  0.00    +0.109 C 
ATOM     16  C   UNL     1       8.639  -0.879  25.773  0.00  0.00    +0.210 C 
ATOM     17  N   UNL     1       8.027  -1.890  25.080  0.00  0.00    -0.305 N 
ATOM     18  H   UNL     1       7.236  -2.388  25.487  0.00  0.00    +0.149 HD
ATOM     19  O   UNL     1       9.654  -0.312  25.373  0.00  0.00    -0.276 OA
ENDBRANCH   1  17
BRANCH   4  20
ATOM     20  C   UNL     1       6.021  -4.527  20.945  0.00  0.00    +0.372 C 
ATOM     21  O   UNL     1       5.749  -4.086  19.843  0.00  0.00    -0.242 OA
BRANCH  20  22
ATOM     22  O   UNL     1       5.507  -5.665  21.458  0.00  0.00    -0.475 OA
ATOM     23  H   UNL     1       6.208  -6.239  21.835  0.00  0.00    +0.296 HD
ENDBRANCH  20  22
ENDBRANCH   4  20
BRANCH   6  24
ATOM     24  C   UNL     1       9.187  -1.205  21.727  0.00  0.00    +0.187 C 
BRANCH  24  25
ATOM     25  O   UNL     1      10.457  -1.792  22.011  0.00  0.00    -0.385 OA
ATOM     26  H   UNL     1      10.926  -1.985  21.164  0.00  0.00    +0.210 HD
ENDBRANCH  24  25
BRANCH  24  27
ATOM     27  C   UNL     1       9.276   0.332  21.873  0.00  0.00    +0.172 C 
BRANCH  27  28
ATOM     28  O   UNL     1      10.351   0.718  22.754  0.00  0.00    -0.387 OA
ATOM     29  H   UNL     1      11.186   0.444  22.330  0.00  0.00    +0.210 HD
ENDBRANCH  27  28
BRANCH  27  30
ATOM     30  C   UNL     1       7.978   0.942  22.420  0.00  0.00    +0.189 C 
BRANCH  30  31
ATOM     31  O   UNL     1       8.275   1.759  23.555  0.00  0.00    -0.392 OA
ATOM     32  H   UNL     1       9.083   1.386  23.959  0.00  0.00    +0.210 HD
ENDBRANCH  30  31
ENDBRANCH  27  30
ENDBRANCH  24  27
ENDBRANCH   6  24
TORSDOF 10
ENDMDL
MODEL 2
REMARK VINA RESULT:      -6.0      1.558      1.849
REMARK  Name = 
REMARK  11 active torsions:
REMARK  status: ('A' for Active; 'I' for Inactive)
REMARK    1  A    between atoms: C_1  and  C_2
REMARK    2  A    between atoms: N_4  and  C_5
REMARK    3  A    between atoms: C_6  and  C_19
REMARK    4  A    between atoms: C_9  and  C_16
REMARK    5  A    between atoms: C_11  and  N_12
REMARK    6  A    between atoms: C_16  and  O_18
REMARK    7  A    between atoms: C_19  and  C_20
REMARK    8  A    between atoms: C_19  and  O_24
REMARK    9  A    between atoms: C_20  and  C_21
REMARK   10  A    between atoms: C_20  and  O_23
REMARK   11  A    between atoms: C_21  and  O_22
REMARK                            x       y       z     vdW  Elec       q    Type
REMARK                         _______ _______ _______ _____ _____    ______ ____
ROOT
ATOM      1  C   UNL     1       7.760  -2.981  24.749  0.00  0.00    +0.160 C 
ATOM      2  C   UNL     1       7.419  -4.469  25.059  0.00  0.00    +0.238 C 
ATOM      3  C   UNL     1       6.829  -5.212  23.917  0.00  0.00    +0.071 C 
ATOM      4  C   UNL     1       6.762  -4.724  22.676  0.00  0.00    +0.204 C 
ATOM      5  O   UNL     1       7.191  -3.485  22.306  0.00  0.00    -0.477 OA
ATOM      6  C   UNL     1       7.804  -2.599  23.244  0.00  0.00    +0.229 C 
ENDROOT
BRANCH   2   7
ATOM      7  N   UNL     1       6.453  -4.522  26.169  0.00  0.00    -0.104 NA
ATOM      8  C   UNL     1       6.705  -5.231  27.200  0.00  0.00    +0.377 C 
ATOM      9  N   UNL     1       5.874  -5.159  28.264  0.00  0.00    -0.289 N 
ATOM     10  H   UNL     1       5.728  -6.045  28.731  0.00  0.00    +0.255 HD
ATOM     11  H   UNL     1       4.991  -4.726  28.010  0.00  0.00    +0.255 HD
ATOM     12  N   UNL     1       7.740  -6.049  27.478  0.00  0.00    -0.289 N 
ATOM     13  H   UNL     1       8.058  -5.992  28.438  0.00  0.00    +0.255 HD
ATOM     14  H   UNL     1       8.520  -6.042  26.835  0.00  0.00    +0.255 HD
ENDBRANCH   2   7
BRANCH   1  17
ATOM     15  C   UNL     1       6.162  -0.517  27.189  0.00  0.00    +0.109 C 
ATOM     16  C   UNL     1       7.276  -1.245  26.495  0.00  0.00    +0.210 C 
ATOM     17  N   UNL     1       6.859  -2.065  25.480  0.00  0.00    -0.305 N 
ATOM     18  H   UNL     1       5.865  -2.218  25.316  0.00  0.00    +0.149 HD
ATOM     19  O   UNL     1       8.457  -1.102  26.799  0.00  0.00    -0.276 OA
ENDBRANCH   1  17
BRANCH   4  20
ATOM     20  C   UNL     1       6.222  -5.590  21.575  0.00  0.00    +0.372 C 
ATOM     21  O   UNL     1       5.950  -5.211  20.450  0.00  0.00    -0.242 OA
BRANCH  20  22
ATOM     22  O   UNL     1       6.027  -6.849  22.023  0.00  0.00    -0.475 OA
ATOM     23  H   UNL     1       6.738  -7.126  22.639  0.00  0.00    +0.296 HD
ENDBRANCH  20  22
ENDBRANCH   4  20
BRANCH   6  24
ATOM     24  C   UNL     1       9.244  -2.258  22.771  0.00  0.00    +0.187 C 
BRANCH  24  25
ATOM     25  O   UNL     1      10.240  -2.742  23.672  0.00  0.00    -0.385 OA
ATOM     26  H   UNL     1      11.116  -2.355  23.431  0.00  0.00    +0.210 HD
ENDBRANCH  24  25
BRANCH  24  27
ATOM     27  C   UNL     1       9.435  -0.739  22.546  0.00  0.00    +0.172 C 
BRANCH  27  28
ATOM     28  O   UNL     1       9.723  -0.441  21.165  0.00  0.00    -0.387 OA
ATOM     29  H   UNL     1       9.315  -1.143  20.625  0.00  0.00    +0.210 HD
ENDBRANCH  27  28
BRANCH  27  30
ATOM     30  C   UNL     1      10.574  -0.162  23.399  0.00  0.00    +0.189 C 
BRANCH  30  31
ATOM     31  O   UNL     1      10.151  -0.070  24.762  0.00  0.00    -0.392 OA
ATOM     32  H   UNL     1      10.964   0.022  25.296  0.00  0.00    +0.210 HD
ENDBRANCH  30  31
ENDBRANCH  27  30
ENDBRANCH  24  27
ENDBRANCH   6  24
TORSDOF 10
ENDMDL
MODEL 3
REMARK VINA RESULT:      -5.7      4.643      8.175
REMARK  Name = 
REMARK  11 active torsions:
REMARK  status: ('A' for Active; 'I' for Inactive)
REMARK    1  A    between atoms: C_1  and  C_2
REMARK    2  A    between atoms: N_4  and  C_5
REMARK    3  A    between atoms: C_6  and  C_19
REMARK    4  A    between atoms: C_9  and  C_16
REMARK    5  A    between atoms: C_11  and  N_12
REMARK    6  A    between atoms: C_16  and  O_18
REMARK    7  A    between atoms: C_19  and  C_20
REMARK    8  A    between atoms: C_19  and  O_24
REMARK    9  A    between atoms: C_20  and  C_21
REMARK   10  A    between atoms: C_20  and  O_23
REMARK   11  A    between atoms: C_21  and  O_22
REMARK                            x       y       z     vdW  Elec       q    Type
REMARK                         _______ _______ _______ _____ _____    ______ ____
ROOT
ATOM      1  C   UNL     1       8.908   3.180  23.962  0.00  0.00    +0.160 C 
ATOM      2  C   UNL     1       8.883   4.738  23.966  0.00  0.00    +0.238 C 
ATOM      3  C   UNL     1      10.222   5.372  23.874  0.00  0.00    +0.071 C 
ATOM      4  C   UNL     1      11.343   4.693  23.620  0.00  0.00    +0.204 C 
ATOM      5  O   UNL     1      11.409   3.344  23.447  0.00  0.00    -0.477 OA
ATOM      6  C   UNL     1      10.236   2.530  23.485  0.00  0.00    +0.229 C 
ENDROOT
BRANCH   2   7
ATOM      7  N   UNL     1       8.255   5.207  25.213  0.00  0.00    -0.104 NA
ATOM      8  C   UNL     1       7.266   6.013  25.165  0.00  0.00    +0.377 C 
ATOM      9  N   UNL     1       6.617   6.324  26.310  0.00  0.00    -0.289 N 
ATOM     10  H   UNL     1       6.316   7.288  26.362  0.00  0.00    +0.255 HD
ATOM     11  H   UNL     1       7.167   6.064  27.124  0.00  0.00    +0.255 HD
ATOM     12  N   UNL     1       6.664   6.611  24.117  0.00  0.00    -0.289 N 
ATOM     13  H   UNL     1       5.655   6.655  24.199  0.00  0.00    +0.255 HD
ATOM     14  H   UNL     1       6.942   6.311  23.192  0.00  0.00    +0.255 HD
ENDBRANCH   2   7
BRANCH   1  17
ATOM     15  C   UNL     1       7.285   1.322  26.875  0.00  0.00    +0.109 C 
ATOM     16  C   UNL     1       7.641   1.602  25.444  0.00  0.00    +0.210 C 
ATOM     17  N   UNL     1       8.522   2.638  25.281  0.00  0.00    -0.305 N 
ATOM     18  H   UNL     1       8.801   3.208  26.079  0.00  0.00    +0.149 HD
ATOM     19  O   UNL     1       7.195   0.947  24.505  0.00  0.00    -0.276 OA
ENDBRANCH   1  17
BRANCH   4  20
ATOM     20  C   UNL     1      12.635   5.442  23.465  0.00  0.00    +0.372 C 
ATOM     21  O   UNL     1      13.395   5.346  22.518  0.00  0.00    -0.242 OA
BRANCH  20  22
ATOM     22  O   UNL     1      12.868   6.204  24.554  0.00  0.00    -0.475 OA
ATOM     23  H   UNL     1      12.183   6.898  24.662  0.00  0.00    +0.296 HD
ENDBRANCH  20  22
ENDBRANCH   4  20
BRANCH   6  24
ATOM     24  C   UNL     1      10.069   1.796  22.126  0.00  0.00    +0.187 C 
BRANCH  24  25
ATOM     25  O   UNL     1       8.967   2.297  21.369  0.00  0.00    -0.385 OA
ATOM     26  H   UNL     1       8.154   1.782  21.593  0.00  0.00    +0.210 HD
ENDBRANCH  24  25
BRANCH  24  27
ATOM     27  C   UNL     1       9.927   0.266  22.307  0.00  0.00    +0.172 C 
BRANCH  27  28
ATOM     28  O   UNL     1       8.551  -0.153  22.204  0.00  0.00    -0.387 OA
ATOM     29  H   UNL     1       8.331  -0.630  23.026  0.00  0.00    +0.210 HD
ENDBRANCH  27  28
BRANCH  27  30
ATOM     30  C   UNL     1      10.465  -0.213  23.662  0.00  0.00    +0.189 C 
BRANCH  30  31
ATOM     31  O   UNL     1       9.502  -1.068  24.283  0.00  0.00    -0.392 OA
ATOM     32  H   UNL     1       8.624  -0.700  24.063  0.00  0.00    +0.210 HD
ENDBRANCH  30  31
ENDBRANCH  27  30
ENDBRANCH  24  27
ENDBRANCH   6  24
TORSDOF 10
ENDMDL
MODEL 4
REMARK VINA RESULT:      -5.7      4.502      7.541
REMARK  Name = 
REMARK  11 active torsions:
REMARK  status: ('A' for Active; 'I' for Inactive)
REMARK    1  A    between atoms: C_1  and  C_2
REMARK    2  A    between atoms: N_4  and  C_5
REMARK    3  A    between atoms: C_6  and  C_19
REMARK    4  A    between atoms: C_9  and  C_16
REMARK    5  A    between atoms: C_11  and  N_12
REMARK    6  A    between atoms: C_16  and  O_18
REMARK    7  A    between atoms: C_19  and  C_20
REMARK    8  A    between atoms: C_19  and  O_24
REMARK    9  A    between atoms: C_20  and  C_21
REMARK   10  A    between atoms: C_20  and  O_23
REMARK   11  A    between atoms: C_21  and  O_22
REMARK                            x       y       z     vdW  Elec       q    Type
REMARK                         _______ _______ _______ _____ _____    ______ ____
ROOT
ATOM      1  C   UNL     1       5.848  -5.587  24.957  0.00  0.00    +0.160 C 
ATOM      2  C   UNL     1       7.103  -5.476  25.873  0.00  0.00    +0.238 C 
ATOM      3  C   UNL     1       6.796  -5.242  27.306  0.00  0.00    +0.071 C 
ATOM      4  C   UNL     1       5.564  -5.304  27.815  0.00  0.00    +0.204 C 
ATOM      5  O   UNL     1       4.438  -5.556  27.092  0.00  0.00    -0.477 OA
ATOM      6  C   UNL     1       4.498  -5.822  25.690  0.00  0.00    +0.229 C 
ENDROOT
BRANCH   2   7
ATOM      7  N   UNL     1       7.941  -4.357  25.411  0.00  0.00    -0.104 NA
ATOM      8  C   UNL     1       9.191  -4.533  25.219  0.00  0.00    +0.377 C 
ATOM      9  N   UNL     1       9.916  -3.536  24.665  0.00  0.00    -0.289 N 
ATOM     10  H   UNL     1      10.847  -3.442  25.050  0.00  0.00    +0.255 HD
ATOM     11  H   UNL     1       9.412  -2.655  24.698  0.00  0.00    +0.255 HD
ATOM     12  N   UNL     1       9.972  -5.613  25.422  0.00  0.00    -0.289 N 
ATOM     13  H   UNL     1      10.665  -5.757  24.697  0.00  0.00    +0.255 HD
ATOM     14  H   UNL     1       9.509  -6.480  25.660  0.00  0.00    +0.255 HD
ENDBRANCH   2   7
BRANCH   1  17
ATOM     15  C   UNL     1       5.506  -3.218  21.983  0.00  0.00    +0.109 C 
ATOM     16  C   UNL     1       5.407  -4.514  22.733  0.00  0.00    +0.210 C 
ATOM     17  N   UNL     1       5.741  -4.419  24.057  0.00  0.00    -0.305 N 
ATOM     18  H   UNL     1       6.120  -3.550  24.433  0.00  0.00    +0.149 HD
ATOM     19  O   UNL     1       5.038  -5.562  22.208  0.00  0.00    -0.276 OA
ENDBRANCH   1  17
BRANCH   4  20
ATOM     20  C   UNL     1       5.371  -5.133  29.295  0.00  0.00    +0.372 C 
ATOM     21  O   UNL     1       4.513  -4.445  29.819  0.00  0.00    -0.242 OA
BRANCH  20  22
ATOM     22  O   UNL     1       6.322  -5.812  29.972  0.00  0.00    -0.475 OA
ATOM     23  H   UNL     1       7.165  -5.847  29.472  0.00  0.00    +0.296 HD
ENDBRANCH  20  22
ENDBRANCH   4  20
BRANCH   6  24
ATOM     24  C   UNL     1       3.919  -7.235  25.404  0.00  0.00    +0.187 C 
BRANCH  24  25
ATOM     25  O   UNL     1       4.060  -7.613  24.034  0.00  0.00    -0.385 OA
ATOM     26  H   UNL     1       4.871  -7.190  23.660  0.00  0.00    +0.210 HD
ENDBRANCH  24  25
BRANCH  24  27
ATOM     27  C   UNL     1       2.436  -7.351  25.828  0.00  0.00    +0.172 C 
BRANCH  27  28
ATOM     28  O   UNL     1       2.309  -7.626  27.238  0.00  0.00    -0.387 OA
ATOM     29  H   UNL     1       2.561  -8.558  27.375  0.00  0.00    +0.210 HD
ENDBRANCH  27  28
BRANCH  27  30
ATOM     30  C   UNL     1       1.695  -8.457  25.064  0.00  0.00    +0.189 C 
BRANCH  30  31
ATOM     31  O   UNL     1       2.342  -9.711  25.292  0.00  0.00    -0.392 OA
ATOM     32  H   UNL     1       2.078 -10.296  24.555  0.00  0.00    +0.210 HD
ENDBRANCH  30  31
ENDBRANCH  27  30
ENDBRANCH  24  27
ENDBRANCH   6  24
TORSDOF 10
ENDMDL
MODEL 5
REMARK VINA RESULT:      -5.6      2.806      4.999
REMARK  Name = 
REMARK  11 active torsions:
REMARK  status: ('A' for Active; 'I' for Inactive)
REMARK    1  A    between atoms: C_1  and  C_2
REMARK    2  A    between atoms: N_4  and  C_5
REMARK    3  A    between atoms: C_6  and  C_19
REMARK    4  A    between atoms: C_9  and  C_16
REMARK    5  A    between atoms: C_11  and  N_12
REMARK    6  A    between atoms: C_16  and  O_18
REMARK    7  A    between atoms: C_19  and  C_20
REMARK    8  A    between atoms: C_19  and  O_24
REMARK    9  A    between atoms: C_20  and  C_21
REMARK   10  A    between atoms: C_20  and  O_23
REMARK   11  A    between atoms: C_21  and  O_22
REMARK                            x       y       z     vdW  Elec       q    Type
REMARK                         _______ _______ _______ _____ _____    ______ ____
ROOT
ATOM      1  C   UNL     1       8.271  -2.131  24.478  0.00  0.00    +0.160 C 
ATOM      2  C   UNL     1       7.006  -1.782  23.637  0.00  0.00    +0.238 C 
ATOM      3  C   UNL     1       6.612  -2.829  22.661  0.00  0.00    +0.071 C 
ATOM      4  C   UNL     1       7.163  -4.044  22.621  0.00  0.00    +0.204 C 
ATOM      5  O   UNL     1       8.168  -4.467  23.438  0.00  0.00    -0.477 OA
ATOM      6  C   UNL     1       8.698  -3.625  24.462  0.00  0.00    +0.229 C 
ENDROOT
BRANCH   2   7
ATOM      7  N   UNL     1       7.256  -0.543  22.882  0.00  0.00    -0.104 NA
ATOM      8  C   UNL     1       6.651   0.533  23.205  0.00  0.00    +0.377 C 
ATOM      9  N   UNL     1       6.994   1.688  22.592  0.00  0.00    -0.289 N 
ATOM     10  H   UNL     1       6.212   2.301  22.404  0.00  0.00    +0.255 HD
ATOM     11  H   UNL     1       7.533   1.509  21.750  0.00  0.00    +0.255 HD
ATOM     12  N   UNL     1       5.713   0.771  24.144  0.00  0.00    -0.289 N 
ATOM     13  H   UNL     1       5.836   1.652  24.629  0.00  0.00    +0.255 HD
ATOM     14  H   UNL     1       5.508   0.023  24.793  0.00  0.00    +0.255 HD
ENDBRANCH   2   7
BRANCH   1  17
ATOM     15  C   UNL     1      10.981   0.549  24.266  0.00  0.00    +0.109 C 
ATOM     16  C   UNL     1       9.922  -0.294  24.914  0.00  0.00    +0.210 C 
ATOM     17  N   UNL     1       9.413  -1.272  24.102  0.00  0.00    -0.305 N 
ATOM     18  H   UNL     1       9.683  -1.319  23.120  0.00  0.00    +0.149 HD
ATOM     19  O   UNL     1       9.558  -0.131  26.077  0.00  0.00    -0.276 OA
ENDBRANCH   1  17
BRANCH   4  20
ATOM     20  C   UNL     1       6.634  -5.058  21.648  0.00  0.00    +0.372 C 
ATOM     21  O   UNL     1       6.954  -6.232  21.610  0.00  0.00    -0.242 OA
BRANCH  20  22
ATOM     22  O   UNL     1       5.785  -4.472  20.777  0.00  0.00    -0.475 OA
ATOM     23  H   UNL     1       5.854  -4.870  19.883  0.00  0.00    +0.296 HD
ENDBRANCH  20  22
ENDBRANCH   4  20
BRANCH   6  24
ATOM     24  C   UNL     1       8.497  -4.302  25.846  0.00  0.00    +0.187 C 
BRANCH  24  25
ATOM     25  O   UNL     1       9.104  -5.593  25.913  0.00  0.00    -0.385 OA
ATOM     26  H   UNL     1       9.725  -5.624  26.680  0.00  0.00    +0.210 HD
ENDBRANCH  24  25
BRANCH  24  27
ATOM     27  C   UNL     1       7.002  -4.407  26.229  0.00  0.00    +0.172 C 
BRANCH  27  28
ATOM     28  O   UNL     1       6.638  -3.420  27.215  0.00  0.00    -0.387 OA
ATOM     29  H   UNL     1       7.465  -3.077  27.601  0.00  0.00    +0.210 HD
ENDBRANCH  27  28
BRANCH  27  30
ATOM     30  C   UNL     1       6.639  -5.789  26.791  0.00  0.00    +0.189 C 
BRANCH  30  31
ATOM     31  O   UNL     1       7.406  -6.042  27.970  0.00  0.00    -0.392 OA
ATOM     32  H   UNL     1       7.876  -5.210  28.177  0.00  0.00    +0.210 HD
ENDBRANCH  30  31
ENDBRANCH  27  30
ENDBRANCH  24  27
ENDBRANCH   6  24
TORSDOF 10
ENDMDL
MODEL 6
REMARK VINA RESULT:      -5.5      4.507      5.780
REMARK  Name = 
REMARK  11 active torsions:
REMARK  status: ('A' for Active; 'I' for Inactive)
REMARK    1  A    between atoms: C_1  and  C_2
REMARK    2  A    between atoms: N_4  and  C_5
REMARK    3  A    between atoms: C_6  and  C_19
REMARK    4  A    between atoms: C_9  and  C_16
REMARK    5  A    between atoms: C_11  and  N_12
REMARK    6  A    between atoms: C_16  and  O_18
REMARK    7  A    between atoms: C_19  and  C_20
REMARK    8  A    between atoms: C_19  and  O_24
REMARK    9  A    between atoms: C_20  and  C_21
REMARK   10  A    between atoms: C_20  and  O_23
REMARK   11  A    between atoms: C_21  and  O_22
REMARK                            x       y       z     vdW  Elec       q    Type
REMARK                         _______ _______ _______ _____ _____    ______ ____
ROOT
ATOM      1  C   UNL     1       5.176  -5.769  26.517  0.00  0.00    +0.160 C 
ATOM      2  C   UNL     1       4.411  -6.679  25.511  0.00  0.00    +0.238 C 
ATOM      3  C   UNL     1       4.747  -6.435  24.085  0.00  0.00    +0.071 C 
ATOM      4  C   UNL     1       5.747  -5.644  23.690  0.00  0.00    +0.204 C 
ATOM      5  O   UNL     1       6.558  -4.942  24.528  0.00  0.00    -0.477 OA
ATOM      6  C   UNL     1       6.422  -5.035  25.947  0.00  0.00    +0.229 C 
ENDROOT
BRANCH   2   7
ATOM      7  N   UNL     1       2.963  -6.462  25.668  0.00  0.00    -0.104 NA
ATOM      8  C   UNL     1       2.167  -7.460  25.691  0.00  0.00    +0.377 C 
ATOM      9  N   UNL     1       0.862  -7.251  25.974  0.00  0.00    -0.289 N 
ATOM     10  H   UNL     1       0.228  -7.832  25.441  0.00  0.00    +0.255 HD
ATOM     11  H   UNL     1       0.621  -6.268  25.887  0.00  0.00    +0.255 HD
ATOM     12  N   UNL     1       2.400  -8.778  25.534  0.00  0.00    -0.289 N 
ATOM     13  H   UNL     1       1.858  -9.364  26.158  0.00  0.00    +0.255 HD
ATOM     14  H   UNL     1       3.365  -9.077  25.501  0.00  0.00    +0.255 HD
ENDBRANCH   2   7
BRANCH   1  17
ATOM     15  C   UNL     1       3.205  -3.581  28.945  0.00  0.00    +0.109 C 
ATOM     16  C   UNL     1       4.323  -4.470  28.486  0.00  0.00    +0.210 C 
ATOM     17  N   UNL     1       4.264  -4.799  27.158  0.00  0.00    -0.305 N 
ATOM     18  H   UNL     1       3.458  -4.529  26.595  0.00  0.00    +0.149 HD
ATOM     19  O   UNL     1       5.221  -4.853  29.232  0.00  0.00    -0.276 OA
ENDBRANCH   1  17
BRANCH   4  20
ATOM     20  C   UNL     1       6.056  -5.530  22.225  0.00  0.00    +0.372 C 
ATOM     21  O   UNL     1       6.863  -6.212  21.619  0.00  0.00    -0.242 OA
BRANCH  20  22
ATOM     22  O   UNL     1       5.347  -4.521  21.674  0.00  0.00    -0.475 OA
ATOM     23  H   UNL     1       5.290  -4.611  20.699  0.00  0.00    +0.296 HD
ENDBRANCH  20  22
ENDBRANCH   4  20
BRANCH   6  24
ATOM     24  C   UNL     1       7.745  -5.569  26.562  0.00  0.00    +0.187 C 
BRANCH  24  25
ATOM     25  O   UNL     1       7.576  -6.017  27.908  0.00  0.00    -0.385 OA
ATOM     26  H   UNL     1       7.333  -5.250  28.480  0.00  0.00    +0.210 HD
ENDBRANCH  24  25
BRANCH  24  27
ATOM     27  C   UNL     1       8.879  -4.520  26.498  0.00  0.00    +0.172 C 
BRANCH  27  28
ATOM     28  O   UNL     1       8.381  -3.226  26.103  0.00  0.00    -0.387 OA
ATOM     29  H   UNL     1       7.459  -3.162  26.415  0.00  0.00    +0.210 HD
ENDBRANCH  27  28
BRANCH  27  30
ATOM     30  C   UNL     1       9.988  -4.918  25.514  0.00  0.00    +0.189 C 
BRANCH  30  31
ATOM     31  O   UNL     1       9.464  -5.834  24.549  0.00  0.00    -0.392 OA
ATOM     32  H   UNL     1       8.585  -5.491  24.293  0.00  0.00    +0.210 HD
ENDBRANCH  30  31
ENDBRANCH  27  30
ENDBRANCH  24  27
ENDBRANCH   6  24
TORSDOF 10
ENDMDL
MODEL 7
REMARK VINA RESULT:      -5.4      2.709      5.181
REMARK  Name = 
REMARK  11 active torsions:
REMARK  status: ('A' for Active; 'I' for Inactive)
REMARK    1  A    between atoms: C_1  and  C_2
REMARK    2  A    between atoms: N_4  and  C_5
REMARK    3  A    between atoms: C_6  and  C_19
REMARK    4  A    between atoms: C_9  and  C_16
REMARK    5  A    between atoms: C_11  and  N_12
REMARK    6  A    between atoms: C_16  and  O_18
REMARK    7  A    between atoms: C_19  and  C_20
REMARK    8  A    between atoms: C_19  and  O_24
REMARK    9  A    between atoms: C_20  and  C_21
REMARK   10  A    between atoms: C_20  and  O_23
REMARK   11  A    between atoms: C_21  and  O_22
REMARK                            x       y       z     vdW  Elec       q    Type
REMARK                         _______ _______ _______ _____ _____    ______ ____
ROOT
ATOM      1  C   UNL     1       7.349  -1.833  23.680  0.00  0.00    +0.160 C 
ATOM      2  C   UNL     1       8.843  -2.262  23.773  0.00  0.00    +0.238 C 
ATOM      3  C   UNL     1       9.090  -3.439  24.643  0.00  0.00    +0.071 C 
ATOM      4  C   UNL     1       8.115  -4.191  25.158  0.00  0.00    +0.204 C 
ATOM      5  O   UNL     1       6.784  -3.962  24.982  0.00  0.00    -0.477 OA
ATOM      6  C   UNL     1       6.315  -2.885  24.170  0.00  0.00    +0.229 C 
ENDROOT
BRANCH   2   7
ATOM      7  N   UNL     1       9.635  -1.141  24.308  0.00  0.00    -0.104 NA
ATOM      8  C   UNL     1      10.153  -0.289  23.512  0.00  0.00    +0.377 C 
ATOM      9  N   UNL     1      10.757   0.806  24.026  0.00  0.00    -0.289 N 
ATOM     10  H   UNL     1      11.588   1.090  23.524  0.00  0.00    +0.255 HD
ATOM     11  H   UNL     1      10.947   0.687  25.017  0.00  0.00    +0.255 HD
ATOM     12  N   UNL     1      10.166  -0.233  22.165  0.00  0.00    -0.289 N 
ATOM     13  H   UNL     1      10.045   0.703  21.796  0.00  0.00    +0.255 HD
ATOM     14  H   UNL     1       9.587  -0.897  21.669  0.00  0.00    +0.255 HD
ENDBRANCH   2   7
BRANCH   1  17
ATOM     15  C   UNL     1       6.911   1.846  24.601  0.00  0.00    +0.109 C 
ATOM     16  C   UNL     1       6.982   0.648  23.699  0.00  0.00    +0.210 C 
ATOM     17  N   UNL     1       7.122  -0.542  24.362  0.00  0.00    -0.305 N 
ATOM     18  H   UNL     1       7.269  -0.556  25.371  0.00  0.00    +0.149 HD
ATOM     19  O   UNL     1       6.900   0.728  22.475  0.00  0.00    -0.276 OA
ENDBRANCH   1  17
BRANCH   4  20
ATOM     20  C   UNL     1       8.474  -5.410  25.958  0.00  0.00    +0.372 C 
ATOM     21  O   UNL     1       7.781  -5.913  26.825  0.00  0.00    -0.242 OA
BRANCH  20  22
ATOM     22  O   UNL     1       9.705  -5.848  25.618  0.00  0.00    -0.475 OA
ATOM     23  H   UNL     1      10.188  -6.202  26.395  0.00  0.00    +0.296 HD
ENDBRANCH  20  22
ENDBRANCH   4  20
BRANCH   6  24
ATOM     24  C   UNL     1       5.460  -3.449  23.002  0.00  0.00    +0.187 C 
BRANCH  24  25
ATOM     25  O   UNL     1       4.551  -4.462  23.435  0.00  0.00    -0.385 OA
ATOM     26  H   UNL     1       4.627  -4.574  24.413  0.00  0.00    +0.210 HD
ENDBRANCH  24  25
BRANCH  24  27
ATOM     27  C   UNL     1       6.337  -3.991  21.850  0.00  0.00    +0.172 C 
BRANCH  27  28
ATOM     28  O   UNL     1       5.688  -3.833  20.571  0.00  0.00    -0.387 OA
ATOM     29  H   UNL     1       6.389  -3.743  19.899  0.00  0.00    +0.210 HD
ENDBRANCH  27  28
BRANCH  27  30
ATOM     30  C   UNL     1       6.677  -5.478  22.024  0.00  0.00    +0.189 C 
BRANCH  30  31
ATOM     31  O   UNL     1       5.648  -6.276  21.435  0.00  0.00    -0.392 OA
ATOM     32  H   UNL     1       4.908  -5.668  21.236  0.00  0.00    +0.210 HD
ENDBRANCH  30  31
ENDBRANCH  27  30
ENDBRANCH  24  27
ENDBRANCH   6  24
TORSDOF 10
ENDMDL
MODEL 8
REMARK VINA RESULT:      -5.3      3.159      5.373
REMARK  Name = 
REMARK  11 active torsions:
REMARK  status: ('A' for Active; 'I' for Inactive)
REMARK    1  A    between atoms: C_1  and  C_2
REMARK    2  A    between atoms: N_4  and  C_5
REMARK    3  A    between atoms: C_6  and  C_19
REMARK    4  A    between atoms: C_9  and  C_16
REMARK    5  A    between atoms: C_11  and  N_12
REMARK    6  A    between atoms: C_16  and  O_18
REMARK    7  A    between atoms: C_19  and  C_20
REMARK    8  A    between atoms: C_19  and  O_24
REMARK    9  A    between atoms: C_20  and  C_21
REMARK   10  A    between atoms: C_20  and  O_23
REMARK   11  A    between atoms: C_21  and  O_22
REMARK                            x       y       z     vdW  Elec       q    Type
REMARK                         _______ _______ _______ _____ _____    ______ ____
ROOT
ATOM      1  C   UNL     1       8.147  -1.949  24.174  0.00  0.00    +0.160 C 
ATOM      2  C   UNL     1       7.779  -1.120  25.441  0.00  0.00    +0.238 C 
ATOM      3  C   UNL     1       6.402  -1.349  25.945  0.00  0.00    +0.071 C 
ATOM      4  C   UNL     1       5.600  -2.311  25.483  0.00  0.00    +0.204 C 
ATOM      5  O   UNL     1       5.923  -3.176  24.482  0.00  0.00    -0.477 OA
ATOM      6  C   UNL     1       7.206  -3.143  23.856  0.00  0.00    +0.229 C 
ENDROOT
BRANCH   2   7
ATOM      7  N   UNL     1       7.905   0.315  25.132  0.00  0.00    -0.104 NA
ATOM      8  C   UNL     1       9.038   0.892  25.237  0.00  0.00    +0.377 C 
ATOM      9  N   UNL     1       9.163   2.172  24.819  0.00  0.00    -0.289 N 
ATOM     10  H   UNL     1       9.768   2.737  25.401  0.00  0.00    +0.255 HD
ATOM     11  H   UNL     1       8.254   2.608  24.699  0.00  0.00    +0.255 HD
ATOM     12  N   UNL     1      10.231   0.427  25.658  0.00  0.00    -0.289 N 
ATOM     13  H   UNL     1      11.016   0.768  25.116  0.00  0.00    +0.255 HD
ATOM     14  H   UNL     1      10.307  -0.568  25.822  0.00  0.00    +0.255 HD
ENDBRANCH   2   7
BRANCH   1  17
ATOM     15  C   UNL     1       9.370   0.022  21.142  0.00  0.00    +0.109 C 
ATOM     16  C   UNL     1       9.399  -1.044  22.198  0.00  0.00    +0.210 C 
ATOM     17  N   UNL     1       8.281  -1.077  22.989  0.00  0.00    -0.305 N 
ATOM     18  H   UNL     1       7.566  -0.356  22.901  0.00  0.00    +0.149 HD
ATOM     19  O   UNL     1      10.335  -1.829  22.328  0.00  0.00    -0.276 OA
ENDBRANCH   1  17
BRANCH   4  20
ATOM     20  C   UNL     1       4.254  -2.512  26.119  0.00  0.00    +0.372 C 
ATOM     21  O   UNL     1       3.363  -1.683  26.159  0.00  0.00    -0.242 OA
BRANCH  20  22
ATOM     22  O   UNL     1       4.184  -3.733  26.691  0.00  0.00    -0.475 OA
ATOM     23  H   UNL     1       5.051  -4.010  27.056  0.00  0.00    +0.296 HD
ENDBRANCH  20  22
ENDBRANCH   4  20
BRANCH   6  24
ATOM     24  C   UNL     1       7.915  -4.511  24.052  0.00  0.00    +0.187 C 
BRANCH  24  25
ATOM     25  O   UNL     1       6.999  -5.555  24.384  0.00  0.00    -0.385 OA
ATOM     26  H   UNL     1       6.963  -5.660  25.365  0.00  0.00    +0.210 HD
ENDBRANCH  24  25
BRANCH  24  27
ATOM     27  C   UNL     1       9.032  -4.437  25.120  0.00  0.00    +0.172 C 
BRANCH  27  28
ATOM     28  O   UNL     1      10.028  -5.460  24.915  0.00  0.00    -0.387 OA
ATOM     29  H   UNL     1       9.850  -6.172  25.556  0.00  0.00    +0.210 HD
ENDBRANCH  27  28
BRANCH  27  30
ATOM     30  C   UNL     1       8.487  -4.592  26.546  0.00  0.00    +0.189 C 
BRANCH  30  31
ATOM     31  O   UNL     1       8.296  -5.978  26.838  0.00  0.00    -0.392 OA
ATOM     32  H   UNL     1       7.811  -6.017  27.686  0.00  0.00    +0.210 HD
ENDBRANCH  30  31
ENDBRANCH  27  30
ENDBRANCH  24  27
ENDBRANCH   6  24
TORSDOF 10
ENDMDL
MODEL 9
REMARK VINA RESULT:      -5.3      2.379      2.986
REMARK  Name = 
REMARK  11 active torsions:
REMARK  status: ('A' for Active; 'I' for Inactive)
REMARK    1  A    between atoms: C_1  and  C_2
REMARK    2  A    between atoms: N_4  and  C_5
REMARK    3  A    between atoms: C_6  and  C_19
REMARK    4  A    between atoms: C_9  and  C_16
REMARK    5  A    between atoms: C_11  and  N_12
REMARK    6  A    between atoms: C_16  and  O_18
REMARK    7  A    between atoms: C_19  and  C_20
REMARK    8  A    between atoms: C_19  and  O_24
REMARK    9  A    between atoms: C_20  and  C_21
REMARK   10  A    between atoms: C_20  and  O_23
REMARK   11  A    between atoms: C_21  and  O_22
REMARK                            x       y       z     vdW  Elec       q    Type
REMARK                         _______ _______ _______ _____ _____    ______ ____
ROOT
ATOM      1  C   UNL     1       7.197  -1.159  23.936  0.00  0.00    +0.160 C 
ATOM      2  C   UNL     1       6.433  -2.345  24.598  0.00  0.00    +0.238 C 
ATOM      3  C   UNL     1       6.252  -3.526  23.717  0.00  0.00    +0.071 C 
ATOM      4  C   UNL     1       6.845  -3.655  22.528  0.00  0.00    +0.204 C 
ATOM      5  O   UNL     1       7.656  -2.719  21.960  0.00  0.00    -0.477 OA
ATOM      6  C   UNL     1       7.977  -1.504  22.637  0.00  0.00    +0.229 C 
ENDROOT
BRANCH   2   7
ATOM      7  N   UNL     1       5.094  -1.888  25.007  0.00  0.00    -0.104 NA
ATOM      8  C   UNL     1       4.659  -2.156  26.177  0.00  0.00    +0.377 C 
ATOM      9  N   UNL     1       3.489  -1.613  26.581  0.00  0.00    -0.289 N 
ATOM     10  H   UNL     1       2.921  -2.232  27.145  0.00  0.00    +0.255 HD
ATOM     11  H   UNL     1       2.963  -1.247  25.793  0.00  0.00    +0.255 HD
ATOM     12  N   UNL     1       5.202  -2.877  27.177  0.00  0.00    -0.289 N 
ATOM     13  H   UNL     1       5.055  -2.475  28.096  0.00  0.00    +0.255 HD
ATOM     14  H   UNL     1       6.160  -3.180  27.062  0.00  0.00    +0.255 HD
ENDBRANCH   2   7
BRANCH   1  17
ATOM     15  C   UNL     1       5.514   2.264  23.790  0.00  0.00    +0.109 C 
ATOM     16  C   UNL     1       6.638   1.286  23.969  0.00  0.00    +0.210 C 
ATOM     17  N   UNL     1       6.296  -0.012  23.698  0.00  0.00    -0.305 N 
ATOM     18  H   UNL     1       5.327  -0.259  23.499  0.00  0.00    +0.149 HD
ATOM     19  O   UNL     1       7.769   1.624  24.309  0.00  0.00    -0.276 OA
ENDBRANCH   1  17
BRANCH   4  20
ATOM     20  C   UNL     1       6.662  -4.927  21.752  0.00  0.00    +0.372 C 
ATOM     21  O   UNL     1       5.933  -5.064  20.785  0.00  0.00    -0.242 OA
BRANCH  20  22
ATOM     22  O   UNL     1       7.383  -5.923  22.309  0.00  0.00    -0.475 OA
ATOM     23  H   UNL     1       7.832  -5.628  23.129  0.00  0.00    +0.296 HD
ENDBRANCH  20  22
ENDBRANCH   4  20
BRANCH   6  24
ATOM     24  C   UNL     1       9.515  -1.414  22.841  0.00  0.00    +0.187 C 
BRANCH  24  25
ATOM     25  O   UNL     1       9.892  -1.580  24.208  0.00  0.00    -0.385 OA
ATOM     26  H   UNL     1       9.979  -0.693  24.634  0.00  0.00    +0.210 HD
ENDBRANCH  24  25
BRANCH  24  27
ATOM     27  C   UNL     1      10.096  -0.088  22.295  0.00  0.00    +0.172 C 
BRANCH  27  28
ATOM     28  O   UNL     1      10.385   0.840  23.360  0.00  0.00    -0.387 OA
ATOM     29  H   UNL     1      10.799   1.625  22.956  0.00  0.00    +0.210 HD
ENDBRANCH  27  28
BRANCH  27  30
ATOM     30  C   UNL     1       9.142   0.606  21.313  0.00  0.00    +0.189 C 
BRANCH  30  31
ATOM     31  O   UNL     1       9.231   2.023  21.479  0.00  0.00    -0.392 OA
ATOM     32  H   UNL     1      10.184   2.232  21.545  0.00  0.00    +0.210 HD
ENDBRANCH  30  31
ENDBRANCH  27  30
ENDBRANCH  24  27
ENDBRANCH   6  24
TORSDOF 10
ENDMDL
