MODEL 1
REMARK VINA RESULT:      -5.9      0.000      0.000
REMARK  Name = 
REMARK  6 active torsions:
REMARK  status: ('A' for Active; 'I' for Inactive)
REMARK    1  A    between atoms: C_3  and  C_19
REMARK    2  A    between atoms: N_5  and  C1*_6
REMARK    3  A    between atoms: C2*_8  and  O2*_18
REMARK    4  A    between atoms: C3*_10  and  O3*_17
REMARK    5  A    between atoms: C4*_12  and  C5*_15
REMARK    6  A    between atoms: C5*_15  and  O5*_16
REMARK                            x       y       z     vdW  Elec       q    Type
REMARK                         _______ _______ _______ _____ _____    ______ ____
ROOT
ATOM      1  C1* UNL     1       8.389  -1.644  22.512  0.00  0.00    +0.270 C 
ATOM      2  O4* UNL     1       7.682  -0.385  22.582  0.00  0.00    -0.344 OA
ATOM      3  C4* UNL     1       8.630   0.659  22.929  0.00  0.00    +0.177 C 
ATOM      4  C3* UNL     1      10.009   0.013  23.065  0.00  0.00    +0.178 C 
ATOM      5  C2* UNL     1       9.858  -1.270  22.273  0.00  0.00    +0.196 C 
ENDROOT
BRANCH   1   7
ATOM      6  C   UNL     1       7.169  -2.160  24.666  0.00  0.00    +0.223 A 
ATOM      7  N   UNL     1       8.109  -2.413  23.715  0.00  0.00    -0.220 N 
ATOM      8  N   UNL     1       8.728  -3.591  23.949  0.00  0.00    -0.142 NA
ATOM      9  C   UNL     1       8.164  -3.983  25.108  0.00  0.00    +0.236 A 
ATOM     10  N   UNL     1       7.185  -3.114  25.569  0.00  0.00    -0.211 NA
BRANCH   9  11
ATOM     11  C   UNL     1       8.545  -5.208  25.838  0.00  0.00    +0.281 C 
ATOM     12  N   UNL     1       9.820  -5.644  25.575  0.00  0.00    -0.323 N 
ATOM     13  H   UNL     1      10.139  -6.503  25.995  0.00  0.00    +0.145 HD
ATOM     14  H   UNL     1      10.388  -5.150  24.897  0.00  0.00    +0.145 HD
ATOM     15  O   UNL     1       7.815  -5.825  26.608  0.00  0.00    -0.267 OA
ENDBRANCH   9  11
ENDBRANCH   1   7
BRANCH   4  16
ATOM     16  O3* UNL     1      10.279  -0.278  24.437  0.00  0.00    -0.386 OA
ATOM     17  H3* UNL     1      10.792  -1.110  24.439  0.00  0.00    +0.210 HD
ENDBRANCH   4  16
BRANCH   5  18
ATOM     18  O2* UNL     1      10.866  -2.220  22.598  0.00  0.00    -0.385 OA
ATOM     19  H2* UNL     1      10.723  -2.506  23.531  0.00  0.00    +0.210 HD
ENDBRANCH   5  18
BRANCH   3  20
ATOM     20  C5* UNL     1       8.605   1.737  21.838  0.00  0.00    +0.190 C 
BRANCH  20  21
ATOM     21  O5* UNL     1       9.916   2.188  21.505  0.00  0.00    -0.392 OA
ATOM     22  H5* UNL     1       9.840   3.034  21.029  0.00  0.00    +0.210 HD
ENDBRANCH  20  21
ENDBRANCH   3  20
TORSDOF 6
ENDMDL
MODEL 2
REMARK VINA RESULT:      -5.8      1.336      1.849
REMARK  Name = 
REMARK  6 active torsions:
REMARK  status: ('A' for Active; 'I' for Inactive)
REMARK    1  A    between atoms: C_3  and  C_19
REMARK    2  A    between atoms: N_5  and  C1*_6
REMARK    3  A    between atoms: C2*_8  and  O2*_18
REMARK    4  A    between atoms: C3*_10  and  O3*_17
REMARK    5  A    between atoms: C4*_12  and  C5*_15
REMARK    6  A    between atoms: C5*_15  and  O5*_16
REMARK                            x       y       z     vdW  Elec       q    Type
REMARK                         _______ _______ _______ _____ _____    ______ ____
ROOT
ATOM      1  C1* UNL     1       9.769  -0.765  23.258  0.00  0.00    +0.270 C 
ATOM      2  O4* UNL     1       9.087  -0.201  22.115  0.00  0.00    -0.344 OA
ATOM      3  C4* UNL     1       8.165   0.819  22.582  0.00  0.00    +0.177 C 
ATOM      4  C3* UNL     1       8.294   0.905  24.103  0.00  0.00    +0.178 C 
ATOM      5  C2* UNL     1       9.660   0.299  24.359  0.00  0.00    +0.196 C 
ENDROOT
BRANCH   1   7
ATOM      6  C   UNL     1       8.256  -2.749  22.847  0.00  0.00    +0.223 A 
ATOM      7  N   UNL     1       9.191  -2.065  23.562  0.00  0.00    -0.220 N 
ATOM      8  N   UNL     1       9.649  -2.807  24.594  0.00  0.00    -0.142 NA
ATOM      9  C   UNL     1       8.898  -3.922  24.497  0.00  0.00    +0.236 A 
ATOM     10  N   UNL     1       8.030  -3.912  23.413  0.00  0.00    -0.211 NA
BRANCH   9  11
ATOM     11  C   UNL     1       8.968  -5.049  25.446  0.00  0.00    +0.281 C 
ATOM     12  N   UNL     1      10.226  -5.575  25.599  0.00  0.00    -0.323 N 
ATOM     13  H   UNL     1      10.350  -6.382  26.192  0.00  0.00    +0.145 HD
ATOM     14  H   UNL     1      10.993  -5.207  25.049  0.00  0.00    +0.145 HD
ATOM     15  O   UNL     1       8.011  -5.518  26.055  0.00  0.00    -0.267 OA
ENDBRANCH   9  11
ENDBRANCH   1   7
BRANCH   4  16
ATOM     16  O3* UNL     1       7.277   0.120  24.726  0.00  0.00    -0.386 OA
ATOM     17  H3* UNL     1       7.728  -0.672  25.080  0.00  0.00    +0.210 HD
ENDBRANCH   4  16
BRANCH   5  18
ATOM     18  O2* UNL     1       9.821  -0.101  25.714  0.00  0.00    -0.385 OA
ATOM     19  H2* UNL     1      10.617  -0.681  25.765  0.00  0.00    +0.210 HD
ENDBRANCH   5  18
BRANCH   3  20
ATOM     20  C5* UNL     1       8.506   2.149  21.900  0.00  0.00    +0.190 C 
BRANCH  20  21
ATOM     21  O5* UNL     1       9.853   2.181  21.435  0.00  0.00    -0.392 OA
ATOM     22  H5* UNL     1      10.224   3.061  21.623  0.00  0.00    +0.210 HD
ENDBRANCH  20  21
ENDBRANCH   3  20
TORSDOF 6
ENDMDL
MODEL 3
REMARK VINA RESULT:      -5.7      2.415      3.504
REMARK  Name = 
REMARK  6 active torsions:
REMARK  status: ('A' for Active; 'I' for Inactive)
REMARK    1  A    between atoms: C_3  and  C_19
REMARK    2  A    between atoms: N_5  and  C1*_6
REMARK    3  A    between atoms: C2*_8  and  O2*_18
REMARK    4  A    between atoms: C3*_10  and  O3*_17
REMARK    5  A    between atoms: C4*_12  and  C5*_15
REMARK    6  A    between atoms: C5*_15  and  O5*_16
REMARK                            x       y       z     vdW  Elec       q    Type
REMARK                         _______ _______ _______ _____ _____    ______ ____
ROOT
ATOM      1  C1* UNL     1       8.145  -1.844  24.413  0.00  0.00    +0.270 C 
ATOM      2  O4* UNL     1       9.554  -1.627  24.658  0.00  0.00    -0.344 OA
ATOM      3  C4* UNL     1      10.075  -0.756  23.620  0.00  0.00    +0.177 C 
ATOM      4  C3* UNL     1       8.920  -0.397  22.685  0.00  0.00    +0.178 C 
ATOM      5  C2* UNL     1       7.699  -0.659  23.545  0.00  0.00    +0.196 C 
ENDROOT
BRANCH   1   7
ATOM      6  C   UNL     1       8.579  -4.325  24.197  0.00  0.00    +0.223 A 
ATOM      7  N   UNL     1       7.962  -3.167  23.837  0.00  0.00    -0.220 N 
ATOM      8  N   UNL     1       7.012  -3.396  22.904  0.00  0.00    -0.142 NA
ATOM      9  C   UNL     1       7.144  -4.718  22.682  0.00  0.00    +0.236 A 
ATOM     10  N   UNL     1       8.107  -5.320  23.481  0.00  0.00    -0.211 NA
BRANCH   9  11
ATOM     11  C   UNL     1       6.360  -5.469  21.683  0.00  0.00    +0.281 C 
ATOM     12  N   UNL     1       6.139  -6.782  22.018  0.00  0.00    -0.323 N 
ATOM     13  H   UNL     1       5.654  -7.378  21.364  0.00  0.00    +0.145 HD
ATOM     14  H   UNL     1       6.540  -7.157  22.869  0.00  0.00    +0.145 HD
ATOM     15  O   UNL     1       5.937  -5.009  20.627  0.00  0.00    -0.267 OA
ENDBRANCH   9  11
ENDBRANCH   1   7
BRANCH   4  16
ATOM     16  O3* UNL     1       8.923  -1.261  21.550  0.00  0.00    -0.386 OA
ATOM     17  H3* UNL     1       9.605  -0.908  20.943  0.00  0.00    +0.210 HD
ENDBRANCH   4  16
BRANCH   5  18
ATOM     18  O2* UNL     1       6.516  -0.790  22.766  0.00  0.00    -0.385 OA
ATOM     19  H2* UNL     1       5.752  -0.519  23.329  0.00  0.00    +0.210 HD
ENDBRANCH   5  18
BRANCH   3  20
ATOM     20  C5* UNL     1      10.692   0.486  24.275  0.00  0.00    +0.190 C 
BRANCH  20  21
ATOM     21  O5* UNL     1      10.406   0.551  25.670  0.00  0.00    -0.392 OA
ATOM     22  H5* UNL     1      10.909   1.290  26.054  0.00  0.00    +0.210 HD
ENDBRANCH  20  21
ENDBRANCH   3  20
TORSDOF 6
ENDMDL
MODEL 4
REMARK VINA RESULT:      -5.5      2.232      5.837
REMARK  Name = 
REMARK  6 active torsions:
REMARK  status: ('A' for Active; 'I' for Inactive)
REMARK    1  A    between atoms: C_3  and  C_19
REMARK    2  A    between atoms: N_5  and  C1*_6
REMARK    3  A    between atoms: C2*_8  and  O2*_18
REMARK    4  A    between atoms: C3*_10  and  O3*_17
REMARK    5  A    between atoms: C4*_12  and  C5*_15
REMARK    6  A    between atoms: C5*_15  and  O5*_16
REMARK                            x       y       z     vdW  Elec       q    Type
REMARK                         _______ _______ _______ _____ _____    ______ ____
ROOT
ATOM      1  C1* UNL     1       8.119  -3.229  23.076  0.00  0.00    +0.270 C 
ATOM      2  O4* UNL     1       8.905  -3.996  24.016  0.00  0.00    -0.344 OA
ATOM      3  C4* UNL     1       8.302  -3.875  25.331  0.00  0.00    +0.177 C 
ATOM      4  C3* UNL     1       7.058  -2.996  25.197  0.00  0.00    +0.178 C 
ATOM      5  C2* UNL     1       6.731  -3.100  23.720  0.00  0.00    +0.196 C 
ENDROOT
BRANCH   1   7
ATOM      6  C   UNL     1      10.151  -1.750  22.802  0.00  0.00    +0.223 A 
ATOM      7  N   UNL     1       8.810  -1.983  22.784  0.00  0.00    -0.220 N 
ATOM      8  N   UNL     1       8.138  -0.904  22.328  0.00  0.00    -0.142 NA
ATOM      9  C   UNL     1       9.128  -0.009  22.146  0.00  0.00    +0.236 A 
ATOM     10  N   UNL     1      10.390  -0.515  22.426  0.00  0.00    -0.211 NA
BRANCH   9  11
ATOM     11  C   UNL     1       8.912   1.383  21.703  0.00  0.00    +0.281 C 
ATOM     12  N   UNL     1      10.056   2.140  21.660  0.00  0.00    -0.323 N 
ATOM     13  H   UNL     1       9.987   3.117  21.416  0.00  0.00    +0.145 HD
ATOM     14  H   UNL     1      10.936   1.737  21.959  0.00  0.00    +0.145 HD
ATOM     15  O   UNL     1       7.825   1.867  21.406  0.00  0.00    -0.267 OA
ENDBRANCH   9  11
ENDBRANCH   1   7
BRANCH   4  16
ATOM     16  O3* UNL     1       7.373  -1.648  25.543  0.00  0.00    -0.386 OA
ATOM     17  H3* UNL     1       8.333  -1.546  25.385  0.00  0.00    +0.210 HD
ENDBRANCH   4  16
BRANCH   5  18
ATOM     18  O2* UNL     1       5.872  -2.052  23.288  0.00  0.00    -0.385 OA
ATOM     19  H2* UNL     1       6.401  -1.219  23.265  0.00  0.00    +0.210 HD
ENDBRANCH   5  18
BRANCH   3  20
ATOM     20  C5* UNL     1       7.961  -5.276  25.854  0.00  0.00    +0.190 C 
BRANCH  20  21
ATOM     21  O5* UNL     1       8.207  -5.398  27.253  0.00  0.00    -0.392 OA
ATOM     22  H5* UNL     1       8.530  -4.541  27.586  0.00  0.00    +0.210 HD
ENDBRANCH  20  21
ENDBRANCH   3  20
TORSDOF 6
ENDMDL
MODEL 5
REMARK VINA RESULT:      -5.5      2.464      5.780
REMARK  Name = 
REMARK  6 active torsions:
REMARK  status: ('A' for Active; 'I' for Inactive)
REMARK    1  A    between atoms: C_3  and  C_19
REMARK    2  A    between atoms: N_5  and  C1*_6
REMARK    3  A    between atoms: C2*_8  and  O2*_18
REMARK    4  A    between atoms: C3*_10  and  O3*_17
REMARK    5  A    between atoms: C4*_12  and  C5*_15
REMARK    6  A    between atoms: C5*_15  and  O5*_16
REMARK                            x       y       z     vdW  Elec       q    Type
REMARK                         _______ _______ _______ _____ _____    ______ ____
ROOT
ATOM      1  C1* UNL     1       9.594  -2.586  23.467  0.00  0.00    +0.270 C 
ATOM      2  O4* UNL     1       9.916  -3.357  24.646  0.00  0.00    -0.344 OA
ATOM      3  C4* UNL     1       8.678  -3.769  25.283  0.00  0.00    +0.177 C 
ATOM      4  C3* UNL     1       7.518  -3.236  24.440  0.00  0.00    +0.178 C 
ATOM      5  C2* UNL     1       8.166  -3.002  23.089  0.00  0.00    +0.196 C 
ENDROOT
BRANCH   1   7
ATOM      6  C   UNL     1      10.082  -0.600  24.954  0.00  0.00    +0.223 A 
ATOM      7  N   UNL     1       9.797  -1.174  23.753  0.00  0.00    -0.220 N 
ATOM      8  N   UNL     1       9.834  -0.259  22.759  0.00  0.00    -0.142 NA
ATOM      9  C   UNL     1      10.083   0.881  23.432  0.00  0.00    +0.236 A 
ATOM     10  N   UNL     1      10.250   0.693  24.797  0.00  0.00    -0.211 NA
BRANCH   9  11
ATOM     11  C   UNL     1      10.162   2.212  22.799  0.00  0.00    +0.281 C 
ATOM     12  N   UNL     1       9.760   2.233  21.486  0.00  0.00    -0.323 N 
ATOM     13  H   UNL     1       9.832   3.094  20.966  0.00  0.00    +0.145 HD
ATOM     14  H   UNL     1       9.484   1.370  21.033  0.00  0.00    +0.145 HD
ATOM     15  O   UNL     1      10.560   3.233  23.351  0.00  0.00    -0.267 OA
ENDBRANCH   9  11
ENDBRANCH   1   7
BRANCH   4  16
ATOM     16  O3* UNL     1       7.044  -2.005  24.984  0.00  0.00    -0.386 OA
ATOM     17  H3* UNL     1       6.859  -2.181  25.929  0.00  0.00    +0.210 HD
ENDBRANCH   4  16
BRANCH   5  18
ATOM     18  O2* UNL     1       7.394  -2.131  22.271  0.00  0.00    -0.385 OA
ATOM     19  H2* UNL     1       6.623  -1.820  22.804  0.00  0.00    +0.210 HD
ENDBRANCH   5  18
BRANCH   3  20
ATOM     20  C5* UNL     1       8.656  -5.299  25.388  0.00  0.00    +0.190 C 
BRANCH  20  21
ATOM     21  O5* UNL     1       9.953  -5.864  25.211  0.00  0.00    -0.392 OA
ATOM     22  H5* UNL     1      10.567  -5.428  25.827  0.00  0.00    +0.210 HD
ENDBRANCH  20  21
ENDBRANCH   3  20
TORSDOF 6
ENDMDL
MODEL 6
REMARK VINA RESULT:      -5.4      4.337      7.002
REMARK  Name = 
REMARK  6 active torsions:
REMARK  status: ('A' for Active; 'I' for Inactive)
REMARK    1  A    between atoms: C_3  and  C_19
REMARK    2  A    between atoms: N_5  and  C1*_6
REMARK    3  A    between atoms: C2*_8  and  O2*_18
REMARK    4  A    between atoms: C3*_10  and  O3*_17
REMARK    5  A    between atoms: C4*_12  and  C5*_15
REMARK    6  A    between atoms: C5*_15  and  O5*_16
REMARK                            x       y       z     vdW  Elec       q    Type
REMARK                         _______ _______ _______ _____ _____    ______ ____
ROOT
ATOM      1  C1* UNL     1       9.358   2.140  24.311  0.00  0.00    +0.270 C 
ATOM      2  O4* UNL     1       8.877   0.784  24.169  0.00  0.00    -0.344 OA
ATOM      3  C4* UNL     1       9.276   0.285  22.865  0.00  0.00    +0.177 C 
ATOM      4  C3* UNL     1      10.067   1.390  22.163  0.00  0.00    +0.178 C 
ATOM      5  C2* UNL     1      10.521   2.262  23.317  0.00  0.00    +0.196 C 
ENDROOT
BRANCH   1   7
ATOM      6  C   UNL     1       7.127   3.185  24.878  0.00  0.00    +0.223 A 
ATOM      7  N   UNL     1       8.248   3.060  24.118  0.00  0.00    -0.220 N 
ATOM      8  N   UNL     1       8.293   4.015  23.163  0.00  0.00    -0.142 NA
ATOM      9  C   UNL     1       7.124   4.658  23.349  0.00  0.00    +0.236 A 
ATOM     10  N   UNL     1       6.385   4.165  24.417  0.00  0.00    -0.211 NA
BRANCH   9  11
ATOM     11  C   UNL     1       6.651   5.772  22.505  0.00  0.00    +0.281 C 
ATOM     12  N   UNL     1       7.515   6.116  21.496  0.00  0.00    -0.323 N 
ATOM     13  H   UNL     1       7.289   6.902  20.905  0.00  0.00    +0.145 HD
ATOM     14  H   UNL     1       8.405   5.639  21.414  0.00  0.00    +0.145 HD
ATOM     15  O   UNL     1       5.595   6.378  22.663  0.00  0.00    -0.267 OA
ENDBRANCH   9  11
ENDBRANCH   1   7
BRANCH   4  16
ATOM     16  O3* UNL     1       9.210   2.125  21.291  0.00  0.00    -0.386 OA
ATOM     17  H3* UNL     1       9.491   3.060  21.361  0.00  0.00    +0.210 HD
ENDBRANCH   4  16
BRANCH   5  18
ATOM     18  O2* UNL     1      10.916   3.558  22.883  0.00  0.00    -0.385 OA
ATOM     19  H2* UNL     1      10.285   3.847  22.182  0.00  0.00    +0.210 HD
ENDBRANCH   5  18
BRANCH   3  20
ATOM     20  C5* UNL     1      10.111  -0.988  23.053  0.00  0.00    +0.190 C 
BRANCH  20  21
ATOM     21  O5* UNL     1      10.418  -1.613  21.809  0.00  0.00    -0.392 OA
ATOM     22  H5* UNL     1      10.893  -0.973  21.251  0.00  0.00    +0.210 HD
ENDBRANCH  20  21
ENDBRANCH   3  20
TORSDOF 6
ENDMDL
MODEL 7
REMARK VINA RESULT:      -5.4      2.893      3.805
REMARK  Name = 
REMARK  6 active torsions:
REMARK  status: ('A' for Active; 'I' for Inactive)
REMARK    1  A    between atoms: C_3  and  C_19
REMARK    2  A    between atoms: N_5  and  C1*_6
REMARK    3  A    between atoms: C2*_8  and  O2*_18
REMARK    4  A    between atoms: C3*_10  and  O3*_17
REMARK    5  A    between atoms: C4*_12  and  C5*_15
REMARK    6  A    between atoms: C5*_15  and  O5*_16
REMARK                            x       y       z     vdW  Elec       q    Type
REMARK                         _______ _______ _______ _____ _____    ______ ____
ROOT
ATOM      1  C1* UNL     1       8.110   0.538  23.826  0.00  0.00    +0.270 C 
ATOM      2  O4* UNL     1       9.534   0.745  23.969  0.00  0.00    -0.344 OA
ATOM      3  C4* UNL     1       9.979   1.644  22.918  0.00  0.00    +0.177 C 
ATOM      4  C3* UNL     1       8.757   2.031  22.085  0.00  0.00    +0.178 C 
ATOM      5  C2* UNL     1       7.604   1.748  23.028  0.00  0.00    +0.196 C 
ENDROOT
BRANCH   1   7
ATOM      6  C   UNL     1       8.800  -1.724  22.931  0.00  0.00    +0.223 A 
ATOM      7  N   UNL     1       7.878  -0.768  23.229  0.00  0.00    -0.220 N 
ATOM      8  N   UNL     1       6.624  -1.220  23.007  0.00  0.00    -0.142 NA
ATOM      9  C   UNL     1       6.850  -2.449  22.505  0.00  0.00    +0.236 A 
ATOM     10  N   UNL     1       8.196  -2.789  22.456  0.00  0.00    -0.211 NA
BRANCH   9  11
ATOM     11  C   UNL     1       5.786  -3.357  22.035  0.00  0.00    +0.281 C 
ATOM     12  N   UNL     1       4.909  -3.747  23.017  0.00  0.00    -0.323 N 
ATOM     13  H   UNL     1       4.182  -4.408  22.788  0.00  0.00    +0.145 HD
ATOM     14  H   UNL     1       5.055  -3.439  23.970  0.00  0.00    +0.145 HD
ATOM     15  O   UNL     1       5.665  -3.767  20.885  0.00  0.00    -0.267 OA
ENDBRANCH   9  11
ENDBRANCH   1   7
BRANCH   4  16
ATOM     16  O3* UNL     1       8.670   1.199  20.929  0.00  0.00    -0.386 OA
ATOM     17  H3* UNL     1       8.418   0.312  21.254  0.00  0.00    +0.210 HD
ENDBRANCH   4  16
BRANCH   5  18
ATOM     18  O2* UNL     1       6.365   1.641  22.338  0.00  0.00    -0.385 OA
ATOM     19  H2* UNL     1       5.834   2.447  22.543  0.00  0.00    +0.210 HD
ENDBRANCH   5  18
BRANCH   3  20
ATOM     20  C5* UNL     1      10.649   2.866  23.559  0.00  0.00    +0.190 C 
BRANCH  20  21
ATOM     21  O5* UNL     1      11.243   3.720  22.584  0.00  0.00    -0.392 OA
ATOM     22  H5* UNL     1      10.532   4.159  22.085  0.00  0.00    +0.210 HD
ENDBRANCH  20  21
ENDBRANCH   3  20
TORSDOF 6
ENDMDL
MODEL 8
REMARK VINA RESULT:      -5.3      1.985      5.704
REMARK  Name = 
REMARK  6 active torsions:
REMARK  status: ('A' for Active; 'I' for Inactive)
REMARK    1  A    between atoms: C_3  and  C_19
REMARK    2  A    between atoms: N_5  and  C1*_6
REMARK    3  A    between atoms: C2*_8  and  O2*_18
REMARK    4  A    between atoms: C3*_10  and  O3*_17
REMARK    5  A    between atoms: C4*_12  and  C5*_15
REMARK    6  A    between atoms: C5*_15  and  O5*_16
REMARK                            x       y       z     vdW  Elec       q    Type
REMARK                         _______ _______ _______ _____ _____    ______ ____
ROOT
ATOM      1  C1* UNL     1       8.579  -3.128  26.084  0.00  0.00    +0.270 C 
ATOM      2  O4* UNL     1       7.254  -3.405  26.592  0.00  0.00    -0.344 OA
ATOM      3  C4* UNL     1       6.762  -4.619  25.965  0.00  0.00    +0.177 C 
ATOM      4  C3* UNL     1       7.853  -5.136  25.027  0.00  0.00    +0.178 C 
ATOM      5  C2* UNL     1       9.105  -4.476  25.570  0.00  0.00    +0.196 C 
ENDROOT
BRANCH   1   7
ATOM      6  C   UNL     1       7.590  -1.043  25.052  0.00  0.00    +0.223 A 
ATOM      7  N   UNL     1       8.499  -2.055  25.106  0.00  0.00    -0.220 N 
ATOM      8  N   UNL     1       9.455  -1.896  24.165  0.00  0.00    -0.142 NA
ATOM      9  C   UNL     1       9.034  -0.794  23.515  0.00  0.00    +0.236 A 
ATOM     10  N   UNL     1       7.881  -0.240  24.054  0.00  0.00    -0.211 NA
BRANCH   9  11
ATOM     11  C   UNL     1       9.713  -0.220  22.337  0.00  0.00    +0.281 C 
ATOM     12  N   UNL     1       9.760  -1.063  21.253  0.00  0.00    -0.323 N 
ATOM     13  H   UNL     1      10.252  -0.765  20.424  0.00  0.00    +0.145 HD
ATOM     14  H   UNL     1       9.383  -1.999  21.330  0.00  0.00    +0.145 HD
ATOM     15  O   UNL     1      10.218   0.897  22.288  0.00  0.00    -0.267 OA
ENDBRANCH   9  11
ENDBRANCH   1   7
BRANCH   4  16
ATOM     16  O3* UNL     1       7.598  -4.697  23.693  0.00  0.00    -0.386 OA
ATOM     17  H3* UNL     1       8.473  -4.627  23.260  0.00  0.00    +0.210 HD
ENDBRANCH   4  16
BRANCH   5  18
ATOM     18  O2* UNL     1      10.165  -4.479  24.622  0.00  0.00    -0.385 OA
ATOM     19  H2* UNL     1      10.464  -5.412  24.506  0.00  0.00    +0.210 HD
ENDBRANCH   5  18
BRANCH   3  20
ATOM     20  C5* UNL     1       6.414  -5.637  27.057  0.00  0.00    +0.190 C 
BRANCH  20  21
ATOM     21  O5* UNL     1       7.545  -5.967  27.860  0.00  0.00    -0.392 OA
ATOM     22  H5* UNL     1       7.916  -6.808  27.540  0.00  0.00    +0.210 HD
ENDBRANCH  20  21
ENDBRANCH   3  20
TORSDOF 6
ENDMDL
MODEL 9
REMARK VINA RESULT:      -5.3      2.867      5.637
REMARK  Name = 
REMARK  6 active torsions:
REMARK  status: ('A' for Active; 'I' for Inactive)
REMARK    1  A    between atoms: C_3  and  C_19
REMARK    2  A    between atoms: N_5  and  C1*_6
REMARK    3  A    between atoms: C2*_8  and  O2*_18
REMARK    4  A    between atoms: C3*_10  and  O3*_17
REMARK    5  A    between atoms: C4*_12  and  C5*_15
REMARK    6  A    between atoms: C5*_15  and  O5*_16
REMARK                            x       y       z     vdW  Elec       q    Type
REMARK                         _______ _______ _______ _____ _____    ______ ____
ROOT
ATOM      1  C1* UNL     1       6.948  -2.230  22.983  0.00  0.00    +0.270 C 
ATOM      2  O4* UNL     1       6.849  -3.312  22.028  0.00  0.00    -0.344 OA
ATOM      3  C4* UNL     1       7.347  -4.525  22.652  0.00  0.00    +0.177 C 
ATOM      4  C3* UNL     1       7.763  -4.180  24.082  0.00  0.00    +0.178 C 
ATOM      5  C2* UNL     1       6.988  -2.908  24.359  0.00  0.00    +0.196 C 
ENDROOT
BRANCH   1   7
ATOM      6  C   UNL     1       9.038  -1.633  21.692  0.00  0.00    +0.223 A 
ATOM      7  N   UNL     1       8.092  -1.399  22.642  0.00  0.00    -0.220 N 
ATOM      8  N   UNL     1       8.261  -0.182  23.203  0.00  0.00    -0.142 NA
ATOM      9  C   UNL     1       9.381   0.257  22.596  0.00  0.00    +0.236 A 
ATOM     10  N   UNL     1       9.878  -0.624  21.645  0.00  0.00    -0.211 NA
BRANCH   9  11
ATOM     11  C   UNL     1      10.037   1.542  22.905  0.00  0.00    +0.281 C 
ATOM     12  N   UNL     1      10.208   2.360  21.816  0.00  0.00    -0.323 N 
ATOM     13  H   UNL     1      10.695   3.236  21.934  0.00  0.00    +0.145 HD
ATOM     14  H   UNL     1       9.926   2.037  20.898  0.00  0.00    +0.145 HD
ATOM     15  O   UNL     1      10.427   1.886  24.017  0.00  0.00    -0.267 OA
ENDBRANCH   9  11
ENDBRANCH   1   7
BRANCH   4  16
ATOM     16  O3* UNL     1       9.167  -3.929  24.136  0.00  0.00    -0.386 OA
ATOM     17  H3* UNL     1       9.593  -4.685  23.683  0.00  0.00    +0.210 HD
ENDBRANCH   4  16
BRANCH   5  18
ATOM     18  O2* UNL     1       7.524  -2.185  25.461  0.00  0.00    -0.385 OA
ATOM     19  H2* UNL     1       7.840  -2.840  26.127  0.00  0.00    +0.210 HD
ENDBRANCH   5  18
BRANCH   3  20
ATOM     20  C5* UNL     1       6.246  -5.592  22.615  0.00  0.00    +0.190 C 
BRANCH  20  21
ATOM     21  O5* UNL     1       5.013  -5.070  22.126  0.00  0.00    -0.392 OA
ATOM     22  H5* UNL     1       4.974  -4.121  22.339  0.00  0.00    +0.210 HD
ENDBRANCH  20  21
ENDBRANCH   3  20
TORSDOF 6
ENDMDL
