MODEL 1
REMARK VINA RESULT:      -5.9      0.000      0.000
REMARK  Name = 
REMARK  5 active torsions:
REMARK  status: ('A' for Active; 'I' for Inactive)
REMARK    1  A    between atoms: C1*_2  and  N_11
REMARK    2  A    between atoms: C4*_5  and  C5*_9
REMARK    3  A    between atoms: C3*_7  and  O3*_8
REMARK    4  A    between atoms: C5*_9  and  O5*_10
REMARK    5  A    between atoms: C_13  and  C_19
REMARK                            x       y       z     vdW  Elec       q    Type
REMARK                         _______ _______ _______ _____ _____    ______ ____
ROOT
ATOM      1  N   UNL     1       8.881  -1.202  24.856  0.00  0.00    -0.273 N 
ATOM      2  C   UNL     1       8.680  -1.484  26.198  0.00  0.00    +0.331 A 
ATOM      3  O   UNL     1       8.936  -0.700  27.109  0.00  0.00    -0.246 OA
ATOM      4  N   UNL     1       8.161  -2.720  26.472  0.00  0.00    -0.274 N 
ATOM      5  H   UNL     1       7.991  -2.939  27.441  0.00  0.00    +0.173 HD
ATOM      6  C   UNL     1       7.827  -3.678  25.556  0.00  0.00    +0.261 A 
ATOM      7  O   UNL     1       7.354  -4.757  25.901  0.00  0.00    -0.267 OA
ATOM      8  C   UNL     1       8.076  -3.337  24.124  0.00  0.00    +0.056 A 
ATOM      9  C   UNL     1       8.617  -2.136  23.872  0.00  0.00    +0.106 A 
ENDROOT
BRANCH   1  14
ATOM     10  C2* UNL     1      10.090   0.203  23.184  0.00  0.00    +0.088 C 
ATOM     11  C3* UNL     1      10.056   1.695  22.895  0.00  0.00    +0.150 C 
ATOM     12  C4* UNL     1       8.855   2.214  23.701  0.00  0.00    +0.175 C 
ATOM     13  O4* UNL     1       8.301   1.069  24.399  0.00  0.00    -0.348 OA
ATOM     14  C1* UNL     1       9.380   0.124  24.522  0.00  0.00    +0.226 C 
BRANCH  11  15
ATOM     15  O3* UNL     1       9.997   1.952  21.501  0.00  0.00    -0.389 OA
ATOM     16  H3* UNL     1       9.416   1.300  21.074  0.00  0.00    +0.210 HD
ENDBRANCH  11  15
BRANCH  12  17
ATOM     17  C5* UNL     1       7.750   2.892  22.898  0.00  0.00    +0.190 C 
BRANCH  17  18
ATOM     18  O5* UNL     1       8.241   4.099  22.313  0.00  0.00    -0.392 OA
ATOM     19  H5* UNL     1       9.198   4.123  22.502  0.00  0.00    +0.210 HD
ENDBRANCH  17  18
ENDBRANCH  12  17
ENDBRANCH   1  14
BRANCH   8  20
ATOM     20  C   UNL     1       7.776  -4.323  23.097  0.00  0.00    +0.022 C 
ATOM     21  C   UNL     1       6.626  -4.405  22.415  0.00  0.00    +0.052 C 
ATOM     22 BR   UNL     1       6.273  -5.694  21.128  0.00  0.00    -0.059 Br
ENDBRANCH   8  20
TORSDOF 5
ENDMDL
MODEL 2
REMARK VINA RESULT:      -5.9      3.253      6.323
REMARK  Name = 
REMARK  5 active torsions:
REMARK  status: ('A' for Active; 'I' for Inactive)
REMARK    1  A    between atoms: C1*_2  and  N_11
REMARK    2  A    between atoms: C4*_5  and  C5*_9
REMARK    3  A    between atoms: C3*_7  and  O3*_8
REMARK    4  A    between atoms: C5*_9  and  O5*_10
REMARK    5  A    between atoms: C_13  and  C_19
REMARK                            x       y       z     vdW  Elec       q    Type
REMARK                         _______ _______ _______ _____ _____    ______ ____
ROOT
ATOM      1  N   UNL     1       8.121  -2.231  23.441  0.00  0.00    -0.273 N 
ATOM      2  C   UNL     1       9.489  -2.275  23.661  0.00  0.00    +0.331 A 
ATOM      3  O   UNL     1      10.089  -3.275  24.049  0.00  0.00    -0.246 OA
ATOM      4  N   UNL     1      10.166  -1.112  23.415  0.00  0.00    -0.274 N 
ATOM      5  H   UNL     1      11.164  -1.128  23.552  0.00  0.00    +0.173 HD
ATOM      6  C   UNL     1       9.622   0.063  22.976  0.00  0.00    +0.261 A 
ATOM      7  O   UNL     1      10.318   1.054  22.771  0.00  0.00    -0.267 OA
ATOM      8  C   UNL     1       8.144   0.069  22.769  0.00  0.00    +0.056 A 
ATOM      9  C   UNL     1       7.488  -1.067  23.047  0.00  0.00    +0.106 A 
ENDROOT
BRANCH   1  14
ATOM     10  C2* UNL     1       5.872  -3.279  23.710  0.00  0.00    +0.088 C 
ATOM     11  C3* UNL     1       5.365  -4.684  23.432  0.00  0.00    +0.150 C 
ATOM     12  C4* UNL     1       6.502  -5.353  22.644  0.00  0.00    +0.175 C 
ATOM     13  O4* UNL     1       7.561  -4.368  22.534  0.00  0.00    -0.348 OA
ATOM     14  C1* UNL     1       7.375  -3.465  23.640  0.00  0.00    +0.226 C 
BRANCH  11  15
ATOM     15  O3* UNL     1       4.110  -4.662  22.769  0.00  0.00    -0.389 OA
ATOM     16  H3* UNL     1       4.235  -4.872  21.828  0.00  0.00    +0.210 HD
ENDBRANCH  11  15
BRANCH  12  17
ATOM     17  C5* UNL     1       6.144  -5.860  21.250  0.00  0.00    +0.190 C 
BRANCH  17  18
ATOM     18  O5* UNL     1       5.854  -4.759  20.389  0.00  0.00    -0.392 OA
ATOM     19  H5* UNL     1       6.566  -4.739  19.723  0.00  0.00    +0.210 HD
ENDBRANCH  17  18
ENDBRANCH  12  17
ENDBRANCH   1  14
BRANCH   8  20
ATOM     20  C   UNL     1       7.492   1.296  22.335  0.00  0.00    +0.022 C 
ATOM     21  C   UNL     1       6.748   2.094  23.111  0.00  0.00    +0.052 C 
ATOM     22 BR   UNL     1       5.913   3.638  22.512  0.00  0.00    -0.059 Br
ENDBRANCH   8  20
TORSDOF 5
ENDMDL
MODEL 3
REMARK VINA RESULT:      -5.9      2.900      3.972
REMARK  Name = 
REMARK  5 active torsions:
REMARK  status: ('A' for Active; 'I' for Inactive)
REMARK    1  A    between atoms: C1*_2  and  N_11
REMARK    2  A    between atoms: C4*_5  and  C5*_9
REMARK    3  A    between atoms: C3*_7  and  O3*_8
REMARK    4  A    between atoms: C5*_9  and  O5*_10
REMARK    5  A    between atoms: C_13  and  C_19
REMARK                            x       y       z     vdW  Elec       q    Type
REMARK                         _______ _______ _______ _____ _____    ______ ____
ROOT
ATOM      1  N   UNL     1       8.352  -3.678  25.114  0.00  0.00    -0.273 N 
ATOM      2  C   UNL     1       9.099  -4.812  25.393  0.00  0.00    +0.331 A 
ATOM      3  O   UNL     1      10.117  -5.129  24.783  0.00  0.00    -0.246 OA
ATOM      4  N   UNL     1       8.634  -5.590  26.419  0.00  0.00    -0.274 N 
ATOM      5  H   UNL     1       9.172  -6.410  26.649  0.00  0.00    +0.173 HD
ATOM      6  C   UNL     1       7.523  -5.348  27.178  0.00  0.00    +0.261 A 
ATOM      7  O   UNL     1       7.193  -6.103  28.089  0.00  0.00    -0.267 OA
ATOM      8  C   UNL     1       6.740  -4.125  26.831  0.00  0.00    +0.056 A 
ATOM      9  C   UNL     1       7.187  -3.391  25.802  0.00  0.00    +0.106 A 
ENDROOT
BRANCH   1  14
ATOM     10  C2* UNL     1       7.813  -1.820  23.537  0.00  0.00    +0.088 C 
ATOM     11  C3* UNL     1       8.685  -0.771  22.867  0.00  0.00    +0.150 C 
ATOM     12  C4* UNL     1      10.041  -0.886  23.581  0.00  0.00    +0.175 C 
ATOM     13  O4* UNL     1       9.905  -1.954  24.554  0.00  0.00    -0.348 OA
ATOM     14  C1* UNL     1       8.845  -2.797  24.066  0.00  0.00    +0.226 C 
BRANCH  11  15
ATOM     15  O3* UNL     1       8.086   0.515  22.925  0.00  0.00    -0.389 OA
ATOM     16  H3* UNL     1       8.629   1.149  22.426  0.00  0.00    +0.210 HD
ENDBRANCH  11  15
BRANCH  12  17
ATOM     17  C5* UNL     1      10.538   0.372  24.285  0.00  0.00    +0.190 C 
BRANCH  17  18
ATOM     18  O5* UNL     1       9.767   0.610  25.463  0.00  0.00    -0.392 OA
ATOM     19  H5* UNL     1       8.860   0.313  25.258  0.00  0.00    +0.210 HD
ENDBRANCH  17  18
ENDBRANCH  12  17
ENDBRANCH   1  14
BRANCH   8  20
ATOM     20  C   UNL     1       5.527  -3.823  27.576  0.00  0.00    +0.022 C 
ATOM     21  C   UNL     1       4.290  -4.195  27.225  0.00  0.00    +0.052 C 
ATOM     22 BR   UNL     1       2.765  -3.769  28.191  0.00  0.00    -0.059 Br
ENDBRANCH   8  20
TORSDOF 5
ENDMDL
MODEL 4
REMARK VINA RESULT:      -5.8      3.098      6.174
REMARK  Name = 
REMARK  5 active torsions:
REMARK  status: ('A' for Active; 'I' for Inactive)
REMARK    1  A    between atoms: C1*_2  and  N_11
REMARK    2  A    between atoms: C4*_5  and  C5*_9
REMARK    3  A    between atoms: C3*_7  and  O3*_8
REMARK    4  A    between atoms: C5*_9  and  O5*_10
REMARK    5  A    between atoms: C_13  and  C_19
REMARK                            x       y       z     vdW  Elec       q    Type
REMARK                         _______ _______ _______ _____ _____    ______ ____
ROOT
ATOM      1  N   UNL     1       7.600  -3.797  24.792  0.00  0.00    -0.273 N 
ATOM      2  C   UNL     1       7.924  -3.831  26.139  0.00  0.00    +0.331 A 
ATOM      3  O   UNL     1       7.763  -4.815  26.858  0.00  0.00    -0.246 OA
ATOM      4  N   UNL     1       8.453  -2.677  26.651  0.00  0.00    -0.274 N 
ATOM      5  H   UNL     1       8.712  -2.687  27.625  0.00  0.00    +0.173 HD
ATOM      6  C   UNL     1       8.689  -1.521  25.961  0.00  0.00    +0.261 A 
ATOM      7  O   UNL     1       9.182  -0.539  26.509  0.00  0.00    -0.267 OA
ATOM      8  C   UNL     1       8.309  -1.524  24.518  0.00  0.00    +0.056 A 
ATOM      9  C   UNL     1       7.760  -2.649  24.038  0.00  0.00    +0.106 A 
ENDROOT
BRANCH   1  14
ATOM     10  C2* UNL     1       5.574  -5.145  24.237  0.00  0.00    +0.088 C 
ATOM     11  C3* UNL     1       5.316  -6.202  23.176  0.00  0.00    +0.150 C 
ATOM     12  C4* UNL     1       6.538  -6.120  22.247  0.00  0.00    +0.175 C 
ATOM     13  O4* UNL     1       7.406  -5.096  22.799  0.00  0.00    -0.348 OA
ATOM     14  C1* UNL     1       7.085  -5.023  24.200  0.00  0.00    +0.226 C 
BRANCH  11  15
ATOM     15  O3* UNL     1       4.064  -6.002  22.537  0.00  0.00    -0.389 OA
ATOM     16  H3* UNL     1       3.371  -6.483  23.021  0.00  0.00    +0.210 HD
ENDBRANCH  11  15
BRANCH  12  17
ATOM     17  C5* UNL     1       6.248  -5.794  20.785  0.00  0.00    +0.190 C 
BRANCH  17  18
ATOM     18  O5* UNL     1       5.778  -4.451  20.667  0.00  0.00    -0.392 OA
ATOM     19  H5* UNL     1       6.097  -4.127  19.804  0.00  0.00    +0.210 HD
ENDBRANCH  17  18
ENDBRANCH  12  17
ENDBRANCH   1  14
BRANCH   8  20
ATOM     20  C   UNL     1       8.501  -0.316  23.730  0.00  0.00    +0.022 C 
ATOM     21  C   UNL     1       9.592  -0.026  23.009  0.00  0.00    +0.052 C 
ATOM     22 BR   UNL     1       9.807   1.540  22.038  0.00  0.00    -0.059 Br
ENDBRANCH   8  20
TORSDOF 5
ENDMDL
MODEL 5
REMARK VINA RESULT:      -5.8      3.708      5.198
REMARK  Name = 
REMARK  5 active torsions:
REMARK  status: ('A' for Active; 'I' for Inactive)
REMARK    1  A    between atoms: C1*_2  and  N_11
REMARK    2  A    between atoms: C4*_5  and  C5*_9
REMARK    3  A    between atoms: C3*_7  and  O3*_8
REMARK    4  A    between atoms: C5*_9  and  O5*_10
REMARK    5  A    between atoms: C_13  and  C_19
REMARK                            x       y       z     vdW  Elec       q    Type
REMARK                         _______ _______ _______ _____ _____    ______ ____
ROOT
ATOM      1  N   UNL     1       6.053  -4.103  23.023  0.00  0.00    -0.273 N 
ATOM      2  C   UNL     1       5.669  -5.057  22.094  0.00  0.00    +0.331 A 
ATOM      3  O   UNL     1       5.804  -4.925  20.880  0.00  0.00    -0.246 OA
ATOM      4  N   UNL     1       5.115  -6.197  22.611  0.00  0.00    -0.274 N 
ATOM      5  H   UNL     1       4.845  -6.911  21.953  0.00  0.00    +0.173 HD
ATOM      6  C   UNL     1       4.916  -6.471  23.935  0.00  0.00    +0.261 A 
ATOM      7  O   UNL     1       4.420  -7.533  24.302  0.00  0.00    -0.267 OA
ATOM      8  C   UNL     1       5.329  -5.408  24.898  0.00  0.00    +0.056 A 
ATOM      9  C   UNL     1       5.838  -4.282  24.377  0.00  0.00    +0.106 A 
ENDROOT
BRANCH   1  14
ATOM     10  C2* UNL     1       6.643  -1.717  23.462  0.00  0.00    +0.088 C 
ATOM     11  C3* UNL     1       7.750  -0.828  22.922  0.00  0.00    +0.150 C 
ATOM     12  C4* UNL     1       8.692  -1.793  22.185  0.00  0.00    +0.175 C 
ATOM     13  O4* UNL     1       8.104  -3.114  22.306  0.00  0.00    -0.348 OA
ATOM     14  C1* UNL     1       6.696  -2.900  22.515  0.00  0.00    +0.226 C 
BRANCH  11  15
ATOM     15  O3* UNL     1       8.358  -0.070  23.956  0.00  0.00    -0.389 OA
ATOM     16  H3* UNL     1       8.878   0.654  23.567  0.00  0.00    +0.210 HD
ENDBRANCH  11  15
BRANCH  12  17
ATOM     17  C5* UNL     1      10.132  -1.839  22.687  0.00  0.00    +0.190 C 
BRANCH  17  18
ATOM     18  O5* UNL     1      10.236  -2.738  23.792  0.00  0.00    -0.392 OA
ATOM     19  H5* UNL     1      10.638  -2.228  24.520  0.00  0.00    +0.210 HD
ENDBRANCH  17  18
ENDBRANCH  12  17
ENDBRANCH   1  14
BRANCH   8  20
ATOM     20  C   UNL     1       5.115  -5.617  26.322  0.00  0.00    +0.022 C 
ATOM     21  C   UNL     1       6.079  -5.669  27.251  0.00  0.00    +0.052 C 
ATOM     22 BR   UNL     1       5.766  -5.964  29.055  0.00  0.00    -0.059 Br
ENDBRANCH   8  20
TORSDOF 5
ENDMDL
MODEL 6
REMARK VINA RESULT:      -5.6      3.118      6.425
REMARK  Name = 
REMARK  5 active torsions:
REMARK  status: ('A' for Active; 'I' for Inactive)
REMARK    1  A    between atoms: C1*_2  and  N_11
REMARK    2  A    between atoms: C4*_5  and  C5*_9
REMARK    3  A    between atoms: C3*_7  and  O3*_8
REMARK    4  A    between atoms: C5*_9  and  O5*_10
REMARK    5  A    between atoms: C_13  and  C_19
REMARK                            x       y       z     vdW  Elec       q    Type
REMARK                         _______ _______ _______ _____ _____    ______ ____
ROOT
ATOM      1  N   UNL     1       8.347  -1.380  23.161  0.00  0.00    -0.273 N 
ATOM      2  C   UNL     1       9.721  -1.411  22.979  0.00  0.00    +0.331 A 
ATOM      3  O   UNL     1      10.419  -2.400  23.191  0.00  0.00    -0.246 OA
ATOM      4  N   UNL     1      10.286  -0.246  22.534  0.00  0.00    -0.274 N 
ATOM      5  H   UNL     1      11.282  -0.253  22.379  0.00  0.00    +0.173 HD
ATOM      6  C   UNL     1       9.626   0.917  22.255  0.00  0.00    +0.261 A 
ATOM      7  O   UNL     1      10.223   1.909  21.846  0.00  0.00    -0.267 OA
ATOM      8  C   UNL     1       8.150   0.910  22.480  0.00  0.00    +0.056 A 
ATOM      9  C   UNL     1       7.615  -0.226  22.950  0.00  0.00    +0.106 A 
ENDROOT
BRANCH   1  14
ATOM     10  C2* UNL     1       7.725  -3.715  22.536  0.00  0.00    +0.088 C 
ATOM     11  C3* UNL     1       7.455  -4.954  23.374  0.00  0.00    +0.150 C 
ATOM     12  C4* UNL     1       7.919  -4.569  24.788  0.00  0.00    +0.175 C 
ATOM     13  O4* UNL     1       8.383  -3.197  24.710  0.00  0.00    -0.348 OA
ATOM     14  C1* UNL     1       7.704  -2.616  23.581  0.00  0.00    +0.226 C 
BRANCH  11  15
ATOM     15  O3* UNL     1       8.090  -6.099  22.827  0.00  0.00    -0.389 OA
ATOM     16  H3* UNL     1       8.863  -6.333  23.368  0.00  0.00    +0.210 HD
ENDBRANCH  11  15
BRANCH  12  17
ATOM     17  C5* UNL     1       9.019  -5.435  25.392  0.00  0.00    +0.190 C 
BRANCH  17  18
ATOM     18  O5* UNL     1      10.276  -5.115  24.794  0.00  0.00    -0.392 OA
ATOM     19  H5* UNL     1      10.102  -4.997  23.842  0.00  0.00    +0.210 HD
ENDBRANCH  17  18
ENDBRANCH  12  17
ENDBRANCH   1  14
BRANCH   8  20
ATOM     20  C   UNL     1       7.388   2.125  22.236  0.00  0.00    +0.022 C 
ATOM     21  C   UNL     1       6.735   2.830  23.168  0.00  0.00    +0.052 C 
ATOM     22 BR   UNL     1       5.753   4.363  22.810  0.00  0.00    -0.059 Br
ENDBRANCH   8  20
TORSDOF 5
ENDMDL
MODEL 7
REMARK VINA RESULT:      -5.5      3.143      6.344
REMARK  Name = 
REMARK  5 active torsions:
REMARK  status: ('A' for Active; 'I' for Inactive)
REMARK    1  A    between atoms: C1*_2  and  N_11
REMARK    2  A    between atoms: C4*_5  and  C5*_9
REMARK    3  A    between atoms: C3*_7  and  O3*_8
REMARK    4  A    between atoms: C5*_9  and  O5*_10
REMARK    5  A    between atoms: C_13  and  C_19
REMARK                            x       y       z     vdW  Elec       q    Type
REMARK                         _______ _______ _______ _____ _____    ______ ____
ROOT
ATOM      1  N   UNL     1       8.501  -1.545  22.887  0.00  0.00    -0.273 N 
ATOM      2  C   UNL     1       9.746  -1.143  22.428  0.00  0.00    +0.331 A 
ATOM      3  O   UNL     1      10.707  -1.899  22.304  0.00  0.00    -0.246 OA
ATOM      4  N   UNL     1       9.858   0.182  22.104  0.00  0.00    -0.274 N 
ATOM      5  H   UNL     1      10.751   0.490  21.751  0.00  0.00    +0.173 HD
ATOM      6  C   UNL     1       8.870   1.121  22.188  0.00  0.00    +0.261 A 
ATOM      7  O   UNL     1       9.066   2.288  21.860  0.00  0.00    -0.267 OA
ATOM      8  C   UNL     1       7.551   0.648  22.703  0.00  0.00    +0.056 A 
ATOM      9  C   UNL     1       7.464  -0.645  23.050  0.00  0.00    +0.106 A 
ENDROOT
BRANCH   1  14
ATOM     10  C2* UNL     1       7.563  -3.231  24.471  0.00  0.00    +0.088 C 
ATOM     11  C3* UNL     1       7.128  -4.674  24.279  0.00  0.00    +0.150 C 
ATOM     12  C4* UNL     1       7.117  -4.872  22.754  0.00  0.00    +0.175 C 
ATOM     13  O4* UNL     1       7.548  -3.614  22.173  0.00  0.00    -0.348 OA
ATOM     14  C1* UNL     1       8.328  -2.958  23.189  0.00  0.00    +0.226 C 
BRANCH  11  15
ATOM     15  O3* UNL     1       5.891  -4.933  24.924  0.00  0.00    -0.389 OA
ATOM     16  H3* UNL     1       5.370  -5.558  24.391  0.00  0.00    +0.210 HD
ENDBRANCH  11  15
BRANCH  12  17
ATOM     17  C5* UNL     1       5.780  -5.275  22.140  0.00  0.00    +0.190 C 
BRANCH  17  18
ATOM     18  O5* UNL     1       4.839  -4.209  22.274  0.00  0.00    -0.392 OA
ATOM     19  H5* UNL     1       4.967  -3.845  23.170  0.00  0.00    +0.210 HD
ENDBRANCH  17  18
ENDBRANCH  12  17
ENDBRANCH   1  14
BRANCH   8  20
ATOM     20  C   UNL     1       6.462   1.602  22.851  0.00  0.00    +0.022 C 
ATOM     21  C   UNL     1       5.778   1.828  23.980  0.00  0.00    +0.052 C 
ATOM     22 BR   UNL     1       4.378   3.036  24.121  0.00  0.00    -0.059 Br
ENDBRANCH   8  20
TORSDOF 5
ENDMDL
MODEL 8
REMARK VINA RESULT:      -5.5      4.468      7.382
REMARK  Name = 
REMARK  5 active torsions:
REMARK  status: ('A' for Active; 'I' for Inactive)
REMARK    1  A    between atoms: C1*_2  and  N_11
REMARK    2  A    between atoms: C4*_5  and  C5*_9
REMARK    3  A    between atoms: C3*_7  and  O3*_8
REMARK    4  A    between atoms: C5*_9  and  O5*_10
REMARK    5  A    between atoms: C_13  and  C_19
REMARK                            x       y       z     vdW  Elec       q    Type
REMARK                         _______ _______ _______ _____ _____    ______ ____
ROOT
ATOM      1  N   UNL     1       6.322  -5.250  26.072  0.00  0.00    -0.273 N 
ATOM      2  C   UNL     1       7.269  -5.789  26.928  0.00  0.00    +0.331 A 
ATOM      3  O   UNL     1       6.992  -6.405  27.956  0.00  0.00    -0.246 OA
ATOM      4  N   UNL     1       8.574  -5.600  26.563  0.00  0.00    -0.274 N 
ATOM      5  H   UNL     1       9.278  -6.000  27.163  0.00  0.00    +0.173 HD
ATOM      6  C   UNL     1       9.014  -4.944  25.448  0.00  0.00    +0.261 A 
ATOM      7  O   UNL     1      10.212  -4.838  25.199  0.00  0.00    -0.267 OA
ATOM      8  C   UNL     1       7.961  -4.365  24.563  0.00  0.00    +0.056 A 
ATOM      9  C   UNL     1       6.687  -4.527  24.951  0.00  0.00    +0.106 A 
ENDROOT
BRANCH   1  14
ATOM     10  C2* UNL     1       3.950  -4.638  25.592  0.00  0.00    +0.088 C 
ATOM     11  C3* UNL     1       2.647  -5.398  25.775  0.00  0.00    +0.150 C 
ATOM     12  C4* UNL     1       3.084  -6.837  26.095  0.00  0.00    +0.175 C 
ATOM     13  O4* UNL     1       4.535  -6.833  26.107  0.00  0.00    -0.348 OA
ATOM     14  C1* UNL     1       4.922  -5.478  26.399  0.00  0.00    +0.226 C 
BRANCH  11  15
ATOM     15  O3* UNL     1       1.806  -5.267  24.640  0.00  0.00    -0.389 OA
ATOM     16  H3* UNL     1       1.005  -4.771  24.884  0.00  0.00    +0.210 HD
ENDBRANCH  11  15
BRANCH  12  17
ATOM     17  C5* UNL     1       2.595  -7.916  25.134  0.00  0.00    +0.190 C 
BRANCH  17  18
ATOM     18  O5* UNL     1       3.346  -7.866  23.920  0.00  0.00    -0.392 OA
ATOM     19  H5* UNL     1       4.255  -8.133  24.152  0.00  0.00    +0.210 HD
ENDBRANCH  17  18
ENDBRANCH  12  17
ENDBRANCH   1  14
BRANCH   8  20
ATOM     20  C   UNL     1       8.358  -3.624  23.376  0.00  0.00    +0.022 C 
ATOM     21  C   UNL     1       8.735  -2.338  23.355  0.00  0.00    +0.052 C 
ATOM     22 BR   UNL     1       9.211  -1.422  21.815  0.00  0.00    -0.059 Br
ENDBRANCH   8  20
TORSDOF 5
ENDMDL
MODEL 9
REMARK VINA RESULT:      -5.4      3.115      6.373
REMARK  Name = 
REMARK  5 active torsions:
REMARK  status: ('A' for Active; 'I' for Inactive)
REMARK    1  A    between atoms: C1*_2  and  N_11
REMARK    2  A    between atoms: C4*_5  and  C5*_9
REMARK    3  A    between atoms: C3*_7  and  O3*_8
REMARK    4  A    between atoms: C5*_9  and  O5*_10
REMARK    5  A    between atoms: C_13  and  C_19
REMARK                            x       y       z     vdW  Elec       q    Type
REMARK                         _______ _______ _______ _____ _____    ______ ____
ROOT
ATOM      1  N   UNL     1       9.117  -1.777  24.058  0.00  0.00    -0.273 N 
ATOM      2  C   UNL     1      10.068  -1.234  23.209  0.00  0.00    +0.331 A 
ATOM      3  O   UNL     1      10.733  -1.893  22.414  0.00  0.00    -0.246 OA
ATOM      4  N   UNL     1      10.237   0.121  23.299  0.00  0.00    -0.274 N 
ATOM      5  H   UNL     1      10.912   0.538  22.677  0.00  0.00    +0.173 HD
ATOM      6  C   UNL     1       9.560   0.967  24.132  0.00  0.00    +0.261 A 
ATOM      7  O   UNL     1       9.775   2.176  24.130  0.00  0.00    -0.267 OA
ATOM      8  C   UNL     1       8.557   0.336  25.041  0.00  0.00    +0.056 A 
ATOM      9  C   UNL     1       8.427  -0.996  24.967  0.00  0.00    +0.106 A 
ENDROOT
BRANCH   1  14
ATOM     10  C2* UNL     1       9.523  -4.034  25.045  0.00  0.00    +0.088 C 
ATOM     11  C3* UNL     1       8.733  -5.330  24.976  0.00  0.00    +0.150 C 
ATOM     12  C4* UNL     1       7.386  -4.927  24.355  0.00  0.00    +0.175 C 
ATOM     13  O4* UNL     1       7.468  -3.504  24.085  0.00  0.00    -0.348 OA
ATOM     14  C1* UNL     1       8.870  -3.208  23.953  0.00  0.00    +0.226 C 
BRANCH  11  15
ATOM     15  O3* UNL     1       8.643  -5.952  26.249  0.00  0.00    -0.389 OA
ATOM     16  H3* UNL     1       9.519  -6.279  26.514  0.00  0.00    +0.210 HD
ENDBRANCH  11  15
BRANCH  12  17
ATOM     17  C5* UNL     1       6.147  -5.206  25.199  0.00  0.00    +0.190 C 
BRANCH  17  18
ATOM     18  O5* UNL     1       6.126  -4.341  26.336  0.00  0.00    -0.392 OA
ATOM     19  H5* UNL     1       5.555  -3.589  26.093  0.00  0.00    +0.210 HD
ENDBRANCH  17  18
ENDBRANCH  12  17
ENDBRANCH   1  14
BRANCH   8  20
ATOM     20  C   UNL     1       7.824   1.172  25.979  0.00  0.00    +0.022 C 
ATOM     21  C   UNL     1       7.160   0.731  27.056  0.00  0.00    +0.052 C 
ATOM     22 BR   UNL     1       6.216   1.828  28.214  0.00  0.00    -0.059 Br
ENDBRANCH   8  20
TORSDOF 5
ENDMDL
