MODEL 1
REMARK VINA RESULT:      -6.8      0.000      0.000
REMARK  Name = 
REMARK  8 active torsions:
REMARK  status: ('A' for Active; 'I' for Inactive)
REMARK    1  A    between atoms: C_1  and  C_2
REMARK    2  A    between atoms: C_4  and  C_27
REMARK    3  A    between atoms: C_6  and  C_26
REMARK    4  A    between atoms: C_7  and  O_8
REMARK    5  A    between atoms: O_8  and  C_9
REMARK    6  A    between atoms: C_13  and  N_16
REMARK    7  A    between atoms: N_17  and  C_18
REMARK    8  A    between atoms: C_21  and  C_24
REMARK                            x       y       z     vdW  Elec       q    Type
REMARK                         _______ _______ _______ _____ _____    ______ ____
ROOT
ATOM      1  C   UNL     1       8.072  -2.423  24.044  0.00  0.00    +0.241 A 
ATOM      2  C   UNL     1       8.516  -2.363  25.349  0.00  0.00    +0.119 A 
ATOM      3 BR   UNL     1       9.019  -3.886  26.343  0.00  0.00    -0.041 Br
ATOM      4  C   UNL     1       8.603  -1.092  25.858  0.00  0.00    +0.139 A 
ATOM      5  N   UNL     1       8.475  -0.017  25.081  0.00  0.00    -0.198 NA
ATOM      6  C   UNL     1       8.309  -0.185  23.764  0.00  0.00    +0.224 A 
ATOM      7  N   UNL     1       8.363   0.909  22.901  0.00  0.00    -0.283 N 
ATOM      8  H   UNL     1       8.367   0.566  21.949  0.00  0.00    +0.155 HD
ATOM      9  N   UNL     1       8.076  -1.372  23.205  0.00  0.00    -0.178 NA
ENDROOT
BRANCH   7  10
ATOM     10  C   UNL     1       9.007   2.134  23.135  0.00  0.00    +0.034 A 
ATOM     11  C   UNL     1       8.312   3.296  23.498  0.00  0.00    +0.024 A 
ATOM     12  C   UNL     1       8.981   4.471  23.832  0.00  0.00    +0.020 A 
ATOM     13  C   UNL     1      10.373   4.508  23.771  0.00  0.00    +0.052 A 
ATOM     14  C   UNL     1      11.081   3.376  23.363  0.00  0.00    +0.020 A 
ATOM     15  C   UNL     1      10.402   2.197  23.043  0.00  0.00    +0.024 A 
BRANCH  13  16
ATOM     16  C   UNL     1      11.064   5.713  24.116  0.00  0.00    +0.099 C 
ATOM     17  N   UNL     1      11.626   6.687  24.400  0.00  0.00    -0.191 NA
ENDBRANCH  13  16
ENDBRANCH   7  10
BRANCH   4  18
ATOM     18  N   UNL     1       8.872  -0.800  27.194  0.00  0.00    -0.342 N 
ATOM     19  H   UNL     1       8.917  -1.631  27.773  0.00  0.00    +0.144 HD
ATOM     20  H   UNL     1       8.158  -0.148  27.514  0.00  0.00    +0.144 HD
ENDBRANCH   4  18
BRANCH   1  21
ATOM     21  O   UNL     1       7.649  -3.629  23.544  0.00  0.00    -0.436 OA
BRANCH  21  24
ATOM     22  C   UNL     1       5.119  -2.173  24.993  0.00  0.00    +0.047 C 
ATOM     23  C   UNL     1       5.185  -3.401  24.123  0.00  0.00    -0.007 A 
ATOM     24  C   UNL     1       6.306  -3.969  23.470  0.00  0.00    +0.136 A 
ATOM     25  C   UNL     1       6.117  -5.131  22.668  0.00  0.00    -0.007 A 
ATOM     26  C   UNL     1       7.256  -5.740  21.892  0.00  0.00    +0.047 C 
ATOM     27  C   UNL     1       4.853  -5.742  22.574  0.00  0.00    +0.025 A 
ATOM     28  C   UNL     1       3.761  -5.205  23.246  0.00  0.00    +0.052 A 
ATOM     29  C   UNL     1       3.935  -4.061  24.016  0.00  0.00    +0.025 A 
BRANCH  28  30
ATOM     30  C   UNL     1       2.485  -5.849  23.179  0.00  0.00    +0.099 C 
ATOM     31  N   UNL     1       1.456  -6.367  23.113  0.00  0.00    -0.191 NA
ENDBRANCH  28  30
ENDBRANCH  21  24
ENDBRANCH   1  21
TORSDOF 6
ENDMDL
MODEL 2
REMARK VINA RESULT:      -6.8      2.071      2.821
REMARK  Name = 
REMARK  8 active torsions:
REMARK  status: ('A' for Active; 'I' for Inactive)
REMARK    1  A    between atoms: C_1  and  C_2
REMARK    2  A    between atoms: C_4  and  C_27
REMARK    3  A    between atoms: C_6  and  C_26
REMARK    4  A    between atoms: C_7  and  O_8
REMARK    5  A    between atoms: O_8  and  C_9
REMARK    6  A    between atoms: C_13  and  N_16
REMARK    7  A    between atoms: N_17  and  C_18
REMARK    8  A    between atoms: C_21  and  C_24
REMARK                            x       y       z     vdW  Elec       q    Type
REMARK                         _______ _______ _______ _____ _____    ______ ____
ROOT
ATOM      1  C   UNL     1       6.835  -3.581  25.168  0.00  0.00    +0.241 A 
ATOM      2  C   UNL     1       6.019  -2.653  25.781  0.00  0.00    +0.119 A 
ATOM      3 BR   UNL     1       4.873  -3.073  27.220  0.00  0.00    -0.041 Br
ATOM      4  C   UNL     1       6.138  -1.380  25.284  0.00  0.00    +0.139 A 
ATOM      5  N   UNL     1       7.112  -1.049  24.438  0.00  0.00    -0.198 NA
ATOM      6  C   UNL     1       8.025  -1.969  24.106  0.00  0.00    +0.224 A 
ATOM      7  N   UNL     1       9.160  -1.608  23.380  0.00  0.00    -0.283 N 
ATOM      8  H   UNL     1       9.792  -2.397  23.361  0.00  0.00    +0.155 HD
ATOM      9  N   UNL     1       7.910  -3.257  24.429  0.00  0.00    -0.178 NA
ENDROOT
BRANCH   7  10
ATOM     10  C   UNL     1       9.739  -0.331  23.304  0.00  0.00    +0.034 A 
ATOM     11  C   UNL     1       9.633   0.480  22.165  0.00  0.00    +0.024 A 
ATOM     12  C   UNL     1      10.120   1.784  22.151  0.00  0.00    +0.020 A 
ATOM     13  C   UNL     1      10.761   2.288  23.281  0.00  0.00    +0.052 A 
ATOM     14  C   UNL     1      10.920   1.479  24.409  0.00  0.00    +0.020 A 
ATOM     15  C   UNL     1      10.415   0.176  24.418  0.00  0.00    +0.024 A 
BRANCH  13  16
ATOM     16  C   UNL     1      11.260   3.629  23.273  0.00  0.00    +0.099 C 
ATOM     17  N   UNL     1      11.668   4.715  23.263  0.00  0.00    -0.191 NA
ENDBRANCH  13  16
ENDBRANCH   7  10
BRANCH   4  18
ATOM     18  N   UNL     1       5.305  -0.321  25.637  0.00  0.00    -0.342 N 
ATOM     19  H   UNL     1       5.574   0.552  25.195  0.00  0.00    +0.144 HD
ATOM     20  H   UNL     1       5.312  -0.252  26.654  0.00  0.00    +0.144 HD
ENDBRANCH   4  18
BRANCH   1  21
ATOM     21  O   UNL     1       6.579  -4.916  25.358  0.00  0.00    -0.436 OA
BRANCH  21  24
ATOM     22  C   UNL     1       5.617  -4.607  22.259  0.00  0.00    +0.047 C 
ATOM     23  C   UNL     1       5.051  -5.425  23.391  0.00  0.00    -0.007 A 
ATOM     24  C   UNL     1       5.537  -5.568  24.714  0.00  0.00    +0.136 A 
ATOM     25  C   UNL     1       4.841  -6.429  25.610  0.00  0.00    -0.007 A 
ATOM     26  C   UNL     1       5.348  -6.677  27.008  0.00  0.00    +0.047 C 
ATOM     27  C   UNL     1       3.658  -7.077  25.212  0.00  0.00    +0.025 A 
ATOM     28  C   UNL     1       3.162  -6.906  23.925  0.00  0.00    +0.052 A 
ATOM     29  C   UNL     1       3.845  -6.082  23.039  0.00  0.00    +0.025 A 
BRANCH  28  30
ATOM     30  C   UNL     1       1.939  -7.537  23.534  0.00  0.00    +0.099 C 
ATOM     31  N   UNL     1       0.958  -8.053  23.211  0.00  0.00    -0.191 NA
ENDBRANCH  28  30
ENDBRANCH  21  24
ENDBRANCH   1  21
TORSDOF 6
ENDMDL
MODEL 3
REMARK VINA RESULT:      -6.7      2.210      2.733
REMARK  Name = 
REMARK  8 active torsions:
REMARK  status: ('A' for Active; 'I' for Inactive)
REMARK    1  A    between atoms: C_1  and  C_2
REMARK    2  A    between atoms: C_4  and  C_27
REMARK    3  A    between atoms: C_6  and  C_26
REMARK    4  A    between atoms: C_7  and  O_8
REMARK    5  A    between atoms: O_8  and  C_9
REMARK    6  A    between atoms: C_13  and  N_16
REMARK    7  A    between atoms: N_17  and  C_18
REMARK    8  A    between atoms: C_21  and  C_24
REMARK                            x       y       z     vdW  Elec       q    Type
REMARK                         _______ _______ _______ _____ _____    ______ ____
ROOT
ATOM      1  C   UNL     1       7.456  -3.615  24.316  0.00  0.00    +0.241 A 
ATOM      2  C   UNL     1       8.328  -3.263  25.326  0.00  0.00    +0.119 A 
ATOM      3 BR   UNL     1       9.556  -4.469  26.099  0.00  0.00    -0.041 Br
ATOM      4  C   UNL     1       8.259  -1.944  25.697  0.00  0.00    +0.139 A 
ATOM      5  N   UNL     1       7.565  -1.054  24.990  0.00  0.00    -0.198 NA
ATOM      6  C   UNL     1       6.963  -1.448  23.862  0.00  0.00    +0.224 A 
ATOM      7  N   UNL     1       6.393  -0.511  23.002  0.00  0.00    -0.283 N 
ATOM      8  H   UNL     1       6.127  -0.980  22.146  0.00  0.00    +0.155 HD
ATOM      9  N   UNL     1       6.861  -2.726  23.500  0.00  0.00    -0.178 NA
ENDROOT
BRANCH   7  10
ATOM     10  C   UNL     1       6.726   0.849  22.899  0.00  0.00    +0.034 A 
ATOM     11  C   UNL     1       7.804   1.307  22.128  0.00  0.00    +0.024 A 
ATOM     12  C   UNL     1       8.049   2.667  21.953  0.00  0.00    +0.020 A 
ATOM     13  C   UNL     1       7.228   3.598  22.586  0.00  0.00    +0.052 A 
ATOM     14  C   UNL     1       6.179   3.162  23.398  0.00  0.00    +0.020 A 
ATOM     15  C   UNL     1       5.932   1.795  23.557  0.00  0.00    +0.024 A 
BRANCH  13  16
ATOM     16  C   UNL     1       7.474   4.997  22.406  0.00  0.00    +0.099 C 
ATOM     17  N   UNL     1       7.677   6.129  22.258  0.00  0.00    -0.191 NA
ENDBRANCH  13  16
ENDBRANCH   7  10
BRANCH   4  18
ATOM     18  N   UNL     1       8.926  -1.405  26.795  0.00  0.00    -0.342 N 
ATOM     19  H   UNL     1       8.292  -1.026  27.489  0.00  0.00    +0.144 HD
ATOM     20  H   UNL     1       9.574  -0.702  26.444  0.00  0.00    +0.144 HD
ENDBRANCH   4  18
BRANCH   1  21
ATOM     21  O   UNL     1       7.213  -4.946  24.084  0.00  0.00    -0.436 OA
BRANCH  21  24
ATOM     22  C   UNL     1       6.232  -5.462  27.149  0.00  0.00    +0.047 C 
ATOM     23  C   UNL     1       5.615  -5.866  25.834  0.00  0.00    -0.007 A 
ATOM     24  C   UNL     1       6.054  -5.572  24.520  0.00  0.00    +0.136 A 
ATOM     25  C   UNL     1       5.284  -6.044  23.419  0.00  0.00    -0.007 A 
ATOM     26  C   UNL     1       5.659  -5.705  21.999  0.00  0.00    +0.047 C 
ATOM     27  C   UNL     1       4.143  -6.840  23.628  0.00  0.00    +0.025 A 
ATOM     28  C   UNL     1       3.735  -7.159  24.918  0.00  0.00    +0.052 A 
ATOM     29  C   UNL     1       4.472  -6.687  25.998  0.00  0.00    +0.025 A 
BRANCH  28  30
ATOM     30  C   UNL     1       2.596  -7.999  25.127  0.00  0.00    +0.099 C 
ATOM     31  N   UNL     1       1.683  -8.686  25.290  0.00  0.00    -0.191 NA
ENDBRANCH  28  30
ENDBRANCH  21  24
ENDBRANCH   1  21
TORSDOF 6
ENDMDL
MODEL 4
REMARK VINA RESULT:      -6.5      2.694      9.357
REMARK  Name = 
REMARK  8 active torsions:
REMARK  status: ('A' for Active; 'I' for Inactive)
REMARK    1  A    between atoms: C_1  and  C_2
REMARK    2  A    between atoms: C_4  and  C_27
REMARK    3  A    between atoms: C_6  and  C_26
REMARK    4  A    between atoms: C_7  and  O_8
REMARK    5  A    between atoms: O_8  and  C_9
REMARK    6  A    between atoms: C_13  and  N_16
REMARK    7  A    between atoms: N_17  and  C_18
REMARK    8  A    between atoms: C_21  and  C_24
REMARK                            x       y       z     vdW  Elec       q    Type
REMARK                         _______ _______ _______ _____ _____    ______ ____
ROOT
ATOM      1  C   UNL     1       6.810   1.658  23.140  0.00  0.00    +0.241 A 
ATOM      2  C   UNL     1       6.029   1.790  24.269  0.00  0.00    +0.119 A 
ATOM      3 BR   UNL     1       5.135   3.386  24.730  0.00  0.00    -0.041 Br
ATOM      4  C   UNL     1       5.918   0.644  25.016  0.00  0.00    +0.139 A 
ATOM      5  N   UNL     1       6.352  -0.531  24.562  0.00  0.00    -0.198 NA
ATOM      6  C   UNL     1       6.862  -0.601  23.327  0.00  0.00    +0.224 A 
ATOM      7  N   UNL     1       7.148  -1.838  22.751  0.00  0.00    -0.283 N 
ATOM      8  H   UNL     1       7.377  -1.693  21.776  0.00  0.00    +0.155 HD
ATOM      9  N   UNL     1       7.134   0.475  22.589  0.00  0.00    -0.178 NA
ENDROOT
BRANCH   7  10
ATOM     10  C   UNL     1       6.576  -3.076  23.088  0.00  0.00    +0.034 A 
ATOM     11  C   UNL     1       7.178  -3.966  23.988  0.00  0.00    +0.024 A 
ATOM     12  C   UNL     1       6.541  -5.137  24.392  0.00  0.00    +0.020 A 
ATOM     13  C   UNL     1       5.291  -5.453  23.864  0.00  0.00    +0.052 A 
ATOM     14  C   UNL     1       4.696  -4.604  22.928  0.00  0.00    +0.020 A 
ATOM     15  C   UNL     1       5.337  -3.424  22.540  0.00  0.00    +0.024 A 
BRANCH  13  16
ATOM     16  C   UNL     1       4.631  -6.654  24.278  0.00  0.00    +0.099 C 
ATOM     17  N   UNL     1       4.094  -7.624  24.617  0.00  0.00    -0.191 NA
ENDBRANCH  13  16
ENDBRANCH   7  10
BRANCH   4  18
ATOM     18  N   UNL     1       5.316   0.582  26.271  0.00  0.00    -0.342 N 
ATOM     19  H   UNL     1       4.339   0.314  26.223  0.00  0.00    +0.144 HD
ATOM     20  H   UNL     1       5.442   1.491  26.715  0.00  0.00    +0.144 HD
ENDBRANCH   4  18
BRANCH   1  21
ATOM     21  O   UNL     1       7.246   2.792  22.500  0.00  0.00    -0.436 OA
BRANCH  21  24
ATOM     22  C   UNL     1      10.138   1.502  23.269  0.00  0.00    +0.047 C 
ATOM     23  C   UNL     1       9.665   2.932  23.268  0.00  0.00    -0.007 A 
ATOM     24  C   UNL     1       8.407   3.452  22.875  0.00  0.00    +0.136 A 
ATOM     25  C   UNL     1       8.198   4.859  22.936  0.00  0.00    -0.007 A 
ATOM     26  C   UNL     1       6.907   5.480  22.465  0.00  0.00    +0.047 C 
ATOM     27  C   UNL     1       9.197   5.714  23.437  0.00  0.00    +0.025 A 
ATOM     28  C   UNL     1      10.417   5.198  23.858  0.00  0.00    +0.052 A 
ATOM     29  C   UNL     1      10.635   3.828  23.784  0.00  0.00    +0.025 A 
BRANCH  28  30
ATOM     30  C   UNL     1      11.417   6.065  24.401  0.00  0.00    +0.099 C 
ATOM     31  N   UNL     1      12.225   6.757  24.848  0.00  0.00    -0.191 NA
ENDBRANCH  28  30
ENDBRANCH  21  24
ENDBRANCH   1  21
TORSDOF 6
ENDMDL
MODEL 5
REMARK VINA RESULT:      -6.1      3.235      4.261
REMARK  Name = 
REMARK  8 active torsions:
REMARK  status: ('A' for Active; 'I' for Inactive)
REMARK    1  A    between atoms: C_1  and  C_2
REMARK    2  A    between atoms: C_4  and  C_27
REMARK    3  A    between atoms: C_6  and  C_26
REMARK    4  A    between atoms: C_7  and  O_8
REMARK    5  A    between atoms: O_8  and  C_9
REMARK    6  A    between atoms: C_13  and  N_16
REMARK    7  A    between atoms: N_17  and  C_18
REMARK    8  A    between atoms: C_21  and  C_24
REMARK                            x       y       z     vdW  Elec       q    Type
REMARK                         _______ _______ _______ _____ _____    ______ ____
ROOT
ATOM      1  C   UNL     1       6.233  -2.915  23.831  0.00  0.00    +0.241 A 
ATOM      2  C   UNL     1       7.145  -3.070  22.807  0.00  0.00    +0.119 A 
ATOM      3 BR   UNL     1       7.282  -4.641  21.772  0.00  0.00    -0.041 Br
ATOM      4  C   UNL     1       7.924  -1.964  22.572  0.00  0.00    +0.139 A 
ATOM      5  N   UNL     1       7.661  -0.790  23.144  0.00  0.00    -0.198 NA
ATOM      6  C   UNL     1       6.581  -0.676  23.925  0.00  0.00    +0.224 A 
ATOM      7  N   UNL     1       6.170   0.576  24.382  0.00  0.00    -0.283 N 
ATOM      8  H   UNL     1       5.265   0.475  24.823  0.00  0.00    +0.155 HD
ATOM      9  N   UNL     1       5.852  -1.720  24.317  0.00  0.00    -0.178 NA
ENDROOT
BRANCH   7  10
ATOM     10  C   UNL     1       6.453   1.820  23.796  0.00  0.00    +0.034 A 
ATOM     11  C   UNL     1       5.660   2.376  22.783  0.00  0.00    +0.024 A 
ATOM     12  C   UNL     1       5.895   3.659  22.294  0.00  0.00    +0.020 A 
ATOM     13  C   UNL     1       6.965   4.397  22.795  0.00  0.00    +0.052 A 
ATOM     14  C   UNL     1       7.797   3.842  23.770  0.00  0.00    +0.020 A 
ATOM     15  C   UNL     1       7.544   2.559  24.264  0.00  0.00    +0.024 A 
BRANCH  13  16
ATOM     16  C   UNL     1       7.209   5.717  22.298  0.00  0.00    +0.099 C 
ATOM     17  N   UNL     1       7.402   6.786  21.893  0.00  0.00    -0.191 NA
ENDBRANCH  13  16
ENDBRANCH   7  10
BRANCH   4  18
ATOM     18  N   UNL     1       9.011  -1.944  21.702  0.00  0.00    -0.342 N 
ATOM     19  H   UNL     1       9.057  -1.092  21.154  0.00  0.00    +0.144 HD
ATOM     20  H   UNL     1       8.948  -2.774  21.114  0.00  0.00    +0.144 HD
ENDBRANCH   4  18
BRANCH   1  21
ATOM     21  O   UNL     1       5.633  -4.031  24.358  0.00  0.00    -0.436 OA
BRANCH  21  24
ATOM     22  C   UNL     1       8.536  -5.053  25.432  0.00  0.00    +0.047 C 
ATOM     23  C   UNL     1       7.187  -5.027  26.105  0.00  0.00    -0.007 A 
ATOM     24  C   UNL     1       5.959  -4.523  25.614  0.00  0.00    +0.136 A 
ATOM     25  C   UNL     1       4.809  -4.583  26.452  0.00  0.00    -0.007 A 
ATOM     26  C   UNL     1       3.490  -3.999  26.014  0.00  0.00    +0.047 C 
ATOM     27  C   UNL     1       4.875  -5.187  27.720  0.00  0.00    +0.025 A 
ATOM     28  C   UNL     1       6.073  -5.715  28.186  0.00  0.00    +0.052 A 
ATOM     29  C   UNL     1       7.203  -5.644  27.381  0.00  0.00    +0.025 A 
BRANCH  28  30
ATOM     30  C   UNL     1       6.128  -6.362  29.461  0.00  0.00    +0.099 C 
ATOM     31  N   UNL     1       6.179  -6.893  30.485  0.00  0.00    -0.191 NA
ENDBRANCH  28  30
ENDBRANCH  21  24
ENDBRANCH   1  21
TORSDOF 6
ENDMDL
MODEL 6
REMARK VINA RESULT:      -6.1      2.901      3.910
REMARK  Name = 
REMARK  8 active torsions:
REMARK  status: ('A' for Active; 'I' for Inactive)
REMARK    1  A    between atoms: C_1  and  C_2
REMARK    2  A    between atoms: C_4  and  C_27
REMARK    3  A    between atoms: C_6  and  C_26
REMARK    4  A    between atoms: C_7  and  O_8
REMARK    5  A    between atoms: O_8  and  C_9
REMARK    6  A    between atoms: C_13  and  N_16
REMARK    7  A    between atoms: N_17  and  C_18
REMARK    8  A    between atoms: C_21  and  C_24
REMARK                            x       y       z     vdW  Elec       q    Type
REMARK                         _______ _______ _______ _____ _____    ______ ____
ROOT
ATOM      1  C   UNL     1       6.588  -2.081  24.275  0.00  0.00    +0.241 A 
ATOM      2  C   UNL     1       7.019  -2.376  22.998  0.00  0.00    +0.119 A 
ATOM      3 BR   UNL     1       6.086  -3.527  21.831  0.00  0.00    -0.041 Br
ATOM      4  C   UNL     1       8.169  -1.726  22.627  0.00  0.00    +0.139 A 
ATOM      5  N   UNL     1       8.685  -0.742  23.362  0.00  0.00    -0.198 NA
ATOM      6  C   UNL     1       8.036  -0.346  24.463  0.00  0.00    +0.224 A 
ATOM      7  N   UNL     1       8.442   0.799  25.148  0.00  0.00    -0.283 N 
ATOM      8  H   UNL     1       7.747   1.015  25.851  0.00  0.00    +0.155 HD
ATOM      9  N   UNL     1       6.996  -1.005  24.972  0.00  0.00    -0.178 NA
ENDROOT
BRANCH   7  10
ATOM     10  C   UNL     1       9.169   1.880  24.623  0.00  0.00    +0.034 A 
ATOM     11  C   UNL     1       8.684   3.195  24.638  0.00  0.00    +0.024 A 
ATOM     12  C   UNL     1       9.467   4.265  24.212  0.00  0.00    +0.020 A 
ATOM     13  C   UNL     1      10.750   4.025  23.726  0.00  0.00    +0.052 A 
ATOM     14  C   UNL     1      11.233   2.716  23.657  0.00  0.00    +0.020 A 
ATOM     15  C   UNL     1      10.445   1.650  24.099  0.00  0.00    +0.024 A 
BRANCH  13  16
ATOM     16  C   UNL     1      11.559   5.122  23.291  0.00  0.00    +0.099 C 
ATOM     17  N   UNL     1      12.218   6.009  22.939  0.00  0.00    -0.191 NA
ENDBRANCH  13  16
ENDBRANCH   7  10
BRANCH   4  18
ATOM     18  N   UNL     1       8.871  -1.988  21.452  0.00  0.00    -0.342 N 
ATOM     19  H   UNL     1       9.442  -2.824  21.517  0.00  0.00    +0.144 HD
ATOM     20  H   UNL     1       9.426  -1.161  21.237  0.00  0.00    +0.144 HD
ENDBRANCH   4  18
BRANCH   1  21
ATOM     21  O   UNL     1       5.650  -2.894  24.862  0.00  0.00    -0.436 OA
BRANCH  21  24
ATOM     22  C   UNL     1       8.019  -5.113  25.153  0.00  0.00    +0.047 C 
ATOM     23  C   UNL     1       6.925  -4.706  26.107  0.00  0.00    -0.007 A 
ATOM     24  C   UNL     1       5.945  -3.695  25.955  0.00  0.00    +0.136 A 
ATOM     25  C   UNL     1       5.021  -3.472  27.016  0.00  0.00    -0.007 A 
ATOM     26  C   UNL     1       4.000  -2.364  26.944  0.00  0.00    +0.047 C 
ATOM     27  C   UNL     1       5.039  -4.280  28.167  0.00  0.00    +0.025 A 
ATOM     28  C   UNL     1       5.978  -5.296  28.297  0.00  0.00    +0.052 A 
ATOM     29  C   UNL     1       6.893  -5.508  27.274  0.00  0.00    +0.025 A 
BRANCH  28  30
ATOM     30  C   UNL     1       5.970  -6.141  29.453  0.00  0.00    +0.099 C 
ATOM     31  N   UNL     1       5.957  -6.813  30.390  0.00  0.00    -0.191 NA
ENDBRANCH  28  30
ENDBRANCH  21  24
ENDBRANCH   1  21
TORSDOF 6
ENDMDL
MODEL 7
REMARK VINA RESULT:      -6.1      2.588      9.212
REMARK  Name = 
REMARK  8 active torsions:
REMARK  status: ('A' for Active; 'I' for Inactive)
REMARK    1  A    between atoms: C_1  and  C_2
REMARK    2  A    between atoms: C_4  and  C_27
REMARK    3  A    between atoms: C_6  and  C_26
REMARK    4  A    between atoms: C_7  and  O_8
REMARK    5  A    between atoms: O_8  and  C_9
REMARK    6  A    between atoms: C_13  and  N_16
REMARK    7  A    between atoms: N_17  and  C_18
REMARK    8  A    between atoms: C_21  and  C_24
REMARK                            x       y       z     vdW  Elec       q    Type
REMARK                         _______ _______ _______ _____ _____    ______ ____
ROOT
ATOM      1  C   UNL     1       7.736  -1.538  24.511  0.00  0.00    +0.241 A 
ATOM      2  C   UNL     1       7.696  -1.902  23.181  0.00  0.00    +0.119 A 
ATOM      3 BR   UNL     1       9.075  -1.505  21.957  0.00  0.00    -0.041 Br
ATOM      4  C   UNL     1       6.582  -2.621  22.826  0.00  0.00    +0.139 A 
ATOM      5  N   UNL     1       5.738  -3.098  23.740  0.00  0.00    -0.198 NA
ATOM      6  C   UNL     1       6.012  -2.914  25.036  0.00  0.00    +0.224 A 
ATOM      7  N   UNL     1       5.258  -3.560  26.015  0.00  0.00    -0.283 N 
ATOM      8  H   UNL     1       5.706  -3.418  26.911  0.00  0.00    +0.155 HD
ATOM      9  N   UNL     1       6.988  -2.117  25.468  0.00  0.00    -0.178 NA
ENDROOT
BRANCH   7  10
ATOM     10  C   UNL     1       4.512  -4.739  25.861  0.00  0.00    +0.034 A 
ATOM     11  C   UNL     1       3.118  -4.738  25.711  0.00  0.00    +0.024 A 
ATOM     12  C   UNL     1       2.412  -5.909  25.449  0.00  0.00    +0.020 A 
ATOM     13  C   UNL     1       3.098  -7.120  25.370  0.00  0.00    +0.052 A 
ATOM     14  C   UNL     1       4.480  -7.149  25.566  0.00  0.00    +0.020 A 
ATOM     15  C   UNL     1       5.182  -5.966  25.814  0.00  0.00    +0.024 A 
BRANCH  13  16
ATOM     16  C   UNL     1       2.376  -8.325  25.099  0.00  0.00    +0.099 C 
ATOM     17  N   UNL     1       1.791  -9.301  24.875  0.00  0.00    -0.191 NA
ENDBRANCH  13  16
ENDBRANCH   7  10
BRANCH   4  18
ATOM     18  N   UNL     1       6.253  -2.956  21.515  0.00  0.00    -0.342 N 
ATOM     19  H   UNL     1       5.820  -2.189  21.013  0.00  0.00    +0.144 HD
ATOM     20  H   UNL     1       5.651  -3.778  21.551  0.00  0.00    +0.144 HD
ENDBRANCH   4  18
BRANCH   1  21
ATOM     21  O   UNL     1       8.622  -0.566  24.905  0.00  0.00    -0.436 OA
BRANCH  21  24
ATOM     22  C   UNL     1       5.774   1.018  24.884  0.00  0.00    +0.047 C 
ATOM     23  C   UNL     1       7.173   1.500  24.601  0.00  0.00    -0.007 A 
ATOM     24  C   UNL     1       8.392   0.782  24.674  0.00  0.00    +0.136 A 
ATOM     25  C   UNL     1       9.608   1.465  24.384  0.00  0.00    -0.007 A 
ATOM     26  C   UNL     1      10.942   0.776  24.513  0.00  0.00    +0.047 C 
ATOM     27  C   UNL     1       9.596   2.810  23.973  0.00  0.00    +0.025 A 
ATOM     28  C   UNL     1       8.396   3.503  23.866  0.00  0.00    +0.052 A 
ATOM     29  C   UNL     1       7.207   2.848  24.164  0.00  0.00    +0.025 A 
BRANCH  28  30
ATOM     30  C   UNL     1       8.384   4.860  23.411  0.00  0.00    +0.099 C 
ATOM     31  N   UNL     1       8.364   5.952  23.040  0.00  0.00    -0.191 NA
ENDBRANCH  28  30
ENDBRANCH  21  24
ENDBRANCH   1  21
TORSDOF 6
ENDMDL
MODEL 8
REMARK VINA RESULT:      -6.0      3.216      8.914
REMARK  Name = 
REMARK  8 active torsions:
REMARK  status: ('A' for Active; 'I' for Inactive)
REMARK    1  A    between atoms: C_1  and  C_2
REMARK    2  A    between atoms: C_4  and  C_27
REMARK    3  A    between atoms: C_6  and  C_26
REMARK    4  A    between atoms: C_7  and  O_8
REMARK    5  A    between atoms: O_8  and  C_9
REMARK    6  A    between atoms: C_13  and  N_16
REMARK    7  A    between atoms: N_17  and  C_18
REMARK    8  A    between atoms: C_21  and  C_24
REMARK                            x       y       z     vdW  Elec       q    Type
REMARK                         _______ _______ _______ _____ _____    ______ ____
ROOT
ATOM      1  C   UNL     1       7.205  -1.752  23.651  0.00  0.00    +0.241 A 
ATOM      2  C   UNL     1       8.229  -2.652  23.862  0.00  0.00    +0.119 A 
ATOM      3 BR   UNL     1      10.043  -2.250  23.536  0.00  0.00    -0.041 Br
ATOM      4  C   UNL     1       7.824  -3.859  24.373  0.00  0.00    +0.139 A 
ATOM      5  N   UNL     1       6.583  -4.048  24.820  0.00  0.00    -0.198 NA
ATOM      6  C   UNL     1       5.728  -3.019  24.816  0.00  0.00    +0.224 A 
ATOM      7  N   UNL     1       4.491  -3.128  25.449  0.00  0.00    -0.283 N 
ATOM      8  H   UNL     1       4.059  -2.214  25.469  0.00  0.00    +0.155 HD
ATOM      9  N   UNL     1       5.989  -1.859  24.217  0.00  0.00    -0.178 NA
ENDROOT
BRANCH   7  10
ATOM     10  C   UNL     1       4.151  -4.011  26.487  0.00  0.00    +0.034 A 
ATOM     11  C   UNL     1       3.414  -5.183  26.271  0.00  0.00    +0.024 A 
ATOM     12  C   UNL     1       3.183  -6.098  27.296  0.00  0.00    +0.020 A 
ATOM     13  C   UNL     1       3.664  -5.829  28.576  0.00  0.00    +0.052 A 
ATOM     14  C   UNL     1       4.358  -4.642  28.822  0.00  0.00    +0.020 A 
ATOM     15  C   UNL     1       4.597  -3.737  27.784  0.00  0.00    +0.024 A 
BRANCH  13  16
ATOM     16  C   UNL     1       3.432  -6.768  29.631  0.00  0.00    +0.099 C 
ATOM     17  N   UNL     1       3.241  -7.531  30.483  0.00  0.00    -0.191 NA
ENDBRANCH  13  16
ENDBRANCH   7  10
BRANCH   4  18
ATOM     18  N   UNL     1       8.657  -4.967  24.516  0.00  0.00    -0.342 N 
ATOM     19  H   UNL     1       8.154  -5.845  24.443  0.00  0.00    +0.144 HD
ATOM     20  H   UNL     1       9.138  -4.875  25.410  0.00  0.00    +0.144 HD
ENDBRANCH   4  18
BRANCH   1  21
ATOM     21  O   UNL     1       7.440  -0.653  22.863  0.00  0.00    -0.436 OA
BRANCH  21  24
ATOM     22  C   UNL     1       7.898   0.776  25.756  0.00  0.00    +0.047 C 
ATOM     23  C   UNL     1       8.573   1.000  24.427  0.00  0.00    -0.007 A 
ATOM     24  C   UNL     1       8.375   0.314  23.203  0.00  0.00    +0.136 A 
ATOM     25  C   UNL     1       9.157   0.688  22.074  0.00  0.00    -0.007 A 
ATOM     26  C   UNL     1       9.044  -0.050  20.764  0.00  0.00    +0.047 C 
ATOM     27  C   UNL     1      10.066   1.759  22.152  0.00  0.00    +0.025 A 
ATOM     28  C   UNL     1      10.233   2.455  23.343  0.00  0.00    +0.052 A 
ATOM     29  C   UNL     1       9.485   2.084  24.454  0.00  0.00    +0.025 A 
BRANCH  28  30
ATOM     30  C   UNL     1      11.131   3.567  23.409  0.00  0.00    +0.099 C 
ATOM     31  N   UNL     1      11.859   4.461  23.452  0.00  0.00    -0.191 NA
ENDBRANCH  28  30
ENDBRANCH  21  24
ENDBRANCH   1  21
TORSDOF 6
ENDMDL
MODEL 9
REMARK VINA RESULT:      -6.0      2.231      2.658
REMARK  Name = 
REMARK  8 active torsions:
REMARK  status: ('A' for Active; 'I' for Inactive)
REMARK    1  A    between atoms: C_1  and  C_2
REMARK    2  A    between atoms: C_4  and  C_27
REMARK    3  A    between atoms: C_6  and  C_26
REMARK    4  A    between atoms: C_7  and  O_8
REMARK    5  A    between atoms: O_8  and  C_9
REMARK    6  A    between atoms: C_13  and  N_16
REMARK    7  A    between atoms: N_17  and  C_18
REMARK    8  A    between atoms: C_21  and  C_24
REMARK                            x       y       z     vdW  Elec       q    Type
REMARK                         _______ _______ _______ _____ _____    ______ ____
ROOT
ATOM      1  C   UNL     1       6.178  -2.589  23.700  0.00  0.00    +0.241 A 
ATOM      2  C   UNL     1       7.370  -3.284  23.724  0.00  0.00    +0.119 A 
ATOM      3 BR   UNL     1       7.529  -5.087  23.191  0.00  0.00    -0.041 Br
ATOM      4  C   UNL     1       8.449  -2.539  24.129  0.00  0.00    +0.139 A 
ATOM      5  N   UNL     1       8.372  -1.217  24.273  0.00  0.00    -0.198 NA
ATOM      6  C   UNL     1       7.228  -0.596  23.965  0.00  0.00    +0.224 A 
ATOM      7  N   UNL     1       7.170   0.796  23.920  0.00  0.00    -0.283 N 
ATOM      8  H   UNL     1       6.278   1.068  23.527  0.00  0.00    +0.155 HD
ATOM      9  N   UNL     1       6.096  -1.247  23.699  0.00  0.00    -0.178 NA
ENDROOT
BRANCH   7  10
ATOM     10  C   UNL     1       8.245   1.676  23.718  0.00  0.00    +0.034 A 
ATOM     11  C   UNL     1       8.448   2.816  24.508  0.00  0.00    +0.024 A 
ATOM     12  C   UNL     1       9.580   3.614  24.361  0.00  0.00    +0.020 A 
ATOM     13  C   UNL     1      10.519   3.297  23.382  0.00  0.00    +0.052 A 
ATOM     14  C   UNL     1      10.311   2.193  22.551  0.00  0.00    +0.020 A 
ATOM     15  C   UNL     1       9.179   1.390  22.716  0.00  0.00    +0.024 A 
BRANCH  13  16
ATOM     16  C   UNL     1      11.685   4.112  23.229  0.00  0.00    +0.099 C 
ATOM     17  N   UNL     1      12.633   4.769  23.104  0.00  0.00    -0.191 NA
ENDBRANCH  13  16
ENDBRANCH   7  10
BRANCH   4  18
ATOM     18  N   UNL     1       9.714  -3.067  24.381  0.00  0.00    -0.342 N 
ATOM     19  H   UNL     1       9.968  -3.021  25.361  0.00  0.00    +0.144 HD
ATOM     20  H   UNL     1      10.377  -2.568  23.790  0.00  0.00    +0.144 HD
ENDBRANCH   4  18
BRANCH   1  21
ATOM     21  O   UNL     1       5.003  -3.294  23.621  0.00  0.00    -0.436 OA
BRANCH  21  24
ATOM     22  C   UNL     1       4.781  -2.098  26.645  0.00  0.00    +0.047 C 
ATOM     23  C   UNL     1       4.343  -3.422  26.072  0.00  0.00    -0.007 A 
ATOM     24  C   UNL     1       4.414  -3.878  24.733  0.00  0.00    +0.136 A 
ATOM     25  C   UNL     1       3.906  -5.172  24.422  0.00  0.00    -0.007 A 
ATOM     26  C   UNL     1       3.889  -5.685  23.005  0.00  0.00    +0.047 C 
ATOM     27  C   UNL     1       3.400  -6.008  25.433  0.00  0.00    +0.025 A 
ATOM     28  C   UNL     1       3.365  -5.573  26.753  0.00  0.00    +0.052 A 
ATOM     29  C   UNL     1       3.843  -4.305  27.061  0.00  0.00    +0.025 A 
BRANCH  28  30
ATOM     30  C   UNL     1       2.883  -6.439  27.785  0.00  0.00    +0.099 C 
ATOM     31  N   UNL     1       2.503  -7.133  28.625  0.00  0.00    -0.191 NA
ENDBRANCH  28  30
ENDBRANCH  21  24
ENDBRANCH   1  21
TORSDOF 6
ENDMDL
