MODEL 1
REMARK VINA RESULT:      -7.2      0.000      0.000
REMARK  Name = 
REMARK  5 active torsions:
REMARK  status: ('A' for Active; 'I' for Inactive)
REMARK    1  A    between atoms: C_3  and  N_4
REMARK    2  A    between atoms: N_4  and  C_5
REMARK    3  A    between atoms: N_12  and  C_15
REMARK    4  A    between atoms: C_17  and  C_21
REMARK    5  A    between atoms: C_21  and  O_22
REMARK                            x       y       z     vdW  Elec       q    Type
REMARK                         _______ _______ _______ _____ _____    ______ ____
ROOT
ATOM      1  C   UNL     1       7.038  -4.481  24.635  0.00  0.00    +0.152 A 
ATOM      2  N   UNL     1       8.070  -5.181  25.177  0.00  0.00    -0.198 NA
ATOM      3  C   UNL     1       9.327  -4.725  25.041  0.00  0.00    +0.216 A 
ATOM      4  N   UNL     1      10.317  -5.495  25.623  0.00  0.00    -0.327 N 
ATOM      5  H   UNL     1       9.975  -6.441  25.728  0.00  0.00    +0.145 HD
ATOM      6  H   UNL     1      11.190  -5.367  25.133  0.00  0.00    +0.145 HD
ATOM      7  N   UNL     1       9.722  -3.624  24.377  0.00  0.00    -0.195 NA
ATOM      8  C   UNL     1       8.681  -2.949  23.868  0.00  0.00    +0.168 A 
ATOM      9  N   UNL     1       8.701  -1.776  23.157  0.00  0.00    -0.308 N 
ATOM     10  C   UNL     1       7.396  -1.451  22.880  0.00  0.00    +0.202 A 
ATOM     11  N   UNL     1       6.550  -2.353  23.333  0.00  0.00    -0.231 NA
ATOM     12  C   UNL     1       7.345  -3.295  23.949  0.00  0.00    +0.148 A 
ENDROOT
BRANCH   9  13
ATOM     13  C   UNL     1       9.900  -1.049  22.771  0.00  0.00    +0.113 C 
ATOM     14  C   UNL     1       9.697  -0.179  21.563  0.00  0.00    -0.006 C 
ATOM     15  C   UNL     1       9.650   1.120  21.880  0.00  0.00    -0.023 C 
ATOM     16  C   UNL     1       9.836   1.340  23.357  0.00  0.00    +0.039 C 
ATOM     17  C   UNL     1      10.373  -0.027  23.821  0.00  0.00    +0.039 C 
BRANCH  16  18
ATOM     18  C   UNL     1      10.799   2.484  23.684  0.00  0.00    +0.163 C 
BRANCH  18  19
ATOM     19  O   UNL     1      10.887   3.394  22.591  0.00  0.00    -0.394 OA
ATOM     20  H   UNL     1      10.687   4.282  22.931  0.00  0.00    +0.209 HD
ENDBRANCH  18  19
ENDBRANCH  16  18
ENDBRANCH   9  13
BRANCH   1  21
ATOM     21  N   UNL     1       5.704  -4.912  24.782  0.00  0.00    -0.324 N 
ATOM     22  H   UNL     1       5.471  -4.955  25.774  0.00  0.00    +0.148 HD
BRANCH  21  24
ATOM     23  C   UNL     1       5.290  -5.825  22.408  0.00  0.00    +0.024 C 
ATOM     24  C   UNL     1       5.213  -5.966  23.900  0.00  0.00    +0.072 C 
ATOM     25  C   UNL     1       3.959  -5.763  23.098  0.00  0.00    +0.024 C 
ENDBRANCH  21  24
ENDBRANCH   1  21
TORSDOF 5
ENDMDL
MODEL 2
REMARK VINA RESULT:      -6.5      3.442      7.389
REMARK  Name = 
REMARK  5 active torsions:
REMARK  status: ('A' for Active; 'I' for Inactive)
REMARK    1  A    between atoms: C_3  and  N_4
REMARK    2  A    between atoms: N_4  and  C_5
REMARK    3  A    between atoms: N_12  and  C_15
REMARK    4  A    between atoms: C_17  and  C_21
REMARK    5  A    between atoms: C_21  and  O_22
REMARK                            x       y       z     vdW  Elec       q    Type
REMARK                         _______ _______ _______ _____ _____    ______ ____
ROOT
ATOM      1  C   UNL     1       9.196   1.728  22.553  0.00  0.00    +0.152 A 
ATOM      2  N   UNL     1       7.947   2.259  22.455  0.00  0.00    -0.198 NA
ATOM      3  C   UNL     1       6.875   1.493  22.721  0.00  0.00    +0.216 A 
ATOM      4  N   UNL     1       5.645   2.111  22.598  0.00  0.00    -0.327 N 
ATOM      5  H   UNL     1       5.740   2.909  21.984  0.00  0.00    +0.145 HD
ATOM      6  H   UNL     1       4.935   1.431  22.372  0.00  0.00    +0.145 HD
ATOM      7  N   UNL     1       6.873   0.192  23.059  0.00  0.00    -0.195 NA
ATOM      8  C   UNL     1       8.118  -0.298  23.161  0.00  0.00    +0.168 A 
ATOM      9  N   UNL     1       8.499  -1.569  23.509  0.00  0.00    -0.308 N 
ATOM     10  C   UNL     1       9.872  -1.590  23.515  0.00  0.00    +0.202 A 
ATOM     11  N   UNL     1      10.390  -0.433  23.162  0.00  0.00    -0.231 NA
ATOM     12  C   UNL     1       9.301   0.380  22.934  0.00  0.00    +0.148 A 
ENDROOT
BRANCH   9  13
ATOM     13  C   UNL     1       7.591  -2.669  23.793  0.00  0.00    +0.113 C 
ATOM     14  C   UNL     1       8.210  -4.018  23.555  0.00  0.00    -0.006 C 
ATOM     15  C   UNL     1       8.492  -4.651  24.700  0.00  0.00    -0.023 C 
ATOM     16  C   UNL     1       8.089  -3.839  25.900  0.00  0.00    +0.039 C 
ATOM     17  C   UNL     1       7.177  -2.769  25.272  0.00  0.00    +0.039 C 
BRANCH  16  18
ATOM     18  C   UNL     1       7.368  -4.658  26.974  0.00  0.00    +0.163 C 
BRANCH  18  19
ATOM     19  O   UNL     1       8.022  -5.909  27.173  0.00  0.00    -0.394 OA
ATOM     20  H   UNL     1       7.410  -6.609  26.889  0.00  0.00    +0.209 HD
ENDBRANCH  18  19
ENDBRANCH  16  18
ENDBRANCH   9  13
BRANCH   1  21
ATOM     21  N   UNL     1      10.345   2.507  22.312  0.00  0.00    -0.324 N 
ATOM     22  H   UNL     1      10.956   2.014  21.662  0.00  0.00    +0.148 HD
BRANCH  21  24
ATOM     23  C   UNL     1      10.491   4.606  23.801  0.00  0.00    +0.024 C 
ATOM     24  C   UNL     1      10.946   3.224  23.433  0.00  0.00    +0.072 C 
ATOM     25  C   UNL     1      11.844   4.403  23.186  0.00  0.00    +0.024 C 
ENDBRANCH  21  24
ENDBRANCH   1  21
TORSDOF 5
ENDMDL
MODEL 3
REMARK VINA RESULT:      -6.4      3.498      7.675
REMARK  Name = 
REMARK  5 active torsions:
REMARK  status: ('A' for Active; 'I' for Inactive)
REMARK    1  A    between atoms: C_3  and  N_4
REMARK    2  A    between atoms: N_4  and  C_5
REMARK    3  A    between atoms: N_12  and  C_15
REMARK    4  A    between atoms: C_17  and  C_21
REMARK    5  A    between atoms: C_21  and  O_22
REMARK                            x       y       z     vdW  Elec       q    Type
REMARK                         _______ _______ _______ _____ _____    ______ ____
ROOT
ATOM      1  C   UNL     1       9.885   2.752  23.524  0.00  0.00    +0.152 A 
ATOM      2  N   UNL     1       9.181   3.340  24.529  0.00  0.00    -0.198 NA
ATOM      3  C   UNL     1       8.342   2.601  25.274  0.00  0.00    +0.216 A 
ATOM      4  N   UNL     1       7.667   3.276  26.275  0.00  0.00    -0.327 N 
ATOM      5  H   UNL     1       7.639   4.260  26.043  0.00  0.00    +0.145 HD
ATOM      6  H   UNL     1       6.790   2.818  26.472  0.00  0.00    +0.145 HD
ATOM      7  N   UNL     1       8.068   1.293  25.129  0.00  0.00    -0.195 NA
ATOM      8  C   UNL     1       8.787   0.740  24.141  0.00  0.00    +0.168 A 
ATOM      9  N   UNL     1       8.789  -0.568  23.728  0.00  0.00    -0.308 N 
ATOM     10  C   UNL     1       9.710  -0.669  22.714  0.00  0.00    +0.202 A 
ATOM     11  N   UNL     1      10.267   0.489  22.430  0.00  0.00    -0.231 NA
ATOM     12  C   UNL     1       9.693   1.377  23.314  0.00  0.00    +0.148 A 
ENDROOT
BRANCH   9  13
ATOM     13  C   UNL     1       7.947  -1.622  24.273  0.00  0.00    +0.113 C 
ATOM     14  C   UNL     1       7.465  -2.588  23.227  0.00  0.00    -0.006 C 
ATOM     15  C   UNL     1       8.087  -3.770  23.310  0.00  0.00    -0.023 C 
ATOM     16  C   UNL     1       9.077  -3.800  24.441  0.00  0.00    +0.039 C 
ATOM     17  C   UNL     1       8.675  -2.557  25.255  0.00  0.00    +0.039 C 
BRANCH  16  18
ATOM     18  C   UNL     1       9.011  -5.084  25.272  0.00  0.00    +0.163 C 
BRANCH  18  19
ATOM     19  O   UNL     1      10.306  -5.665  25.403  0.00  0.00    -0.394 OA
ATOM     20  H   UNL     1      10.942  -5.063  24.981  0.00  0.00    +0.209 HD
ENDBRANCH  18  19
ENDBRANCH  16  18
ENDBRANCH   9  13
BRANCH   1  21
ATOM     21  N   UNL     1      10.797   3.488  22.741  0.00  0.00    -0.324 N 
ATOM     22  H   UNL     1      11.028   2.954  21.904  0.00  0.00    +0.148 HD
BRANCH  21  24
ATOM     23  C   UNL     1      11.714   5.686  23.726  0.00  0.00    +0.024 C 
ATOM     24  C   UNL     1      11.859   4.224  23.419  0.00  0.00    +0.072 C 
ATOM     25  C   UNL     1      12.679   5.236  22.669  0.00  0.00    +0.024 C 
ENDBRANCH  21  24
ENDBRANCH   1  21
TORSDOF 5
ENDMDL
MODEL 4
REMARK VINA RESULT:      -6.4      3.312      6.896
REMARK  Name = 
REMARK  5 active torsions:
REMARK  status: ('A' for Active; 'I' for Inactive)
REMARK    1  A    between atoms: C_3  and  N_4
REMARK    2  A    between atoms: N_4  and  C_5
REMARK    3  A    between atoms: N_12  and  C_15
REMARK    4  A    between atoms: C_17  and  C_21
REMARK    5  A    between atoms: C_21  and  O_22
REMARK                            x       y       z     vdW  Elec       q    Type
REMARK                         _______ _______ _______ _____ _____    ______ ____
ROOT
ATOM      1  C   UNL     1       9.032  -2.873  23.615  0.00  0.00    +0.152 A 
ATOM      2  N   UNL     1       9.786  -3.736  24.347  0.00  0.00    -0.198 NA
ATOM      3  C   UNL     1       9.191  -4.742  25.010  0.00  0.00    +0.216 A 
ATOM      4  N   UNL     1      10.030  -5.573  25.729  0.00  0.00    -0.327 N 
ATOM      5  H   UNL     1      10.887  -5.075  25.931  0.00  0.00    +0.145 HD
ATOM      6  H   UNL     1       9.534  -5.981  26.506  0.00  0.00    +0.145 HD
ATOM      7  N   UNL     1       7.874  -5.003  25.074  0.00  0.00    -0.195 NA
ATOM      8  C   UNL     1       7.160  -4.144  24.330  0.00  0.00    +0.168 A 
ATOM      9  N   UNL     1       5.802  -4.122  24.138  0.00  0.00    -0.308 N 
ATOM     10  C   UNL     1       5.536  -3.090  23.272  0.00  0.00    +0.202 A 
ATOM     11  N   UNL     1       6.623  -2.432  22.930  0.00  0.00    -0.231 NA
ATOM     12  C   UNL     1       7.644  -3.082  23.590  0.00  0.00    +0.148 A 
ENDROOT
BRANCH   9  13
ATOM     13  C   UNL     1       4.850  -5.026  24.763  0.00  0.00    +0.113 C 
ATOM     14  C   UNL     1       3.518  -4.384  25.030  0.00  0.00    -0.006 C 
ATOM     15  C   UNL     1       2.572  -4.818  24.189  0.00  0.00    -0.023 C 
ATOM     16  C   UNL     1       3.110  -5.843  23.228  0.00  0.00    +0.039 C 
ATOM     17  C   UNL     1       4.452  -6.222  23.878  0.00  0.00    +0.039 C 
BRANCH  16  18
ATOM     18  C   UNL     1       2.188  -7.052  23.051  0.00  0.00    +0.163 C 
BRANCH  18  19
ATOM     19  O   UNL     1       2.728  -8.195  23.709  0.00  0.00    -0.394 OA
ATOM     20  H   UNL     1       3.422  -8.564  23.136  0.00  0.00    +0.209 HD
ENDBRANCH  18  19
ENDBRANCH  16  18
ENDBRANCH   9  13
BRANCH   1  21
ATOM     21  N   UNL     1       9.622  -1.823  22.882  0.00  0.00    -0.324 N 
ATOM     22  H   UNL     1      10.435  -2.179  22.379  0.00  0.00    +0.148 HD
BRANCH  21  24
ATOM     23  C   UNL     1       8.727   0.580  23.144  0.00  0.00    +0.024 C 
ATOM     24  C   UNL     1       9.703  -0.504  23.500  0.00  0.00    +0.072 C 
ATOM     25  C   UNL     1      10.157   0.684  22.699  0.00  0.00    +0.024 C 
ENDBRANCH  21  24
ENDBRANCH   1  21
TORSDOF 5
ENDMDL
MODEL 5
REMARK VINA RESULT:      -6.3      1.482      1.806
REMARK  Name = 
REMARK  5 active torsions:
REMARK  status: ('A' for Active; 'I' for Inactive)
REMARK    1  A    between atoms: C_3  and  N_4
REMARK    2  A    between atoms: N_4  and  C_5
REMARK    3  A    between atoms: N_12  and  C_15
REMARK    4  A    between atoms: C_17  and  C_21
REMARK    5  A    between atoms: C_21  and  O_22
REMARK                            x       y       z     vdW  Elec       q    Type
REMARK                         _______ _______ _______ _____ _____    ______ ____
ROOT
ATOM      1  C   UNL     1       5.661  -5.028  24.563  0.00  0.00    +0.152 A 
ATOM      2  N   UNL     1       6.442  -5.588  25.526  0.00  0.00    -0.198 NA
ATOM      3  C   UNL     1       7.659  -5.076  25.777  0.00  0.00    +0.216 A 
ATOM      4  N   UNL     1       8.387  -5.704  26.771  0.00  0.00    -0.327 N 
ATOM      5  H   UNL     1       8.041  -6.648  26.882  0.00  0.00    +0.145 HD
ATOM      6  H   UNL     1       9.375  -5.586  26.605  0.00  0.00    +0.145 HD
ATOM      7  N   UNL     1       8.251  -4.047  25.145  0.00  0.00    -0.195 NA
ATOM      8  C   UNL     1       7.451  -3.509  24.213  0.00  0.00    +0.168 A 
ATOM      9  N   UNL     1       7.709  -2.437  23.396  0.00  0.00    -0.308 N 
ATOM     10  C   UNL     1       6.584  -2.231  22.636  0.00  0.00    +0.202 A 
ATOM     11  N   UNL     1       5.644  -3.117  22.886  0.00  0.00    -0.231 NA
ATOM     12  C   UNL     1       6.178  -3.923  23.868  0.00  0.00    +0.148 A 
ENDROOT
BRANCH   9  13
ATOM     13  C   UNL     1       8.958  -1.693  23.356  0.00  0.00    +0.113 C 
ATOM     14  C   UNL     1       9.499  -1.527  21.964  0.00  0.00    -0.006 C 
ATOM     15  C   UNL     1       9.352  -0.275  21.514  0.00  0.00    -0.023 C 
ATOM     16  C   UNL     1       8.706   0.614  22.540  0.00  0.00    +0.039 C 
ATOM     17  C   UNL     1       8.827  -0.231  23.821  0.00  0.00    +0.039 C 
BRANCH  16  18
ATOM     18  C   UNL     1       9.387   1.978  22.678  0.00  0.00    +0.163 C 
BRANCH  18  19
ATOM     19  O   UNL     1      10.234   2.231  21.559  0.00  0.00    -0.394 OA
ATOM     20  H   UNL     1      11.152   2.227  21.879  0.00  0.00    +0.209 HD
ENDBRANCH  18  19
ENDBRANCH  16  18
ENDBRANCH   9  13
BRANCH   1  21
ATOM     21  N   UNL     1       4.367  -5.517  24.292  0.00  0.00    -0.324 N 
ATOM     22  H   UNL     1       3.678  -4.819  24.568  0.00  0.00    +0.148 HD
BRANCH  21  24
ATOM     23  C   UNL     1       2.775  -7.540  24.172  0.00  0.00    +0.024 C 
ATOM     24  C   UNL     1       4.087  -6.924  24.562  0.00  0.00    +0.072 C 
ATOM     25  C   UNL     1       3.093  -7.310  25.620  0.00  0.00    +0.024 C 
ENDBRANCH  21  24
ENDBRANCH   1  21
TORSDOF 5
ENDMDL
MODEL 6
REMARK VINA RESULT:      -6.3      3.454      7.210
REMARK  Name = 
REMARK  5 active torsions:
REMARK  status: ('A' for Active; 'I' for Inactive)
REMARK    1  A    between atoms: C_3  and  N_4
REMARK    2  A    between atoms: N_4  and  C_5
REMARK    3  A    between atoms: N_12  and  C_15
REMARK    4  A    between atoms: C_17  and  C_21
REMARK    5  A    between atoms: C_21  and  O_22
REMARK                            x       y       z     vdW  Elec       q    Type
REMARK                         _______ _______ _______ _____ _____    ______ ____
ROOT
ATOM      1  C   UNL     1       9.344   0.606  24.305  0.00  0.00    +0.152 A 
ATOM      2  N   UNL     1       9.574   0.384  22.983  0.00  0.00    -0.198 NA
ATOM      3  C   UNL     1       9.473  -0.862  22.490  0.00  0.00    +0.216 A 
ATOM      4  N   UNL     1       9.723  -0.999  21.137  0.00  0.00    -0.327 N 
ATOM      5  H   UNL     1      10.289  -0.220  20.829  0.00  0.00    +0.145 HD
ATOM      6  H   UNL     1      10.061  -1.929  20.938  0.00  0.00    +0.145 HD
ATOM      7  N   UNL     1       9.189  -1.984  23.174  0.00  0.00    -0.195 NA
ATOM      8  C   UNL     1       8.952  -1.729  24.470  0.00  0.00    +0.168 A 
ATOM      9  N   UNL     1       8.610  -2.620  25.456  0.00  0.00    -0.308 N 
ATOM     10  C   UNL     1       8.435  -1.895  26.609  0.00  0.00    +0.202 A 
ATOM     11  N   UNL     1       8.677  -0.613  26.434  0.00  0.00    -0.231 NA
ATOM     12  C   UNL     1       9.005  -0.500  25.101  0.00  0.00    +0.148 A 
ENDROOT
BRANCH   9  13
ATOM     13  C   UNL     1       8.483  -4.058  25.282  0.00  0.00    +0.113 C 
ATOM     14  C   UNL     1       8.650  -4.823  26.564  0.00  0.00    -0.006 C 
ATOM     15  C   UNL     1       7.488  -5.307  27.017  0.00  0.00    -0.023 C 
ATOM     16  C   UNL     1       6.347  -4.966  26.098  0.00  0.00    +0.039 C 
ATOM     17  C   UNL     1       7.083  -4.509  24.826  0.00  0.00    +0.039 C 
BRANCH  16  18
ATOM     18  C   UNL     1       5.406  -6.144  25.834  0.00  0.00    +0.163 C 
BRANCH  18  19
ATOM     19  O   UNL     1       5.354  -7.008  26.966  0.00  0.00    -0.394 OA
ATOM     20  H   UNL     1       6.263  -7.290  27.163  0.00  0.00    +0.209 HD
ENDBRANCH  18  19
ENDBRANCH  16  18
ENDBRANCH   9  13
BRANCH   1  21
ATOM     21  N   UNL     1       9.411   1.903  24.853  0.00  0.00    -0.324 N 
ATOM     22  H   UNL     1       9.073   1.880  25.814  0.00  0.00    +0.148 HD
BRANCH  21  24
ATOM     23  C   UNL     1      10.029   4.124  23.701  0.00  0.00    +0.024 C 
ATOM     24  C   UNL     1       9.044   3.034  24.007  0.00  0.00    +0.072 C 
ATOM     25  C   UNL     1       8.864   4.401  24.604  0.00  0.00    +0.024 C 
ENDBRANCH  21  24
ENDBRANCH   1  21
TORSDOF 5
ENDMDL
MODEL 7
REMARK VINA RESULT:      -6.2      3.424      7.465
REMARK  Name = 
REMARK  5 active torsions:
REMARK  status: ('A' for Active; 'I' for Inactive)
REMARK    1  A    between atoms: C_3  and  N_4
REMARK    2  A    between atoms: N_4  and  C_5
REMARK    3  A    between atoms: N_12  and  C_15
REMARK    4  A    between atoms: C_17  and  C_21
REMARK    5  A    between atoms: C_21  and  O_22
REMARK                            x       y       z     vdW  Elec       q    Type
REMARK                         _______ _______ _______ _____ _____    ______ ____
ROOT
ATOM      1  C   UNL     1       9.664   2.148  23.489  0.00  0.00    +0.152 A 
ATOM      2  N   UNL     1       9.066   2.591  24.628  0.00  0.00    -0.198 NA
ATOM      3  C   UNL     1       8.255   1.771  25.317  0.00  0.00    +0.216 A 
ATOM      4  N   UNL     1       7.689   2.300  26.462  0.00  0.00    -0.327 N 
ATOM      5  H   UNL     1       7.687   3.308  26.389  0.00  0.00    +0.145 HD
ATOM      6  H   UNL     1       6.811   1.844  26.658  0.00  0.00    +0.145 HD
ATOM      7  N   UNL     1       7.913   0.511  24.994  0.00  0.00    -0.195 NA
ATOM      8  C   UNL     1       8.529   0.099  23.876  0.00  0.00    +0.168 A 
ATOM      9  N   UNL     1       8.441  -1.126  23.266  0.00  0.00    -0.308 N 
ATOM     10  C   UNL     1       9.276  -1.094  22.176  0.00  0.00    +0.202 A 
ATOM     11  N   UNL     1       9.860   0.076  22.029  0.00  0.00    -0.231 NA
ATOM     12  C   UNL     1       9.396   0.830  23.085  0.00  0.00    +0.148 A 
ENDROOT
BRANCH   9  13
ATOM     13  C   UNL     1       7.598  -2.226  23.708  0.00  0.00    +0.113 C 
ATOM     14  C   UNL     1       6.159  -2.061  23.306  0.00  0.00    -0.006 C 
ATOM     15  C   UNL     1       5.815  -2.893  22.315  0.00  0.00    -0.023 C 
ATOM     16  C   UNL     1       6.964  -3.771  21.901  0.00  0.00    +0.039 C 
ATOM     17  C   UNL     1       7.952  -3.580  23.066  0.00  0.00    +0.039 C 
BRANCH  16  18
ATOM     18  C   UNL     1       6.569  -5.238  21.710  0.00  0.00    +0.163 C 
BRANCH  18  19
ATOM     19  O   UNL     1       5.979  -5.435  20.428  0.00  0.00    -0.394 OA
ATOM     20  H   UNL     1       5.662  -4.571  20.114  0.00  0.00    +0.209 HD
ENDBRANCH  18  19
ENDBRANCH  16  18
ENDBRANCH   9  13
BRANCH   1  21
ATOM     21  N   UNL     1      10.544   2.969  22.756  0.00  0.00    -0.324 N 
ATOM     22  H   UNL     1      10.914   2.444  21.965  0.00  0.00    +0.148 HD
BRANCH  21  24
ATOM     23  C   UNL     1      11.205   5.337  23.532  0.00  0.00    +0.024 C 
ATOM     24  C   UNL     1      11.442   3.855  23.491  0.00  0.00    +0.072 C 
ATOM     25  C   UNL     1      12.363   4.785  22.753  0.00  0.00    +0.024 C 
ENDBRANCH  21  24
ENDBRANCH   1  21
TORSDOF 5
ENDMDL
MODEL 8
REMARK VINA RESULT:      -6.1      1.788      2.539
REMARK  Name = 
REMARK  5 active torsions:
REMARK  status: ('A' for Active; 'I' for Inactive)
REMARK    1  A    between atoms: C_3  and  N_4
REMARK    2  A    between atoms: N_4  and  C_5
REMARK    3  A    between atoms: N_12  and  C_15
REMARK    4  A    between atoms: C_17  and  C_21
REMARK    5  A    between atoms: C_21  and  O_22
REMARK                            x       y       z     vdW  Elec       q    Type
REMARK                         _______ _______ _______ _____ _____    ______ ____
ROOT
ATOM      1  C   UNL     1       7.740  -3.684  23.632  0.00  0.00    +0.152 A 
ATOM      2  N   UNL     1       7.093  -3.804  24.823  0.00  0.00    -0.198 NA
ATOM      3  C   UNL     1       7.213  -2.835  25.746  0.00  0.00    +0.216 A 
ATOM      4  N   UNL     1       6.523  -3.035  26.927  0.00  0.00    -0.327 N 
ATOM      5  H   UNL     1       6.350  -4.025  27.040  0.00  0.00    +0.145 HD
ATOM      6  H   UNL     1       6.983  -2.553  27.684  0.00  0.00    +0.145 HD
ATOM      7  N   UNL     1       7.953  -1.716  25.654  0.00  0.00    -0.195 NA
ATOM      8  C   UNL     1       8.566  -1.621  24.465  0.00  0.00    +0.168 A 
ATOM      9  N   UNL     1       9.376  -0.611  24.011  0.00  0.00    -0.308 N 
ATOM     10  C   UNL     1       9.738  -0.932  22.726  0.00  0.00    +0.202 A 
ATOM     11  N   UNL     1       9.245  -2.091  22.344  0.00  0.00    -0.231 NA
ATOM     12  C   UNL     1       8.514  -2.531  23.426  0.00  0.00    +0.148 A 
ENDROOT
BRANCH   9  13
ATOM     13  C   UNL     1       9.771   0.559  24.780  0.00  0.00    +0.113 C 
ATOM     14  C   UNL     1      11.015   1.216  24.253  0.00  0.00    -0.006 C 
ATOM     15  C   UNL     1      10.749   2.371  23.631  0.00  0.00    -0.023 C 
ATOM     16  C   UNL     1       9.279   2.692  23.657  0.00  0.00    +0.039 C 
ATOM     17  C   UNL     1       8.755   1.714  24.724  0.00  0.00    +0.039 C 
BRANCH  16  18
ATOM     18  C   UNL     1       8.982   4.151  24.010  0.00  0.00    +0.163 C 
BRANCH  18  19
ATOM     19  O   UNL     1       8.596   4.880  22.848  0.00  0.00    -0.394 OA
ATOM     20  H   UNL     1       9.266   4.716  22.162  0.00  0.00    +0.209 HD
ENDBRANCH  18  19
ENDBRANCH  16  18
ENDBRANCH   9  13
BRANCH   1  21
ATOM     21  N   UNL     1       7.615  -4.666  22.628  0.00  0.00    -0.324 N 
ATOM     22  H   UNL     1       8.491  -4.733  22.112  0.00  0.00    +0.148 HD
BRANCH  21  24
ATOM     23  C   UNL     1       5.318  -5.769  22.242  0.00  0.00    +0.024 C 
ATOM     24  C   UNL     1       6.358  -4.747  21.889  0.00  0.00    +0.072 C 
ATOM     25  C   UNL     1       6.095  -5.902  20.965  0.00  0.00    +0.024 C 
ENDBRANCH  21  24
ENDBRANCH   1  21
TORSDOF 5
ENDMDL
MODEL 9
REMARK VINA RESULT:      -6.1      3.864      8.150
REMARK  Name = 
REMARK  5 active torsions:
REMARK  status: ('A' for Active; 'I' for Inactive)
REMARK    1  A    between atoms: C_3  and  N_4
REMARK    2  A    between atoms: N_4  and  C_5
REMARK    3  A    between atoms: N_12  and  C_15
REMARK    4  A    between atoms: C_17  and  C_21
REMARK    5  A    between atoms: C_21  and  O_22
REMARK                            x       y       z     vdW  Elec       q    Type
REMARK                         _______ _______ _______ _____ _____    ______ ____
ROOT
ATOM      1  C   UNL     1       9.150   4.189  23.690  0.00  0.00    +0.152 A 
ATOM      2  N   UNL     1       7.994   4.499  23.046  0.00  0.00    -0.198 NA
ATOM      3  C   UNL     1       7.311   3.537  22.402  0.00  0.00    +0.216 A 
ATOM      4  N   UNL     1       6.146   3.938  21.775  0.00  0.00    -0.327 N 
ATOM      5  H   UNL     1       6.197   4.932  21.595  0.00  0.00    +0.145 HD
ATOM      6  H   UNL     1       5.946   3.332  20.993  0.00  0.00    +0.145 HD
ATOM      7  N   UNL     1       7.656   2.243  22.279  0.00  0.00    -0.195 NA
ATOM      8  C   UNL     1       8.791   1.966  22.937  0.00  0.00    +0.168 A 
ATOM      9  N   UNL     1       9.426   0.756  23.053  0.00  0.00    -0.308 N 
ATOM     10  C   UNL     1      10.528   0.953  23.849  0.00  0.00    +0.202 A 
ATOM     11  N   UNL     1      10.658   2.210  24.217  0.00  0.00    -0.231 NA
ATOM     12  C   UNL     1       9.579   2.852  23.648  0.00  0.00    +0.148 A 
ENDROOT
BRANCH   9  13
ATOM     13  C   UNL     1       8.995  -0.482  22.422  0.00  0.00    +0.113 C 
ATOM     14  C   UNL     1      10.023  -1.575  22.508  0.00  0.00    -0.006 C 
ATOM     15  C   UNL     1       9.678  -2.522  23.388  0.00  0.00    -0.023 C 
ATOM     16  C   UNL     1       8.346  -2.232  24.025  0.00  0.00    +0.039 C 
ATOM     17  C   UNL     1       7.780  -1.138  23.103  0.00  0.00    +0.039 C 
BRANCH  16  18
ATOM     18  C   UNL     1       7.432  -3.457  24.103  0.00  0.00    +0.163 C 
BRANCH  18  19
ATOM     19  O   UNL     1       7.839  -4.448  23.164  0.00  0.00    -0.394 OA
ATOM     20  H   UNL     1       7.248  -5.213  23.269  0.00  0.00    +0.209 HD
ENDBRANCH  18  19
ENDBRANCH  16  18
ENDBRANCH   9  13
BRANCH   1  21
ATOM     21  N   UNL     1       9.879   5.164  24.400  0.00  0.00    -0.324 N 
ATOM     22  H   UNL     1       9.243   5.688  25.000  0.00  0.00    +0.148 HD
BRANCH  21  24
ATOM     23  C   UNL     1      12.278   5.253  23.464  0.00  0.00    +0.024 C 
ATOM     24  C   UNL     1      10.938   5.885  23.701  0.00  0.00    +0.072 C 
ATOM     25  C   UNL     1      12.145   6.375  24.451  0.00  0.00    +0.024 C 
ENDBRANCH  21  24
ENDBRANCH   1  21
TORSDOF 5
ENDMDL
