MODEL 1
REMARK VINA RESULT:      -7.1      0.000      0.000
REMARK  Name = 
REMARK  15 active torsions:
REMARK  status: ('A' for Active; 'I' for Inactive)
REMARK    1  A    between atoms: C_1  and  C_2
REMARK    2  A    between atoms: C_2  and  C_3
REMARK    3  A    between atoms: C_3  and  C_4
REMARK    4  A    between atoms: C_4  and  C_35
REMARK    5  A    between atoms: C_6  and  O_34
REMARK    6  A    between atoms: C_7  and  C_11
REMARK    7  A    between atoms: C_11  and  C_12
REMARK    8  A    between atoms: C_11  and  C_14
REMARK    9  A    between atoms: C_12  and  C_13
REMARK   10  A    between atoms: C_16  and  N_20
REMARK   11  A    between atoms: N_20  and  S_21
REMARK   12  A    between atoms: S_21  and  C_24
REMARK   13  A    between atoms: C_27  and  C_30
REMARK   14  A    between atoms: C_35  and  C_36
REMARK   15  A    between atoms: C_36  and  C_37
REMARK                            x       y       z     vdW  Elec       q    Type
REMARK                         _______ _______ _______ _____ _____    ______ ____
ROOT
ATOM      1  C   UNL     1       6.967   1.090  26.521  0.00  0.00    +0.059 C 
ENDROOT
BRANCH   1   6
ATOM      2  C   UNL     1       9.498  -1.168  23.689  0.00  0.00    +0.121 C 
ATOM      3  O   UNL     1       9.817  -0.646  25.002  0.00  0.00    -0.454 OA
ATOM      4  C   UNL     1       8.855  -0.577  25.942  0.00  0.00    +0.339 C 
ATOM      5  O   UNL     1       9.036  -0.956  27.092  0.00  0.00    -0.245 OA
ATOM      6  C   UNL     1       7.633   0.138  25.504  0.00  0.00    +0.081 C 
ATOM      7  C   UNL     1       7.209  -0.227  24.279  0.00  0.00    +0.108 C 
ATOM      8  C   UNL     1       7.978  -1.164  23.396  0.00  0.00    +0.122 C 
BRANCH   7   9
ATOM      9  O   UNL     1       6.012   0.216  23.765  0.00  0.00    -0.510 OA
ATOM     10  H   UNL     1       5.880  -0.103  22.857  0.00  0.00    +0.292 HD
ENDBRANCH   7   9
BRANCH   2  11
ATOM     11  C   UNL     1      10.000  -2.642  23.673  0.00  0.00    +0.048 C 
BRANCH  11  13
ATOM     12  C   UNL     1       9.445  -4.526  25.274  0.00  0.00    +0.004 C 
ATOM     13  C   UNL     1       8.955  -3.681  24.108  0.00  0.00    +0.000 C 
ENDBRANCH  11  13
ENDBRANCH   2  11
BRANCH   2  14
ATOM     14  C   UNL     1      10.272  -0.310  22.652  0.00  0.00    +0.053 C 
BRANCH  14  15
ATOM     15  C   UNL     1       9.365   0.494  21.709  0.00  0.00    +0.039 C 
BRANCH  15  16
ATOM     16  C   UNL     1       9.035   1.857  22.270  0.00  0.00    -0.047 A 
ATOM     17  C   UNL     1       7.877   2.530  21.861  0.00  0.00    +0.003 A 
ATOM     18  C   UNL     1       7.572   3.790  22.379  0.00  0.00    +0.000 A 
ATOM     19  C   UNL     1       8.420   4.384  23.313  0.00  0.00    +0.000 A 
ATOM     20  C   UNL     1       9.570   3.719  23.732  0.00  0.00    +0.000 A 
ATOM     21  C   UNL     1       9.875   2.459  23.216  0.00  0.00    +0.003 A 
ENDBRANCH  15  16
ENDBRANCH  14  15
ENDBRANCH   2  14
ENDBRANCH   1   6
BRANCH   1  22
ATOM     22  C   UNL     1       5.843   0.409  27.320  0.00  0.00    -0.038 A 
ATOM     23  C   UNL     1       5.399   0.954  28.539  0.00  0.00    +0.004 A 
ATOM     24  C   UNL     1       4.237   0.477  29.150  0.00  0.00    +0.002 A 
ATOM     25  C   UNL     1       3.521  -0.572  28.573  0.00  0.00    +0.024 A 
ATOM     26  C   UNL     1       3.988  -1.172  27.404  0.00  0.00    +0.048 A 
ATOM     27  C   UNL     1       5.136  -0.681  26.774  0.00  0.00    +0.028 A 
BRANCH  26  28
ATOM     28  N   UNL     1       3.239  -2.230  26.800  0.00  0.00    -0.215 N 
ATOM     29  H   UNL     1       3.051  -2.126  25.800  0.00  0.00    +0.174 HD
BRANCH  28  30
ATOM     30  S   UNL     1       3.799  -3.813  27.098  0.00  0.00    +0.090 S 
ATOM     31  O   UNL     1       2.660  -4.686  27.290  0.00  0.00    -0.148 OA
ATOM     32  O   UNL     1       4.881  -3.747  28.062  0.00  0.00    -0.148 OA
BRANCH  30  33
ATOM     33  C   UNL     1       4.559  -4.265  25.528  0.00  0.00    +0.197 A 
ATOM     34  C   UNL     1       4.575  -3.357  24.480  0.00  0.00    +0.050 A 
ATOM     35  C   UNL     1       5.205  -3.751  23.302  0.00  0.00    +0.017 A 
ATOM     36  C   UNL     1       5.799  -5.020  23.215  0.00  0.00    +0.073 A 
ATOM     37  C   UNL     1       5.707  -5.855  24.326  0.00  0.00    +0.125 A 
ATOM     38  N   UNL     1       5.089  -5.520  25.484  0.00  0.00    -0.235 NA
BRANCH  36  39
ATOM     39  C   UNL     1       6.516  -5.469  21.973  0.00  0.00    +0.419 C 
ATOM     40  F   UNL     1       7.482  -6.391  22.236  0.00  0.00    -0.166 F 
ATOM     41  F   UNL     1       7.140  -4.444  21.332  0.00  0.00    -0.166 F 
ATOM     42  F   UNL     1       5.695  -6.042  21.050  0.00  0.00    -0.166 F 
ENDBRANCH  36  39
ENDBRANCH  30  33
ENDBRANCH  28  30
ENDBRANCH  26  28
ENDBRANCH   1  22
BRANCH   1  43
ATOM     43  C   UNL     1       6.457   2.412  25.868  0.00  0.00    +0.010 C 
ATOM     44  C   UNL     1       7.012   3.688  26.497  0.00  0.00    +0.005 C 
ENDBRANCH   1  43
TORSDOF 13
ENDMDL
MODEL 2
REMARK VINA RESULT:      -7.0      1.728      4.054
REMARK  Name = 
REMARK  15 active torsions:
REMARK  status: ('A' for Active; 'I' for Inactive)
REMARK    1  A    between atoms: C_1  and  C_2
REMARK    2  A    between atoms: C_2  and  C_3
REMARK    3  A    between atoms: C_3  and  C_4
REMARK    4  A    between atoms: C_4  and  C_35
REMARK    5  A    between atoms: C_6  and  O_34
REMARK    6  A    between atoms: C_7  and  C_11
REMARK    7  A    between atoms: C_11  and  C_12
REMARK    8  A    between atoms: C_11  and  C_14
REMARK    9  A    between atoms: C_12  and  C_13
REMARK   10  A    between atoms: C_16  and  N_20
REMARK   11  A    between atoms: N_20  and  S_21
REMARK   12  A    between atoms: S_21  and  C_24
REMARK   13  A    between atoms: C_27  and  C_30
REMARK   14  A    between atoms: C_35  and  C_36
REMARK   15  A    between atoms: C_36  and  C_37
REMARK                            x       y       z     vdW  Elec       q    Type
REMARK                         _______ _______ _______ _____ _____    ______ ____
ROOT
ATOM      1  C   UNL     1       5.854  -0.628  24.901  0.00  0.00    +0.059 C 
ENDROOT
BRANCH   1   6
ATOM      2  C   UNL     1       7.452   3.477  24.546  0.00  0.00    +0.121 C 
ATOM      3  O   UNL     1       6.339   2.854  23.860  0.00  0.00    -0.454 OA
ATOM      4  C   UNL     1       5.612   1.911  24.489  0.00  0.00    +0.339 C 
ATOM      5  O   UNL     1       4.387   1.914  24.476  0.00  0.00    -0.245 OA
ATOM      6  C   UNL     1       6.417   0.802  25.051  0.00  0.00    +0.081 C 
ATOM      7  C   UNL     1       7.512   1.218  25.717  0.00  0.00    +0.108 C 
ATOM      8  C   UNL     1       7.939   2.655  25.764  0.00  0.00    +0.122 C 
BRANCH   7   9
ATOM      9  O   UNL     1       8.300   0.346  26.432  0.00  0.00    -0.510 OA
ATOM     10  H   UNL     1       7.761  -0.240  26.988  0.00  0.00    +0.292 HD
ENDBRANCH   7   9
BRANCH   2  11
ATOM     11  C   UNL     1       6.934   4.853  25.056  0.00  0.00    +0.048 C 
BRANCH  11  13
ATOM     12  C   UNL     1       8.630   6.321  26.235  0.00  0.00    +0.004 C 
ATOM     13  C   UNL     1       7.515   5.300  26.405  0.00  0.00    +0.000 C 
ENDBRANCH  11  13
ENDBRANCH   2  11
BRANCH   2  14
ATOM     14  C   UNL     1       8.589   3.665  23.506  0.00  0.00    +0.053 C 
BRANCH  14  15
ATOM     15  C   UNL     1       9.862   2.869  23.824  0.00  0.00    +0.039 C 
BRANCH  15  16
ATOM     16  C   UNL     1       9.871   1.521  23.142  0.00  0.00    -0.047 A 
ATOM     17  C   UNL     1       9.272   1.358  21.887  0.00  0.00    +0.003 A 
ATOM     18  C   UNL     1       9.280   0.112  21.258  0.00  0.00    +0.000 A 
ATOM     19  C   UNL     1       9.890  -0.979  21.877  0.00  0.00    +0.000 A 
ATOM     20  C   UNL     1      10.495  -0.824  23.122  0.00  0.00    +0.000 A 
ATOM     21  C   UNL     1      10.489   0.421  23.752  0.00  0.00    +0.003 A 
ENDBRANCH  15  16
ENDBRANCH  14  15
ENDBRANCH   2  14
ENDBRANCH   1   6
BRANCH   1  22
ATOM     22  C   UNL     1       5.406  -1.230  26.244  0.00  0.00    -0.038 A 
ATOM     23  C   UNL     1       4.976  -0.397  27.294  0.00  0.00    +0.004 A 
ATOM     24  C   UNL     1       4.357  -0.938  28.422  0.00  0.00    +0.002 A 
ATOM     25  C   UNL     1       4.188  -2.319  28.536  0.00  0.00    +0.024 A 
ATOM     26  C   UNL     1       4.674  -3.163  27.538  0.00  0.00    +0.048 A 
ATOM     27  C   UNL     1       5.271  -2.624  26.393  0.00  0.00    +0.028 A 
BRANCH  26  28
ATOM     28  N   UNL     1       4.477  -4.575  27.644  0.00  0.00    -0.215 N 
ATOM     29  H   UNL     1       3.698  -4.957  27.101  0.00  0.00    +0.174 HD
BRANCH  28  30
ATOM     30  S   UNL     1       5.855  -5.548  27.394  0.00  0.00    +0.090 S 
ATOM     31  O   UNL     1       5.576  -6.888  27.867  0.00  0.00    -0.148 OA
ATOM     32  O   UNL     1       7.026  -4.812  27.832  0.00  0.00    -0.148 OA
BRANCH  30  33
ATOM     33  C   UNL     1       5.963  -5.627  25.598  0.00  0.00    +0.197 A 
ATOM     34  C   UNL     1       4.858  -6.013  24.854  0.00  0.00    +0.050 A 
ATOM     35  C   UNL     1       4.991  -6.025  23.468  0.00  0.00    +0.017 A 
ATOM     36  C   UNL     1       6.206  -5.645  22.877  0.00  0.00    +0.073 A 
ATOM     37  C   UNL     1       7.254  -5.291  23.724  0.00  0.00    +0.125 A 
ATOM     38  N   UNL     1       7.175  -5.284  25.077  0.00  0.00    -0.235 NA
BRANCH  36  39
ATOM     39  C   UNL     1       6.380  -5.613  21.385  0.00  0.00    +0.419 C 
ATOM     40  F   UNL     1       7.657  -5.890  21.004  0.00  0.00    -0.166 F 
ATOM     41  F   UNL     1       6.085  -4.396  20.853  0.00  0.00    -0.166 F 
ATOM     42  F   UNL     1       5.593  -6.508  20.728  0.00  0.00    -0.166 F 
ENDBRANCH  36  39
ENDBRANCH  30  33
ENDBRANCH  28  30
ENDBRANCH  26  28
ENDBRANCH   1  22
BRANCH   1  43
ATOM     43  C   UNL     1       6.836  -1.591  24.165  0.00  0.00    +0.010 C 
ATOM     44  C   UNL     1       6.456  -1.906  22.721  0.00  0.00    +0.005 C 
ENDBRANCH   1  43
TORSDOF 13
ENDMDL
MODEL 3
REMARK VINA RESULT:      -6.8      1.822      4.277
REMARK  Name = 
REMARK  15 active torsions:
REMARK  status: ('A' for Active; 'I' for Inactive)
REMARK    1  A    between atoms: C_1  and  C_2
REMARK    2  A    between atoms: C_2  and  C_3
REMARK    3  A    between atoms: C_3  and  C_4
REMARK    4  A    between atoms: C_4  and  C_35
REMARK    5  A    between atoms: C_6  and  O_34
REMARK    6  A    between atoms: C_7  and  C_11
REMARK    7  A    between atoms: C_11  and  C_12
REMARK    8  A    between atoms: C_11  and  C_14
REMARK    9  A    between atoms: C_12  and  C_13
REMARK   10  A    between atoms: C_16  and  N_20
REMARK   11  A    between atoms: N_20  and  S_21
REMARK   12  A    between atoms: S_21  and  C_24
REMARK   13  A    between atoms: C_27  and  C_30
REMARK   14  A    between atoms: C_35  and  C_36
REMARK   15  A    between atoms: C_36  and  C_37
REMARK                            x       y       z     vdW  Elec       q    Type
REMARK                         _______ _______ _______ _____ _____    ______ ____
ROOT
ATOM      1  C   UNL     1       5.539  -0.126  25.231  0.00  0.00    +0.059 C 
ENDROOT
BRANCH   1   6
ATOM      2  C   UNL     1       7.662   3.599  24.164  0.00  0.00    +0.121 C 
ATOM      3  O   UNL     1       6.620   2.891  23.450  0.00  0.00    -0.454 OA
ATOM      4  C   UNL     1       5.683   2.212  24.140  0.00  0.00    +0.339 C 
ATOM      5  O   UNL     1       4.490   2.296  23.880  0.00  0.00    -0.245 OA
ATOM      6  C   UNL     1       6.236   1.247  25.119  0.00  0.00    +0.081 C 
ATOM      7  C   UNL     1       7.239   1.753  25.863  0.00  0.00    +0.108 C 
ATOM      8  C   UNL     1       7.823   3.113  25.624  0.00  0.00    +0.122 C 
BRANCH   7   9
ATOM      9  O   UNL     1       7.777   1.058  26.922  0.00  0.00    -0.510 OA
ATOM     10  H   UNL     1       8.138   0.205  26.634  0.00  0.00    +0.292 HD
ENDBRANCH   7   9
BRANCH   2  11
ATOM     11  C   UNL     1       7.234   5.096  24.187  0.00  0.00    +0.048 C 
BRANCH  11  13
ATOM     12  C   UNL     1       7.240   6.305  21.960  0.00  0.00    +0.004 C 
ATOM     13  C   UNL     1       8.020   6.004  23.230  0.00  0.00    +0.000 C 
ENDBRANCH  11  13
ENDBRANCH   2  11
BRANCH   2  14
ATOM     14  C   UNL     1       8.978   3.413  23.362  0.00  0.00    +0.053 C 
BRANCH  14  15
ATOM     15  C   UNL     1       8.834   2.511  22.128  0.00  0.00    +0.039 C 
BRANCH  15  16
ATOM     16  C   UNL     1       9.355   1.117  22.384  0.00  0.00    -0.047 A 
ATOM     17  C   UNL     1       9.309   0.147  21.375  0.00  0.00    +0.003 A 
ATOM     18  C   UNL     1       9.791  -1.142  21.613  0.00  0.00    +0.000 A 
ATOM     19  C   UNL     1      10.324  -1.469  22.858  0.00  0.00    +0.000 A 
ATOM     20  C   UNL     1      10.380  -0.509  23.866  0.00  0.00    +0.000 A 
ATOM     21  C   UNL     1       9.901   0.780  23.630  0.00  0.00    +0.003 A 
ENDBRANCH  15  16
ENDBRANCH  14  15
ENDBRANCH   2  14
ENDBRANCH   1   6
BRANCH   1  22
ATOM     22  C   UNL     1       4.796  -0.304  26.566  0.00  0.00    -0.038 A 
ATOM     23  C   UNL     1       3.805   0.615  26.962  0.00  0.00    +0.004 A 
ATOM     24  C   UNL     1       2.973   0.338  28.049  0.00  0.00    +0.002 A 
ATOM     25  C   UNL     1       3.139  -0.839  28.778  0.00  0.00    +0.024 A 
ATOM     26  C   UNL     1       4.164  -1.725  28.444  0.00  0.00    +0.048 A 
ATOM     27  C   UNL     1       4.982  -1.466  27.340  0.00  0.00    +0.028 A 
BRANCH  26  28
ATOM     28  N   UNL     1       4.316  -2.944  29.176  0.00  0.00    -0.215 N 
ATOM     29  H   UNL     1       3.915  -2.950  30.117  0.00  0.00    +0.174 HD
BRANCH  28  30
ATOM     30  S   UNL     1       3.851  -4.371  28.367  0.00  0.00    +0.090 S 
ATOM     31  O   UNL     1       2.674  -4.096  27.569  0.00  0.00    -0.148 OA
ATOM     32  O   UNL     1       3.893  -5.472  29.310  0.00  0.00    -0.148 OA
BRANCH  30  33
ATOM     33  C   UNL     1       5.218  -4.642  27.226  0.00  0.00    +0.197 A 
ATOM     34  C   UNL     1       4.968  -4.806  25.872  0.00  0.00    +0.050 A 
ATOM     35  C   UNL     1       6.067  -4.980  25.034  0.00  0.00    +0.017 A 
ATOM     36  C   UNL     1       7.364  -4.973  25.570  0.00  0.00    +0.073 A 
ATOM     37  C   UNL     1       7.495  -4.816  26.947  0.00  0.00    +0.125 A 
ATOM     38  N   UNL     1       6.454  -4.663  27.801  0.00  0.00    -0.235 NA
BRANCH  36  39
ATOM     39  C   UNL     1       8.577  -5.125  24.696  0.00  0.00    +0.419 C 
ATOM     40  F   UNL     1       8.268  -5.587  23.453  0.00  0.00    -0.166 F 
ATOM     41  F   UNL     1       9.482  -6.003  25.208  0.00  0.00    -0.166 F 
ATOM     42  F   UNL     1       9.255  -3.961  24.502  0.00  0.00    -0.166 F 
ENDBRANCH  36  39
ENDBRANCH  30  33
ENDBRANCH  28  30
ENDBRANCH  26  28
ENDBRANCH   1  22
BRANCH   1  43
ATOM     43  C   UNL     1       6.509  -1.321  24.976  0.00  0.00    +0.010 C 
ATOM     44  C   UNL     1       6.680  -1.700  23.508  0.00  0.00    +0.005 C 
ENDBRANCH   1  43
TORSDOF 13
ENDMDL
MODEL 4
REMARK VINA RESULT:      -6.7      2.688      6.141
REMARK  Name = 
REMARK  15 active torsions:
REMARK  status: ('A' for Active; 'I' for Inactive)
REMARK    1  A    between atoms: C_1  and  C_2
REMARK    2  A    between atoms: C_2  and  C_3
REMARK    3  A    between atoms: C_3  and  C_4
REMARK    4  A    between atoms: C_4  and  C_35
REMARK    5  A    between atoms: C_6  and  O_34
REMARK    6  A    between atoms: C_7  and  C_11
REMARK    7  A    between atoms: C_11  and  C_12
REMARK    8  A    between atoms: C_11  and  C_14
REMARK    9  A    between atoms: C_12  and  C_13
REMARK   10  A    between atoms: C_16  and  N_20
REMARK   11  A    between atoms: N_20  and  S_21
REMARK   12  A    between atoms: S_21  and  C_24
REMARK   13  A    between atoms: C_27  and  C_30
REMARK   14  A    between atoms: C_35  and  C_36
REMARK   15  A    between atoms: C_36  and  C_37
REMARK                            x       y       z     vdW  Elec       q    Type
REMARK                         _______ _______ _______ _____ _____    ______ ____
ROOT
ATOM      1  C   UNL     1       6.572   3.689  23.954  0.00  0.00    +0.059 C 
ENDROOT
BRANCH   1   6
ATOM      2  C   UNL     1       5.570   0.711  27.062  0.00  0.00    +0.121 C 
ATOM      3  O   UNL     1       6.822   1.391  26.800  0.00  0.00    -0.454 OA
ATOM      4  C   UNL     1       6.810   2.643  26.305  0.00  0.00    +0.339 C 
ATOM      5  O   UNL     1       7.516   3.533  26.761  0.00  0.00    -0.245 OA
ATOM      6  C   UNL     1       5.996   2.799  25.077  0.00  0.00    +0.081 C 
ATOM      7  C   UNL     1       4.790   2.203  25.153  0.00  0.00    +0.108 C 
ATOM      8  C   UNL     1       4.375   1.352  26.317  0.00  0.00    +0.122 C 
BRANCH   7   9
ATOM      9  O   UNL     1       3.839   2.363  24.172  0.00  0.00    -0.510 OA
ATOM     10  H   UNL     1       3.118   1.720  24.274  0.00  0.00    +0.292 HD
ENDBRANCH   7   9
BRANCH   2  11
ATOM     11  C   UNL     1       5.320   0.835  28.594  0.00  0.00    +0.048 C 
BRANCH  11  13
ATOM     12  C   UNL     1       3.268   0.505  30.043  0.00  0.00    +0.004 C 
ATOM     13  C   UNL     1       4.309  -0.170  29.163  0.00  0.00    +0.000 C 
ENDBRANCH  11  13
ENDBRANCH   2  11
BRANCH   2  14
ATOM     14  C   UNL     1       5.757  -0.774  26.651  0.00  0.00    +0.053 C 
BRANCH  14  15
ATOM     15  C   UNL     1       7.224  -1.216  26.563  0.00  0.00    +0.039 C 
BRANCH  15  16
ATOM     16  C   UNL     1       7.364  -2.720  26.593  0.00  0.00    -0.047 A 
ATOM     17  C   UNL     1       6.227  -3.536  26.652  0.00  0.00    +0.003 A 
ATOM     18  C   UNL     1       6.357  -4.925  26.680  0.00  0.00    +0.000 A 
ATOM     19  C   UNL     1       7.622  -5.509  26.645  0.00  0.00    +0.000 A 
ATOM     20  C   UNL     1       8.758  -4.706  26.579  0.00  0.00    +0.000 A 
ATOM     21  C   UNL     1       8.631  -3.316  26.550  0.00  0.00    +0.003 A 
ENDBRANCH  15  16
ENDBRANCH  14  15
ENDBRANCH   2  14
ENDBRANCH   1   6
BRANCH   1  22
ATOM     22  C   UNL     1       7.896   3.146  23.391  0.00  0.00    -0.038 A 
ATOM     23  C   UNL     1       9.100   3.848  23.590  0.00  0.00    +0.004 A 
ATOM     24  C   UNL     1      10.327   3.255  23.285  0.00  0.00    +0.002 A 
ATOM     25  C   UNL     1      10.371   1.969  22.746  0.00  0.00    +0.024 A 
ATOM     26  C   UNL     1       9.184   1.289  22.474  0.00  0.00    +0.048 A 
ATOM     27  C   UNL     1       7.953   1.867  22.802  0.00  0.00    +0.028 A 
BRANCH  26  28
ATOM     28  N   UNL     1       9.231  -0.039  21.946  0.00  0.00    -0.215 N 
ATOM     29  H   UNL     1       9.745  -0.149  21.068  0.00  0.00    +0.174 HD
BRANCH  28  30
ATOM     30  S   UNL     1       9.716  -1.263  23.029  0.00  0.00    +0.090 S 
ATOM     31  O   UNL     1       9.814  -0.701  24.360  0.00  0.00    -0.148 OA
ATOM     32  O   UNL     1      10.811  -2.003  22.431  0.00  0.00    -0.148 OA
BRANCH  30  33
ATOM     33  C   UNL     1       8.302  -2.379  23.023  0.00  0.00    +0.197 A 
ATOM     34  C   UNL     1       7.017  -1.868  22.918  0.00  0.00    +0.050 A 
ATOM     35  C   UNL     1       5.966  -2.781  22.887  0.00  0.00    +0.017 A 
ATOM     36  C   UNL     1       6.230  -4.158  22.950  0.00  0.00    +0.073 A 
ATOM     37  C   UNL     1       7.560  -4.556  23.070  0.00  0.00    +0.125 A 
ATOM     38  N   UNL     1       8.612  -3.703  23.124  0.00  0.00    -0.235 NA
BRANCH  36  39
ATOM     39  C   UNL     1       5.127  -5.175  22.886  0.00  0.00    +0.419 C 
ATOM     40  F   UNL     1       3.893  -4.612  23.005  0.00  0.00    -0.166 F 
ATOM     41  F   UNL     1       5.214  -6.101  23.880  0.00  0.00    -0.166 F 
ATOM     42  F   UNL     1       5.104  -5.879  21.721  0.00  0.00    -0.166 F 
ENDBRANCH  36  39
ENDBRANCH  30  33
ENDBRANCH  28  30
ENDBRANCH  26  28
ENDBRANCH   1  22
BRANCH   1  43
ATOM     43  C   UNL     1       6.724   5.181  24.382  0.00  0.00    +0.010 C 
ATOM     44  C   UNL     1       5.699   6.128  23.765  0.00  0.00    +0.005 C 
ENDBRANCH   1  43
TORSDOF 13
ENDMDL
MODEL 5
REMARK VINA RESULT:      -6.6      2.411      4.017
REMARK  Name = 
REMARK  15 active torsions:
REMARK  status: ('A' for Active; 'I' for Inactive)
REMARK    1  A    between atoms: C_1  and  C_2
REMARK    2  A    between atoms: C_2  and  C_3
REMARK    3  A    between atoms: C_3  and  C_4
REMARK    4  A    between atoms: C_4  and  C_35
REMARK    5  A    between atoms: C_6  and  O_34
REMARK    6  A    between atoms: C_7  and  C_11
REMARK    7  A    between atoms: C_11  and  C_12
REMARK    8  A    between atoms: C_11  and  C_14
REMARK    9  A    between atoms: C_12  and  C_13
REMARK   10  A    between atoms: C_16  and  N_20
REMARK   11  A    between atoms: N_20  and  S_21
REMARK   12  A    between atoms: S_21  and  C_24
REMARK   13  A    between atoms: C_27  and  C_30
REMARK   14  A    between atoms: C_35  and  C_36
REMARK   15  A    between atoms: C_36  and  C_37
REMARK                            x       y       z     vdW  Elec       q    Type
REMARK                         _______ _______ _______ _____ _____    ______ ____
ROOT
ATOM      1  C   UNL     1       4.906  -3.485  28.041  0.00  0.00    +0.059 C 
ENDROOT
BRANCH   1   6
ATOM      2  C   UNL     1       8.311  -2.220  25.524  0.00  0.00    +0.121 C 
ATOM      3  O   UNL     1       8.299  -3.015  26.734  0.00  0.00    -0.454 OA
ATOM      4  C   UNL     1       7.247  -3.814  26.997  0.00  0.00    +0.339 C 
ATOM      5  O   UNL     1       7.382  -4.973  27.367  0.00  0.00    -0.245 OA
ATOM      6  C   UNL     1       5.938  -3.121  26.952  0.00  0.00    +0.081 C 
ATOM      7  C   UNL     1       5.793  -2.318  25.879  0.00  0.00    +0.108 C 
ATOM      8  C   UNL     1       6.902  -2.052  24.906  0.00  0.00    +0.122 C 
BRANCH   7   9
ATOM      9  O   UNL     1       4.594  -1.708  25.588  0.00  0.00    -0.510 OA
ATOM     10  H   UNL     1       3.900  -1.984  26.208  0.00  0.00    +0.292 HD
ENDBRANCH   7   9
BRANCH   2  11
ATOM     11  C   UNL     1       9.207  -2.985  24.507  0.00  0.00    +0.048 C 
BRANCH  11  13
ATOM     12  C   UNL     1       9.771  -1.892  22.293  0.00  0.00    +0.004 C 
ATOM     13  C   UNL     1      10.201  -2.105  23.736  0.00  0.00    +0.000 C 
ENDBRANCH  11  13
ENDBRANCH   2  11
BRANCH   2  14
ATOM     14  C   UNL     1       8.933  -0.844  25.883  0.00  0.00    +0.053 C 
BRANCH  14  15
ATOM     15  C   UNL     1       8.082   0.358  25.449  0.00  0.00    +0.039 C 
BRANCH  15  16
ATOM     16  C   UNL     1       8.622   1.010  24.199  0.00  0.00    -0.047 A 
ATOM     17  C   UNL     1       7.861   1.026  23.022  0.00  0.00    +0.003 A 
ATOM     18  C   UNL     1       8.361   1.629  21.867  0.00  0.00    +0.000 A 
ATOM     19  C   UNL     1       9.622   2.223  21.879  0.00  0.00    +0.000 A 
ATOM     20  C   UNL     1      10.383   2.219  23.047  0.00  0.00    +0.000 A 
ATOM     21  C   UNL     1       9.884   1.618  24.203  0.00  0.00    +0.003 A 
ENDBRANCH  15  16
ENDBRANCH  14  15
ENDBRANCH   2  14
ENDBRANCH   1   6
BRANCH   1  22
ATOM     22  C   UNL     1       3.960  -4.616  27.604  0.00  0.00    -0.038 A 
ATOM     23  C   UNL     1       3.921  -5.832  28.313  0.00  0.00    +0.004 A 
ATOM     24  C   UNL     1       2.913  -6.766  28.067  0.00  0.00    +0.002 A 
ATOM     25  C   UNL     1       1.951  -6.519  27.087  0.00  0.00    +0.024 A 
ATOM     26  C   UNL     1       2.019  -5.353  26.325  0.00  0.00    +0.048 A 
ATOM     27  C   UNL     1       3.010  -4.401  26.586  0.00  0.00    +0.028 A 
BRANCH  26  28
ATOM     28  N   UNL     1       1.017  -5.090  25.339  0.00  0.00    -0.215 N 
ATOM     29  H   UNL     1       0.811  -4.102  25.168  0.00  0.00    +0.174 HD
BRANCH  28  30
ATOM     30  S   UNL     1       1.208  -5.883  23.842  0.00  0.00    +0.090 S 
ATOM     31  O   UNL     1       0.579  -5.090  22.807  0.00  0.00    -0.148 OA
ATOM     32  O   UNL     1       0.898  -7.289  24.021  0.00  0.00    -0.148 OA
BRANCH  30  33
ATOM     33  C   UNL     1       2.987  -5.798  23.573  0.00  0.00    +0.197 A 
ATOM     34  C   UNL     1       3.794  -6.864  23.939  0.00  0.00    +0.050 A 
ATOM     35  C   UNL     1       5.158  -6.753  23.677  0.00  0.00    +0.017 A 
ATOM     36  C   UNL     1       5.662  -5.600  23.057  0.00  0.00    +0.073 A 
ATOM     37  C   UNL     1       4.759  -4.584  22.749  0.00  0.00    +0.125 A 
ATOM     38  N   UNL     1       3.429  -4.641  23.002  0.00  0.00    -0.235 NA
BRANCH  36  39
ATOM     39  C   UNL     1       7.121  -5.456  22.729  0.00  0.00    +0.419 C 
ATOM     40  F   UNL     1       7.413  -4.245  22.180  0.00  0.00    -0.166 F 
ATOM     41  F   UNL     1       7.547  -6.387  21.832  0.00  0.00    -0.166 F 
ATOM     42  F   UNL     1       7.936  -5.581  23.812  0.00  0.00    -0.166 F 
ENDBRANCH  36  39
ENDBRANCH  30  33
ENDBRANCH  28  30
ENDBRANCH  26  28
ENDBRANCH   1  22
BRANCH   1  43
ATOM     43  C   UNL     1       4.095  -2.251  28.544  0.00  0.00    +0.010 C 
ATOM     44  C   UNL     1       3.303  -2.490  29.827  0.00  0.00    +0.005 C 
ENDBRANCH   1  43
TORSDOF 13
ENDMDL
MODEL 6
REMARK VINA RESULT:      -6.5      4.441      7.802
REMARK  Name = 
REMARK  15 active torsions:
REMARK  status: ('A' for Active; 'I' for Inactive)
REMARK    1  A    between atoms: C_1  and  C_2
REMARK    2  A    between atoms: C_2  and  C_3
REMARK    3  A    between atoms: C_3  and  C_4
REMARK    4  A    between atoms: C_4  and  C_35
REMARK    5  A    between atoms: C_6  and  O_34
REMARK    6  A    between atoms: C_7  and  C_11
REMARK    7  A    between atoms: C_11  and  C_12
REMARK    8  A    between atoms: C_11  and  C_14
REMARK    9  A    between atoms: C_12  and  C_13
REMARK   10  A    between atoms: C_16  and  N_20
REMARK   11  A    between atoms: N_20  and  S_21
REMARK   12  A    between atoms: S_21  and  C_24
REMARK   13  A    between atoms: C_27  and  C_30
REMARK   14  A    between atoms: C_35  and  C_36
REMARK   15  A    between atoms: C_36  and  C_37
REMARK                            x       y       z     vdW  Elec       q    Type
REMARK                         _______ _______ _______ _____ _____    ______ ____
ROOT
ATOM      1  C   UNL     1       5.968   0.246  26.136  0.00  0.00    +0.059 C 
ENDROOT
BRANCH   1   6
ATOM      2  C   UNL     1       9.045  -1.829  23.738  0.00  0.00    +0.121 C 
ATOM      3  O   UNL     1       7.647  -1.590  23.444  0.00  0.00    -0.454 OA
ATOM      4  C   UNL     1       7.051  -0.473  23.903  0.00  0.00    +0.339 C 
ATOM      5  O   UNL     1       6.340   0.227  23.194  0.00  0.00    -0.245 OA
ATOM      6  C   UNL     1       7.202  -0.265  25.362  0.00  0.00    +0.081 C 
ATOM      7  C   UNL     1       8.459  -0.465  25.805  0.00  0.00    +0.108 C 
ATOM      8  C   UNL     1       9.559  -0.980  24.926  0.00  0.00    +0.122 C 
BRANCH   7   9
ATOM      9  O   UNL     1       8.825  -0.178  27.100  0.00  0.00    -0.510 OA
ATOM     10  H   UNL     1       9.599  -0.699  27.370  0.00  0.00    +0.292 HD
ENDBRANCH   7   9
BRANCH   2  11
ATOM     11  C   UNL     1       9.835  -1.418  22.460  0.00  0.00    +0.048 C 
BRANCH  11  13
ATOM     12  C   UNL     1       9.372   0.874  21.483  0.00  0.00    +0.004 C 
ATOM     13  C   UNL     1      10.257   0.058  22.413  0.00  0.00    +0.000 C 
ENDBRANCH  11  13
ENDBRANCH   2  11
BRANCH   2  14
ATOM     14  C   UNL     1       9.204  -3.346  24.021  0.00  0.00    +0.053 C 
BRANCH  14  15
ATOM     15  C   UNL     1       7.976  -4.184  23.637  0.00  0.00    +0.039 C 
BRANCH  15  16
ATOM     16  C   UNL     1       7.282  -4.758  24.850  0.00  0.00    -0.047 A 
ATOM     17  C   UNL     1       5.994  -5.297  24.741  0.00  0.00    +0.003 A 
ATOM     18  C   UNL     1       5.354  -5.827  25.862  0.00  0.00    +0.000 A 
ATOM     19  C   UNL     1       5.996  -5.825  27.099  0.00  0.00    +0.000 A 
ATOM     20  C   UNL     1       7.280  -5.298  27.216  0.00  0.00    +0.000 A 
ATOM     21  C   UNL     1       7.923  -4.769  26.096  0.00  0.00    +0.003 A 
ENDBRANCH  15  16
ENDBRANCH  14  15
ENDBRANCH   2  14
ENDBRANCH   1   6
BRANCH   1  22
ATOM     22  C   UNL     1       6.073   1.738  26.496  0.00  0.00    -0.038 A 
ATOM     23  C   UNL     1       6.777   2.150  27.643  0.00  0.00    +0.004 A 
ATOM     24  C   UNL     1       7.071   3.499  27.851  0.00  0.00    +0.002 A 
ATOM     25  C   UNL     1       6.636   4.460  26.937  0.00  0.00    +0.024 A 
ATOM     26  C   UNL     1       5.874   4.076  25.834  0.00  0.00    +0.048 A 
ATOM     27  C   UNL     1       5.601   2.723  25.607  0.00  0.00    +0.028 A 
BRANCH  26  28
ATOM     28  N   UNL     1       5.452   5.059  24.886  0.00  0.00    -0.215 N 
ATOM     29  H   UNL     1       5.613   6.033  25.154  0.00  0.00    +0.174 HD
BRANCH  28  30
ATOM     30  S   UNL     1       5.981   4.832  23.280  0.00  0.00    +0.090 S 
ATOM     31  O   UNL     1       5.562   5.966  22.483  0.00  0.00    -0.148 OA
ATOM     32  O   UNL     1       5.682   3.469  22.884  0.00  0.00    -0.148 OA
BRANCH  30  33
ATOM     33  C   UNL     1       7.773   4.922  23.438  0.00  0.00    +0.197 A 
ATOM     34  C   UNL     1       8.513   3.762  23.607  0.00  0.00    +0.050 A 
ATOM     35  C   UNL     1       9.897   3.892  23.691  0.00  0.00    +0.017 A 
ATOM     36  C   UNL     1      10.490   5.160  23.594  0.00  0.00    +0.073 A 
ATOM     37  C   UNL     1       9.646   6.258  23.441  0.00  0.00    +0.125 A 
ATOM     38  N   UNL     1       8.295   6.180  23.373  0.00  0.00    -0.235 NA
BRANCH  36  39
ATOM     39  C   UNL     1      11.980   5.338  23.647  0.00  0.00    +0.419 C 
ATOM     40  F   UNL     1      12.647   4.151  23.626  0.00  0.00    -0.166 F 
ATOM     41  F   UNL     1      12.388   5.978  24.777  0.00  0.00    -0.166 F 
ATOM     42  F   UNL     1      12.478   6.063  22.607  0.00  0.00    -0.166 F 
ENDBRANCH  36  39
ENDBRANCH  30  33
ENDBRANCH  28  30
ENDBRANCH  26  28
ENDBRANCH   1  22
BRANCH   1  43
ATOM     43  C   UNL     1       5.652  -0.607  27.404  0.00  0.00    +0.010 C 
ATOM     44  C   UNL     1       5.320  -2.070  27.121  0.00  0.00    +0.005 C 
ENDBRANCH   1  43
TORSDOF 13
ENDMDL
MODEL 7
REMARK VINA RESULT:      -6.5      4.348      7.069
REMARK  Name = 
REMARK  15 active torsions:
REMARK  status: ('A' for Active; 'I' for Inactive)
REMARK    1  A    between atoms: C_1  and  C_2
REMARK    2  A    between atoms: C_2  and  C_3
REMARK    3  A    between atoms: C_3  and  C_4
REMARK    4  A    between atoms: C_4  and  C_35
REMARK    5  A    between atoms: C_6  and  O_34
REMARK    6  A    between atoms: C_7  and  C_11
REMARK    7  A    between atoms: C_11  and  C_12
REMARK    8  A    between atoms: C_11  and  C_14
REMARK    9  A    between atoms: C_12  and  C_13
REMARK   10  A    between atoms: C_16  and  N_20
REMARK   11  A    between atoms: N_20  and  S_21
REMARK   12  A    between atoms: S_21  and  C_24
REMARK   13  A    between atoms: C_27  and  C_30
REMARK   14  A    between atoms: C_35  and  C_36
REMARK   15  A    between atoms: C_36  and  C_37
REMARK                            x       y       z     vdW  Elec       q    Type
REMARK                         _______ _______ _______ _____ _____    ______ ____
ROOT
ATOM      1  C   UNL     1       6.314  -0.185  26.789  0.00  0.00    +0.059 C 
ENDROOT
BRANCH   1   6
ATOM      2  C   UNL     1       6.583  -3.621  24.023  0.00  0.00    +0.121 C 
ATOM      3  O   UNL     1       6.727  -3.579  25.463  0.00  0.00    -0.454 OA
ATOM      4  C   UNL     1       6.023  -2.679  26.177  0.00  0.00    +0.339 C 
ATOM      5  O   UNL     1       5.418  -2.983  27.197  0.00  0.00    -0.245 OA
ATOM      6  C   UNL     1       6.181  -1.282  25.710  0.00  0.00    +0.081 C 
ATOM      7  C   UNL     1       6.087  -1.150  24.372  0.00  0.00    +0.108 C 
ATOM      8  C   UNL     1       5.971  -2.322  23.445  0.00  0.00    +0.122 C 
BRANCH   7   9
ATOM      9  O   UNL     1       6.060   0.086  23.766  0.00  0.00    -0.510 OA
ATOM     10  H   UNL     1       5.197   0.256  23.355  0.00  0.00    +0.292 HD
ENDBRANCH   7   9
BRANCH   2  11
ATOM     11  C   UNL     1       5.615  -4.801  23.716  0.00  0.00    +0.048 C 
BRANCH  11  13
ATOM     12  C   UNL     1       3.238  -4.720  24.591  0.00  0.00    +0.004 C 
ATOM     13  C   UNL     1       4.165  -4.386  23.432  0.00  0.00    +0.000 C 
ENDBRANCH  11  13
ENDBRANCH   2  11
BRANCH   2  14
ATOM     14  C   UNL     1       7.991  -3.892  23.427  0.00  0.00    +0.053 C 
BRANCH  14  15
ATOM     15  C   UNL     1       9.120  -3.116  24.120  0.00  0.00    +0.039 C 
BRANCH  15  16
ATOM     16  C   UNL     1       9.429  -1.817  23.414  0.00  0.00    -0.047 A 
ATOM     17  C   UNL     1       9.114  -1.654  22.059  0.00  0.00    +0.003 A 
ATOM     18  C   UNL     1       9.399  -0.453  21.408  0.00  0.00    +0.000 A 
ATOM     19  C   UNL     1       9.998   0.595  22.106  0.00  0.00    +0.000 A 
ATOM     20  C   UNL     1      10.309   0.444  23.456  0.00  0.00    +0.000 A 
ATOM     21  C   UNL     1      10.022  -0.755  24.109  0.00  0.00    +0.003 A 
ENDBRANCH  15  16
ENDBRANCH  14  15
ENDBRANCH   2  14
ENDBRANCH   1   6
BRANCH   1  22
ATOM     22  C   UNL     1       5.421   1.035  26.504  0.00  0.00    -0.038 A 
ATOM     23  C   UNL     1       4.025   0.952  26.657  0.00  0.00    +0.004 A 
ATOM     24  C   UNL     1       3.236   2.104  26.625  0.00  0.00    +0.002 A 
ATOM     25  C   UNL     1       3.823   3.350  26.404  0.00  0.00    +0.024 A 
ATOM     26  C   UNL     1       5.197   3.441  26.178  0.00  0.00    +0.048 A 
ATOM     27  C   UNL     1       5.995   2.294  26.236  0.00  0.00    +0.028 A 
BRANCH  26  28
ATOM     28  N   UNL     1       5.800   4.722  25.978  0.00  0.00    -0.215 N 
ATOM     29  H   UNL     1       6.676   4.883  26.482  0.00  0.00    +0.174 HD
BRANCH  28  30
ATOM     30  S   UNL     1       5.993   5.218  24.358  0.00  0.00    +0.090 S 
ATOM     31  O   UNL     1       5.580   6.601  24.238  0.00  0.00    -0.148 OA
ATOM     32  O   UNL     1       5.460   4.184  23.491  0.00  0.00    -0.148 OA
BRANCH  30  33
ATOM     33  C   UNL     1       7.780   5.175  24.142  0.00  0.00    +0.197 A 
ATOM     34  C   UNL     1       8.440   3.957  24.070  0.00  0.00    +0.050 A 
ATOM     35  C   UNL     1       9.819   3.986  23.870  0.00  0.00    +0.017 A 
ATOM     36  C   UNL     1      10.482   5.216  23.739  0.00  0.00    +0.073 A 
ATOM     37  C   UNL     1       9.720   6.377  23.844  0.00  0.00    +0.125 A 
ATOM     38  N   UNL     1       8.381   6.396  24.057  0.00  0.00    -0.235 NA
BRANCH  36  39
ATOM     39  C   UNL     1      11.962   5.289  23.490  0.00  0.00    +0.419 C 
ATOM     40  F   UNL     1      12.554   4.064  23.516  0.00  0.00    -0.166 F 
ATOM     41  F   UNL     1      12.610   6.039  24.423  0.00  0.00    -0.166 F 
ATOM     42  F   UNL     1      12.283   5.833  22.285  0.00  0.00    -0.166 F 
ENDBRANCH  36  39
ENDBRANCH  30  33
ENDBRANCH  28  30
ENDBRANCH  26  28
ENDBRANCH   1  22
BRANCH   1  43
ATOM     43  C   UNL     1       7.792   0.255  27.026  0.00  0.00    +0.010 C 
ATOM     44  C   UNL     1       8.778  -0.896  27.205  0.00  0.00    +0.005 C 
ENDBRANCH   1  43
TORSDOF 13
ENDMDL
MODEL 8
REMARK VINA RESULT:      -6.4      3.269      5.446
REMARK  Name = 
REMARK  15 active torsions:
REMARK  status: ('A' for Active; 'I' for Inactive)
REMARK    1  A    between atoms: C_1  and  C_2
REMARK    2  A    between atoms: C_2  and  C_3
REMARK    3  A    between atoms: C_3  and  C_4
REMARK    4  A    between atoms: C_4  and  C_35
REMARK    5  A    between atoms: C_6  and  O_34
REMARK    6  A    between atoms: C_7  and  C_11
REMARK    7  A    between atoms: C_11  and  C_12
REMARK    8  A    between atoms: C_11  and  C_14
REMARK    9  A    between atoms: C_12  and  C_13
REMARK   10  A    between atoms: C_16  and  N_20
REMARK   11  A    between atoms: N_20  and  S_21
REMARK   12  A    between atoms: S_21  and  C_24
REMARK   13  A    between atoms: C_27  and  C_30
REMARK   14  A    between atoms: C_35  and  C_36
REMARK   15  A    between atoms: C_36  and  C_37
REMARK                            x       y       z     vdW  Elec       q    Type
REMARK                         _______ _______ _______ _____ _____    ______ ____
ROOT
ATOM      1  C   UNL     1       7.554  -3.407  24.758  0.00  0.00    +0.059 C 
ENDROOT
BRANCH   1   6
ATOM      2  C   UNL     1       8.576   0.836  24.070  0.00  0.00    +0.121 C 
ATOM      3  O   UNL     1       9.390  -0.238  24.598  0.00  0.00    -0.454 OA
ATOM      4  C   UNL     1       9.192  -1.499  24.167  0.00  0.00    +0.339 C 
ATOM      5  O   UNL     1      10.117  -2.232  23.842  0.00  0.00    -0.245 OA
ATOM      6  C   UNL     1       7.788  -1.960  24.275  0.00  0.00    +0.081 C 
ATOM      7  C   UNL     1       6.892  -1.057  23.832  0.00  0.00    +0.108 C 
ATOM      8  C   UNL     1       7.276   0.328  23.402  0.00  0.00    +0.122 C 
BRANCH   7   9
ATOM      9  O   UNL     1       5.555  -1.360  23.716  0.00  0.00    -0.510 OA
ATOM     10  H   UNL     1       5.360  -2.236  24.087  0.00  0.00    +0.292 HD
ENDBRANCH   7   9
BRANCH   2  11
ATOM     11  C   UNL     1       9.441   1.546  22.987  0.00  0.00    +0.048 C 
BRANCH  11  13
ATOM     12  C   UNL     1      11.062   3.468  23.301  0.00  0.00    +0.004 C 
ATOM     13  C   UNL     1      10.839   1.972  23.459  0.00  0.00    +0.000 C 
ENDBRANCH  11  13
ENDBRANCH   2  11
BRANCH   2  14
ATOM     14  C   UNL     1       8.263   1.799  25.246  0.00  0.00    +0.053 C 
BRANCH  14  15
ATOM     15  C   UNL     1       7.161   2.823  24.937  0.00  0.00    +0.039 C 
BRANCH  15  16
ATOM     16  C   UNL     1       7.731   4.164  24.539  0.00  0.00    -0.047 A 
ATOM     17  C   UNL     1       7.525   4.667  23.249  0.00  0.00    +0.003 A 
ATOM     18  C   UNL     1       8.053   5.906  22.882  0.00  0.00    +0.000 A 
ATOM     19  C   UNL     1       8.787   6.652  23.802  0.00  0.00    +0.000 A 
ATOM     20  C   UNL     1       8.991   6.163  25.090  0.00  0.00    +0.000 A 
ATOM     21  C   UNL     1       8.463   4.925  25.459  0.00  0.00    +0.003 A 
ENDBRANCH  15  16
ENDBRANCH  14  15
ENDBRANCH   2  14
ENDBRANCH   1   6
BRANCH   1  22
ATOM     22  C   UNL     1       6.908  -4.293  23.679  0.00  0.00    -0.038 A 
ATOM     23  C   UNL     1       7.473  -4.381  22.393  0.00  0.00    +0.004 A 
ATOM     24  C   UNL     1       7.032  -5.349  21.488  0.00  0.00    +0.002 A 
ATOM     25  C   UNL     1       5.999  -6.218  21.838  0.00  0.00    +0.024 A 
ATOM     26  C   UNL     1       5.379  -6.096  23.081  0.00  0.00    +0.048 A 
ATOM     27  C   UNL     1       5.835  -5.146  24.002  0.00  0.00    +0.028 A 
BRANCH  26  28
ATOM     28  N   UNL     1       4.338  -7.004  23.448  0.00  0.00    -0.215 N 
ATOM     29  H   UNL     1       4.583  -7.697  24.160  0.00  0.00    +0.174 HD
BRANCH  28  30
ATOM     30  S   UNL     1       2.835  -6.305  23.851  0.00  0.00    +0.090 S 
ATOM     31  O   UNL     1       1.846  -7.355  23.973  0.00  0.00    -0.148 OA
ATOM     32  O   UNL     1       2.621  -5.149  23.000  0.00  0.00    -0.148 OA
BRANCH  30  33
ATOM     33  C   UNL     1       3.132  -5.656  25.504  0.00  0.00    +0.197 A 
ATOM     34  C   UNL     1       3.615  -6.492  26.500  0.00  0.00    +0.050 A 
ATOM     35  C   UNL     1       3.855  -5.926  27.750  0.00  0.00    +0.017 A 
ATOM     36  C   UNL     1       3.618  -4.559  27.958  0.00  0.00    +0.073 A 
ATOM     37  C   UNL     1       3.117  -3.819  26.890  0.00  0.00    +0.125 A 
ATOM     38  N   UNL     1       2.851  -4.331  25.663  0.00  0.00    -0.235 NA
BRANCH  36  39
ATOM     39  C   UNL     1       3.896  -3.905  29.282  0.00  0.00    +0.419 C 
ATOM     40  F   UNL     1       2.823  -3.950  30.119  0.00  0.00    -0.166 F 
ATOM     41  F   UNL     1       4.217  -2.588  29.155  0.00  0.00    -0.166 F 
ATOM     42  F   UNL     1       4.925  -4.476  29.964  0.00  0.00    -0.166 F 
ENDBRANCH  36  39
ENDBRANCH  30  33
ENDBRANCH  28  30
ENDBRANCH  26  28
ENDBRANCH   1  22
BRANCH   1  43
ATOM     43  C   UNL     1       6.741  -3.478  26.089  0.00  0.00    +0.010 C 
ATOM     44  C   UNL     1       7.243  -4.518  27.086  0.00  0.00    +0.005 C 
ENDBRANCH   1  43
TORSDOF 13
ENDMDL
MODEL 9
REMARK VINA RESULT:      -6.4      2.870      5.466
REMARK  Name = 
REMARK  15 active torsions:
REMARK  status: ('A' for Active; 'I' for Inactive)
REMARK    1  A    between atoms: C_1  and  C_2
REMARK    2  A    between atoms: C_2  and  C_3
REMARK    3  A    between atoms: C_3  and  C_4
REMARK    4  A    between atoms: C_4  and  C_35
REMARK    5  A    between atoms: C_6  and  O_34
REMARK    6  A    between atoms: C_7  and  C_11
REMARK    7  A    between atoms: C_11  and  C_12
REMARK    8  A    between atoms: C_11  and  C_14
REMARK    9  A    between atoms: C_12  and  C_13
REMARK   10  A    between atoms: C_16  and  N_20
REMARK   11  A    between atoms: N_20  and  S_21
REMARK   12  A    between atoms: S_21  and  C_24
REMARK   13  A    between atoms: C_27  and  C_30
REMARK   14  A    between atoms: C_35  and  C_36
REMARK   15  A    between atoms: C_36  and  C_37
REMARK                            x       y       z     vdW  Elec       q    Type
REMARK                         _______ _______ _______ _____ _____    ______ ____
ROOT
ATOM      1  C   UNL     1       6.031  -4.955  22.745  0.00  0.00    +0.059 C 
ENDROOT
BRANCH   1   6
ATOM      2  C   UNL     1       8.894  -1.882  24.120  0.00  0.00    +0.121 C 
ATOM      3  O   UNL     1       7.602  -1.726  23.484  0.00  0.00    -0.454 OA
ATOM      4  C   UNL     1       6.634  -2.634  23.709  0.00  0.00    +0.339 C 
ATOM      5  O   UNL     1       5.483  -2.312  23.973  0.00  0.00    -0.245 OA
ATOM      6  C   UNL     1       7.049  -4.034  23.453  0.00  0.00    +0.081 C 
ATOM      7  C   UNL     1       8.253  -4.341  23.974  0.00  0.00    +0.108 C 
ATOM      8  C   UNL     1       9.139  -3.324  24.628  0.00  0.00    +0.122 C 
BRANCH   7   9
ATOM      9  O   UNL     1       8.738  -5.628  23.966  0.00  0.00    -0.510 OA
ATOM     10  H   UNL     1       9.578  -5.689  24.450  0.00  0.00    +0.292 HD
ENDBRANCH   7   9
BRANCH   2  11
ATOM     11  C   UNL     1       8.895  -0.921  25.345  0.00  0.00    +0.048 C 
BRANCH  11  13
ATOM     12  C   UNL     1       7.876   1.343  25.849  0.00  0.00    +0.004 C 
ATOM     13  C   UNL     1       7.600  -0.119  25.534  0.00  0.00    +0.000 C 
ENDBRANCH  11  13
ENDBRANCH   2  11
BRANCH   2  14
ATOM     14  C   UNL     1       9.971  -1.461  23.085  0.00  0.00    +0.053 C 
BRANCH  14  15
ATOM     15  C   UNL     1       9.424  -0.621  21.923  0.00  0.00    +0.039 C 
BRANCH  15  16
ATOM     16  C   UNL     1       9.262   0.832  22.303  0.00  0.00    -0.047 A 
ATOM     17  C   UNL     1       8.078   1.516  22.001  0.00  0.00    +0.003 A 
ATOM     18  C   UNL     1       7.930   2.859  22.352  0.00  0.00    +0.000 A 
ATOM     19  C   UNL     1       8.961   3.526  23.010  0.00  0.00    +0.000 A 
ATOM     20  C   UNL     1      10.140   2.852  23.320  0.00  0.00    +0.000 A 
ATOM     21  C   UNL     1      10.290   1.509  22.971  0.00  0.00    +0.003 A 
ENDBRANCH  15  16
ENDBRANCH  14  15
ENDBRANCH   2  14
ENDBRANCH   1   6
BRANCH   1  22
ATOM     22  C   UNL     1       5.053  -5.620  23.729  0.00  0.00    -0.038 A 
ATOM     23  C   UNL     1       3.765  -6.001  23.310  0.00  0.00    +0.004 A 
ATOM     24  C   UNL     1       2.962  -6.805  24.122  0.00  0.00    +0.002 A 
ATOM     25  C   UNL     1       3.417  -7.211  25.377  0.00  0.00    +0.024 A 
ATOM     26  C   UNL     1       4.662  -6.781  25.837  0.00  0.00    +0.048 A 
ATOM     27  C   UNL     1       5.481  -5.999  25.017  0.00  0.00    +0.028 A 
BRANCH  26  28
ATOM     28  N   UNL     1       5.138  -7.220  27.112  0.00  0.00    -0.215 N 
ATOM     29  H   UNL     1       6.147  -7.149  27.258  0.00  0.00    +0.174 HD
BRANCH  28  30
ATOM     30  S   UNL     1       4.335  -6.582  28.475  0.00  0.00    +0.090 S 
ATOM     31  O   UNL     1       5.188  -6.732  29.636  0.00  0.00    -0.148 OA
ATOM     32  O   UNL     1       2.964  -7.058  28.468  0.00  0.00    -0.148 OA
BRANCH  30  33
ATOM     33  C   UNL     1       4.252  -4.823  28.097  0.00  0.00    +0.197 A 
ATOM     34  C   UNL     1       3.021  -4.212  27.908  0.00  0.00    +0.050 A 
ATOM     35  C   UNL     1       3.019  -2.843  27.650  0.00  0.00    +0.017 A 
ATOM     36  C   UNL     1       4.231  -2.137  27.601  0.00  0.00    +0.073 A 
ATOM     37  C   UNL     1       5.408  -2.857  27.791  0.00  0.00    +0.125 A 
ATOM     38  N   UNL     1       5.458  -4.191  28.025  0.00  0.00    -0.235 NA
BRANCH  36  39
ATOM     39  C   UNL     1       4.268  -0.655  27.359  0.00  0.00    +0.419 C 
ATOM     40  F   UNL     1       5.303  -0.048  28.002  0.00  0.00    -0.166 F 
ATOM     41  F   UNL     1       3.139  -0.028  27.790  0.00  0.00    -0.166 F 
ATOM     42  F   UNL     1       4.400  -0.323  26.045  0.00  0.00    -0.166 F 
ENDBRANCH  36  39
ENDBRANCH  30  33
ENDBRANCH  28  30
ENDBRANCH  26  28
ENDBRANCH   1  22
BRANCH   1  43
ATOM     43  C   UNL     1       6.712  -6.024  21.836  0.00  0.00    +0.010 C 
ATOM     44  C   UNL     1       6.197  -6.060  20.399  0.00  0.00    +0.005 C 
ENDBRANCH   1  43
TORSDOF 13
ENDMDL
