MODEL 1
REMARK VINA RESULT:      -6.1      0.000      0.000
REMARK  Name = 
REMARK  11 active torsions:
REMARK  status: ('A' for Active; 'I' for Inactive)
REMARK    1  A    between atoms: C_1  and  C_2
REMARK    2  A    between atoms: N_4  and  C_5
REMARK    3  A    between atoms: C_7  and  N_25
REMARK    4  A    between atoms: C_10  and  C_22
REMARK    5  A    between atoms: C_12  and  C_14
REMARK    6  A    between atoms: C_14  and  C_16
REMARK    7  A    between atoms: C_14  and  O_21
REMARK    8  A    between atoms: C_16  and  C_18
REMARK    9  A    between atoms: C_16  and  O_20
REMARK   10  A    between atoms: C_18  and  O_19
REMARK   11  A    between atoms: C_22  and  O_24
REMARK                            x       y       z     vdW  Elec       q    Type
REMARK                         _______ _______ _______ _____ _____    ______ ____
ROOT
ATOM      1  C   UNL     1       7.958  -2.809  23.089  0.00  0.00    +0.160 C 
ATOM      2  C   UNL     1       8.230  -1.397  22.485  0.00  0.00    +0.229 C 
ATOM      3  O   UNL     1       7.365  -0.347  22.944  0.00  0.00    -0.477 OA
ATOM      4  C   UNL     1       6.921  -0.391  24.243  0.00  0.00    +0.204 C 
ATOM      5  C   UNL     1       6.954  -1.479  25.019  0.00  0.00    +0.071 C 
ATOM      6  C   UNL     1       7.420  -2.807  24.546  0.00  0.00    +0.238 C 
ENDROOT
BRANCH   6   7
ATOM      7  N   UNL     1       8.485  -3.284  25.440  0.00  0.00    -0.104 NA
ATOM      8  C   UNL     1       8.438  -4.458  25.943  0.00  0.00    +0.377 C 
ATOM      9  N   UNL     1       9.443  -4.892  26.735  0.00  0.00    -0.289 N 
ATOM     10  H   UNL     1       9.116  -5.414  27.538  0.00  0.00    +0.255 HD
ATOM     11  H   UNL     1      10.032  -4.116  27.021  0.00  0.00    +0.255 HD
ATOM     12  N   UNL     1       7.499  -5.425  25.846  0.00  0.00    -0.289 N 
ATOM     13  H   UNL     1       7.885  -6.360  25.777  0.00  0.00    +0.255 HD
ATOM     14  H   UNL     1       6.756  -5.277  25.178  0.00  0.00    +0.255 HD
ENDBRANCH   6   7
BRANCH   1  17
ATOM     15  C   UNL     1       6.218  -5.619  21.150  0.00  0.00    +0.109 C 
ATOM     16  C   UNL     1       7.195  -5.026  22.130  0.00  0.00    +0.210 C 
ATOM     17  N   UNL     1       7.127  -3.655  22.197  0.00  0.00    -0.305 N 
ATOM     18  H   UNL     1       6.607  -3.168  21.476  0.00  0.00    +0.149 HD
ATOM     19  O   UNL     1       7.943  -5.716  22.809  0.00  0.00    -0.276 OA
ENDBRANCH   1  17
BRANCH   4  20
ATOM     20  C   UNL     1       6.287   0.849  24.801  0.00  0.00    +0.372 C 
ATOM     21  O   UNL     1       6.884   1.850  25.165  0.00  0.00    -0.242 OA
BRANCH  20  22
ATOM     22  O   UNL     1       4.943   0.710  24.860  0.00  0.00    -0.475 OA
ATOM     23  H   UNL     1       4.519   1.377  24.271  0.00  0.00    +0.296 HD
ENDBRANCH  20  22
ENDBRANCH   4  20
BRANCH   2  24
ATOM     24  C   UNL     1       9.725  -0.964  22.568  0.00  0.00    +0.187 C 
BRANCH  24  25
ATOM     25  O   UNL     1      10.568  -1.891  21.860  0.00  0.00    -0.385 OA
ATOM     26  H   UNL     1      10.640  -1.597  20.934  0.00  0.00    +0.210 HD
ENDBRANCH  24  25
BRANCH  24  27
ATOM     27  C   UNL     1       9.978   0.456  21.988  0.00  0.00    +0.172 C 
BRANCH  27  28
ATOM     28  O   UNL     1       8.934   0.858  21.099  0.00  0.00    -0.387 OA
ATOM     29  H   UNL     1       8.586   1.703  21.451  0.00  0.00    +0.210 HD
ENDBRANCH  27  28
BRANCH  27  30
ATOM     30  C   UNL     1      10.116   1.525  23.087  0.00  0.00    +0.189 C 
BRANCH  30  31
ATOM     31  O   UNL     1       8.941   2.335  23.122  0.00  0.00    -0.392 OA
ATOM     32  H   UNL     1       8.408   2.035  23.882  0.00  0.00    +0.210 HD
ENDBRANCH  30  31
ENDBRANCH  27  30
ENDBRANCH  24  27
ENDBRANCH   2  24
TORSDOF 10
ENDMDL
MODEL 2
REMARK VINA RESULT:      -5.7      3.660      6.173
REMARK  Name = 
REMARK  11 active torsions:
REMARK  status: ('A' for Active; 'I' for Inactive)
REMARK    1  A    between atoms: C_1  and  C_2
REMARK    2  A    between atoms: N_4  and  C_5
REMARK    3  A    between atoms: C_7  and  N_25
REMARK    4  A    between atoms: C_10  and  C_22
REMARK    5  A    between atoms: C_12  and  C_14
REMARK    6  A    between atoms: C_14  and  C_16
REMARK    7  A    between atoms: C_14  and  O_21
REMARK    8  A    between atoms: C_16  and  C_18
REMARK    9  A    between atoms: C_16  and  O_20
REMARK   10  A    between atoms: C_18  and  O_19
REMARK   11  A    between atoms: C_22  and  O_24
REMARK                            x       y       z     vdW  Elec       q    Type
REMARK                         _______ _______ _______ _____ _____    ______ ____
ROOT
ATOM      1  C   UNL     1       8.789   2.262  24.054  0.00  0.00    +0.160 C 
ATOM      2  C   UNL     1       8.485   3.783  23.879  0.00  0.00    +0.229 C 
ATOM      3  O   UNL     1       9.612   4.662  24.026  0.00  0.00    -0.477 OA
ATOM      4  C   UNL     1      10.841   4.222  23.602  0.00  0.00    +0.204 C 
ATOM      5  C   UNL     1      11.147   2.942  23.365  0.00  0.00    +0.071 C 
ATOM      6  C   UNL     1      10.205   1.819  23.598  0.00  0.00    +0.238 C 
ENDROOT
BRANCH   6   7
ATOM      7  N   UNL     1      10.075   1.042  22.356  0.00  0.00    -0.104 NA
ATOM      8  C   UNL     1       9.945  -0.229  22.393  0.00  0.00    +0.377 C 
ATOM      9  N   UNL     1       9.792  -0.924  21.243  0.00  0.00    -0.289 N 
ATOM     10  H   UNL     1      10.317  -1.789  21.232  0.00  0.00    +0.255 HD
ATOM     11  H   UNL     1      10.029  -0.345  20.443  0.00  0.00    +0.255 HD
ATOM     12  N   UNL     1       9.946  -1.090  23.435  0.00  0.00    -0.289 N 
ATOM     13  H   UNL     1       9.279  -1.847  23.337  0.00  0.00    +0.255 HD
ATOM     14  H   UNL     1       9.924  -0.687  24.361  0.00  0.00    +0.255 HD
ENDBRANCH   6   7
BRANCH   1  17
ATOM     15  C   UNL     1       7.610   0.385  27.179  0.00  0.00    +0.109 C 
ATOM     16  C   UNL     1       7.756   0.640  25.703  0.00  0.00    +0.210 C 
ATOM     17  N   UNL     1       8.474   1.778  25.421  0.00  0.00    -0.305 N 
ATOM     18  H   UNL     1       8.657   2.426  26.178  0.00  0.00    +0.149 HD
ATOM     19  O   UNL     1       7.298  -0.116  24.859  0.00  0.00    -0.276 OA
ENDBRANCH   1  17
BRANCH   4  20
ATOM     20  C   UNL     1      11.933   5.240  23.468  0.00  0.00    +0.372 C 
ATOM     21  O   UNL     1      12.317   5.990  24.353  0.00  0.00    -0.242 OA
BRANCH  20  22
ATOM     22  O   UNL     1      12.442   5.231  22.216  0.00  0.00    -0.475 OA
ATOM     23  H   UNL     1      11.731   5.455  21.572  0.00  0.00    +0.296 HD
ENDBRANCH  20  22
ENDBRANCH   4  20
BRANCH   2  24
ATOM     24  C   UNL     1       7.687   4.110  22.580  0.00  0.00    +0.187 C 
BRANCH  24  25
ATOM     25  O   UNL     1       7.922   3.113  21.569  0.00  0.00    -0.385 OA
ATOM     26  H   UNL     1       8.351   2.345  21.988  0.00  0.00    +0.210 HD
ENDBRANCH  24  25
BRANCH  24  27
ATOM     27  C   UNL     1       6.154   4.202  22.819  0.00  0.00    +0.172 C 
BRANCH  27  28
ATOM     28  O   UNL     1       5.597   5.383  22.238  0.00  0.00    -0.387 OA
ATOM     29  H   UNL     1       5.470   6.015  22.974  0.00  0.00    +0.210 HD
ENDBRANCH  27  28
BRANCH  27  30
ATOM     30  C   UNL     1       5.397   2.984  22.260  0.00  0.00    +0.189 C 
BRANCH  30  31
ATOM     31  O   UNL     1       5.602   1.857  23.112  0.00  0.00    -0.392 OA
ATOM     32  H   UNL     1       4.883   1.861  23.772  0.00  0.00    +0.210 HD
ENDBRANCH  30  31
ENDBRANCH  27  30
ENDBRANCH  24  27
ENDBRANCH   2  24
TORSDOF 10
ENDMDL
MODEL 3
REMARK VINA RESULT:      -5.7      2.581      6.133
REMARK  Name = 
REMARK  11 active torsions:
REMARK  status: ('A' for Active; 'I' for Inactive)
REMARK    1  A    between atoms: C_1  and  C_2
REMARK    2  A    between atoms: N_4  and  C_5
REMARK    3  A    between atoms: C_7  and  N_25
REMARK    4  A    between atoms: C_10  and  C_22
REMARK    5  A    between atoms: C_12  and  C_14
REMARK    6  A    between atoms: C_14  and  C_16
REMARK    7  A    between atoms: C_14  and  O_21
REMARK    8  A    between atoms: C_16  and  C_18
REMARK    9  A    between atoms: C_16  and  O_20
REMARK   10  A    between atoms: C_18  and  O_19
REMARK   11  A    between atoms: C_22  and  O_24
REMARK                            x       y       z     vdW  Elec       q    Type
REMARK                         _______ _______ _______ _____ _____    ______ ____
ROOT
ATOM      1  C   UNL     1       7.349  -2.643  24.157  0.00  0.00    +0.160 C 
ATOM      2  C   UNL     1       7.260  -4.152  24.541  0.00  0.00    +0.229 C 
ATOM      3  O   UNL     1       6.407  -4.957  23.711  0.00  0.00    -0.477 OA
ATOM      4  C   UNL     1       6.322  -4.651  22.376  0.00  0.00    +0.204 C 
ATOM      5  C   UNL     1       6.701  -3.486  21.839  0.00  0.00    +0.071 C 
ATOM      6  C   UNL     1       7.207  -2.343  22.640  0.00  0.00    +0.238 C 
ENDROOT
BRANCH   6   7
ATOM      7  N   UNL     1       8.521  -1.940  22.117  0.00  0.00    -0.104 NA
ATOM      8  C   UNL     1       8.845  -0.706  22.046  0.00  0.00    +0.377 C 
ATOM      9  N   UNL     1      10.070  -0.356  21.596  0.00  0.00    -0.289 N 
ATOM     10  H   UNL     1      10.050   0.450  20.983  0.00  0.00    +0.255 HD
ATOM     11  H   UNL     1      10.523  -1.144  21.144  0.00  0.00    +0.255 HD
ATOM     12  N   UNL     1       8.143   0.411  22.340  0.00  0.00    -0.289 N 
ATOM     13  H   UNL     1       8.700   1.138  22.777  0.00  0.00    +0.255 HD
ATOM     14  H   UNL     1       7.257   0.286  22.809  0.00  0.00    +0.255 HD
ENDBRANCH   6   7
BRANCH   1  17
ATOM     15  C   UNL     1       5.648   0.059  26.274  0.00  0.00    +0.109 C 
ATOM     16  C   UNL     1       6.777  -0.581  25.512  0.00  0.00    +0.210 C 
ATOM     17  N   UNL     1       6.440  -1.799  24.972  0.00  0.00    -0.305 N 
ATOM     18  H   UNL     1       5.582  -2.238  25.285  0.00  0.00    +0.149 HD
ATOM     19  O   UNL     1       7.866  -0.041  25.377  0.00  0.00    -0.276 OA
ENDBRANCH   1  17
BRANCH   4  20
ATOM     20  C   UNL     1       5.689  -5.666  21.472  0.00  0.00    +0.372 C 
ATOM     21  O   UNL     1       5.933  -5.809  20.283  0.00  0.00    -0.242 OA
BRANCH  20  22
ATOM     22  O   UNL     1       4.788  -6.411  22.150  0.00  0.00    -0.475 OA
ATOM     23  H   UNL     1       5.255  -7.137  22.626  0.00  0.00    +0.296 HD
ENDBRANCH  20  22
ENDBRANCH   4  20
BRANCH   2  24
ATOM     24  C   UNL     1       8.654  -4.827  24.728  0.00  0.00    +0.187 C 
BRANCH  24  25
ATOM     25  O   UNL     1       9.715  -3.897  24.447  0.00  0.00    -0.385 OA
ATOM     26  H   UNL     1       9.527  -3.462  23.595  0.00  0.00    +0.210 HD
ENDBRANCH  24  25
BRANCH  24  27
ATOM     27  C   UNL     1       8.869  -5.384  26.163  0.00  0.00    +0.172 C 
BRANCH  27  28
ATOM     28  O   UNL     1      10.042  -4.842  26.771  0.00  0.00    -0.387 OA
ATOM     29  H   UNL     1      10.226  -4.000  26.306  0.00  0.00    +0.210 HD
ENDBRANCH  27  28
BRANCH  27  30
ATOM     30  C   UNL     1       7.670  -5.105  27.088  0.00  0.00    +0.189 C 
BRANCH  30  31
ATOM     31  O   UNL     1       7.474  -6.211  27.969  0.00  0.00    -0.392 OA
ATOM     32  H   UNL     1       8.289  -6.746  27.945  0.00  0.00    +0.210 HD
ENDBRANCH  30  31
ENDBRANCH  27  30
ENDBRANCH  24  27
ENDBRANCH   2  24
TORSDOF 10
ENDMDL
MODEL 4
REMARK VINA RESULT:      -5.6      2.217      3.934
REMARK  Name = 
REMARK  11 active torsions:
REMARK  status: ('A' for Active; 'I' for Inactive)
REMARK    1  A    between atoms: C_1  and  C_2
REMARK    2  A    between atoms: N_4  and  C_5
REMARK    3  A    between atoms: C_7  and  N_25
REMARK    4  A    between atoms: C_10  and  C_22
REMARK    5  A    between atoms: C_12  and  C_14
REMARK    6  A    between atoms: C_14  and  C_16
REMARK    7  A    between atoms: C_14  and  O_21
REMARK    8  A    between atoms: C_16  and  C_18
REMARK    9  A    between atoms: C_16  and  O_20
REMARK   10  A    between atoms: C_18  and  O_19
REMARK   11  A    between atoms: C_22  and  O_24
REMARK                            x       y       z     vdW  Elec       q    Type
REMARK                         _______ _______ _______ _____ _____    ______ ____
ROOT
ATOM      1  C   UNL     1       7.294  -3.138  23.086  0.00  0.00    +0.160 C 
ATOM      2  C   UNL     1       8.800  -2.732  23.051  0.00  0.00    +0.229 C 
ATOM      3  O   UNL     1       9.084  -1.444  22.481  0.00  0.00    -0.477 OA
ATOM      4  C   UNL     1       8.173  -0.435  22.670  0.00  0.00    +0.204 C 
ATOM      5  C   UNL     1       6.906  -0.619  23.052  0.00  0.00    +0.071 C 
ATOM      6  C   UNL     1       6.300  -1.958  23.261  0.00  0.00    +0.238 C 
ENDROOT
BRANCH   6   7
ATOM      7  N   UNL     1       5.734  -2.019  24.616  0.00  0.00    -0.104 NA
ATOM      8  C   UNL     1       4.776  -2.820  24.887  0.00  0.00    +0.377 C 
ATOM      9  N   UNL     1       4.291  -2.888  26.147  0.00  0.00    -0.289 N 
ATOM     10  H   UNL     1       3.281  -2.957  26.179  0.00  0.00    +0.255 HD
ATOM     11  H   UNL     1       4.618  -2.100  26.698  0.00  0.00    +0.255 HD
ATOM     12  N   UNL     1       4.083  -3.671  24.098  0.00  0.00    -0.289 N 
ATOM     13  H   UNL     1       3.854  -4.549  24.550  0.00  0.00    +0.255 HD
ATOM     14  H   UNL     1       4.431  -3.811  23.160  0.00  0.00    +0.255 HD
ENDBRANCH   6   7
BRANCH   1  17
ATOM     15  C   UNL     1       6.100  -5.921  20.739  0.00  0.00    +0.109 C 
ATOM     16  C   UNL     1       6.409  -5.281  22.065  0.00  0.00    +0.210 C 
ATOM     17  N   UNL     1       6.919  -4.010  21.945  0.00  0.00    -0.305 N 
ATOM     18  H   UNL     1       7.222  -3.704  21.029  0.00  0.00    +0.149 HD
ATOM     19  O   UNL     1       6.196  -5.843  23.131  0.00  0.00    -0.276 OA
ENDBRANCH   1  17
BRANCH   4  20
ATOM     20  C   UNL     1       8.613   0.963  22.350  0.00  0.00    +0.372 C 
ATOM     21  O   UNL     1       8.662   1.891  23.142  0.00  0.00    -0.242 OA
BRANCH  20  22
ATOM     22  O   UNL     1       8.944   1.070  21.043  0.00  0.00    -0.475 OA
ATOM     23  H   UNL     1       8.476   1.843  20.649  0.00  0.00    +0.296 HD
ENDBRANCH  20  22
ENDBRANCH   4  20
BRANCH   2  24
ATOM     24  C   UNL     1       9.521  -2.906  24.422  0.00  0.00    +0.187 C 
BRANCH  24  25
ATOM     25  O   UNL     1       9.085  -1.907  25.361  0.00  0.00    -0.385 OA
ATOM     26  H   UNL     1       9.716  -1.884  26.103  0.00  0.00    +0.210 HD
ENDBRANCH  24  25
BRANCH  24  27
ATOM     27  C   UNL     1       9.281  -4.304  25.059  0.00  0.00    +0.172 C 
BRANCH  27  28
ATOM     28  O   UNL     1      10.454  -5.118  25.010  0.00  0.00    -0.387 OA
ATOM     29  H   UNL     1      10.847  -5.083  25.906  0.00  0.00    +0.210 HD
ENDBRANCH  27  28
BRANCH  27  30
ATOM     30  C   UNL     1       8.817  -4.211  26.524  0.00  0.00    +0.189 C 
BRANCH  30  31
ATOM     31  O   UNL     1       7.430  -3.877  26.571  0.00  0.00    -0.392 OA
ATOM     32  H   UNL     1       6.969  -4.481  25.959  0.00  0.00    +0.210 HD
ENDBRANCH  30  31
ENDBRANCH  27  30
ENDBRANCH  24  27
ENDBRANCH   2  24
TORSDOF 10
ENDMDL
MODEL 5
REMARK VINA RESULT:      -5.5      2.171      4.015
REMARK  Name = 
REMARK  11 active torsions:
REMARK  status: ('A' for Active; 'I' for Inactive)
REMARK    1  A    between atoms: C_1  and  C_2
REMARK    2  A    between atoms: N_4  and  C_5
REMARK    3  A    between atoms: C_7  and  N_25
REMARK    4  A    between atoms: C_10  and  C_22
REMARK    5  A    between atoms: C_12  and  C_14
REMARK    6  A    between atoms: C_14  and  C_16
REMARK    7  A    between atoms: C_14  and  O_21
REMARK    8  A    between atoms: C_16  and  C_18
REMARK    9  A    between atoms: C_16  and  O_20
REMARK   10  A    between atoms: C_18  and  O_19
REMARK   11  A    between atoms: C_22  and  O_24
REMARK                            x       y       z     vdW  Elec       q    Type
REMARK                         _______ _______ _______ _____ _____    ______ ____
ROOT
ATOM      1  C   UNL     1       6.552  -3.512  24.969  0.00  0.00    +0.160 C 
ATOM      2  C   UNL     1       6.114  -2.539  23.831  0.00  0.00    +0.229 C 
ATOM      3  O   UNL     1       6.293  -1.140  24.106  0.00  0.00    -0.477 OA
ATOM      4  C   UNL     1       7.369  -0.759  24.868  0.00  0.00    +0.204 C 
ATOM      5  C   UNL     1       8.079  -1.584  25.644  0.00  0.00    +0.071 C 
ATOM      6  C   UNL     1       7.748  -3.020  25.830  0.00  0.00    +0.238 C 
ENDROOT
BRANCH   6   7
ATOM      7  N   UNL     1       8.929  -3.828  25.496  0.00  0.00    -0.104 NA
ATOM      8  C   UNL     1       9.077  -5.000  25.984  0.00  0.00    +0.377 C 
ATOM      9  N   UNL     1      10.153  -5.742  25.640  0.00  0.00    -0.289 N 
ATOM     10  H   UNL     1      10.552  -6.246  26.421  0.00  0.00    +0.255 HD
ATOM     11  H   UNL     1      10.853  -5.165  25.184  0.00  0.00    +0.255 HD
ATOM     12  N   UNL     1       8.320  -5.695  26.861  0.00  0.00    -0.289 N 
ATOM     13  H   UNL     1       8.256  -6.684  26.648  0.00  0.00    +0.255 HD
ATOM     14  H   UNL     1       7.419  -5.305  27.099  0.00  0.00    +0.255 HD
ENDBRANCH   6   7
BRANCH   1  17
ATOM     15  C   UNL     1       3.811  -5.391  26.874  0.00  0.00    +0.109 C 
ATOM     16  C   UNL     1       4.978  -5.245  25.936  0.00  0.00    +0.210 C 
ATOM     17  N   UNL     1       5.410  -3.946  25.811  0.00  0.00    -0.305 N 
ATOM     18  H   UNL     1       4.815  -3.210  26.173  0.00  0.00    +0.149 HD
ATOM     19  O   UNL     1       5.492  -6.202  25.374  0.00  0.00    -0.276 OA
ENDBRANCH   1  17
BRANCH   4  20
ATOM     20  C   UNL     1       7.722   0.699  24.888  0.00  0.00    +0.372 C 
ATOM     21  O   UNL     1       7.359   1.529  24.069  0.00  0.00    -0.242 OA
BRANCH  20  22
ATOM     22  O   UNL     1       8.518   0.981  25.944  0.00  0.00    -0.475 OA
ATOM     23  H   UNL     1       9.437   1.139  25.627  0.00  0.00    +0.296 HD
ENDBRANCH  20  22
ENDBRANCH   4  20
BRANCH   2  24
ATOM     24  C   UNL     1       6.702  -2.912  22.436  0.00  0.00    +0.187 C 
BRANCH  24  25
ATOM     25  O   UNL     1       8.114  -3.173  22.527  0.00  0.00    -0.385 OA
ATOM     26  H   UNL     1       8.339  -3.326  23.463  0.00  0.00    +0.210 HD
ENDBRANCH  24  25
BRANCH  24  27
ATOM     27  C   UNL     1       6.020  -4.161  21.807  0.00  0.00    +0.172 C 
BRANCH  27  28
ATOM     28  O   UNL     1       5.741  -3.969  20.419  0.00  0.00    -0.387 OA
ATOM     29  H   UNL     1       5.375  -3.064  20.337  0.00  0.00    +0.210 HD
ENDBRANCH  27  28
BRANCH  27  30
ATOM     30  C   UNL     1       6.872  -5.434  21.958  0.00  0.00    +0.189 C 
BRANCH  30  31
ATOM     31  O   UNL     1       6.041  -6.525  22.354  0.00  0.00    -0.392 OA
ATOM     32  H   UNL     1       5.721  -6.330  23.255  0.00  0.00    +0.210 HD
ENDBRANCH  30  31
ENDBRANCH  27  30
ENDBRANCH  24  27
ENDBRANCH   2  24
TORSDOF 10
ENDMDL
MODEL 6
REMARK VINA RESULT:      -5.5      2.011      4.953
REMARK  Name = 
REMARK  11 active torsions:
REMARK  status: ('A' for Active; 'I' for Inactive)
REMARK    1  A    between atoms: C_1  and  C_2
REMARK    2  A    between atoms: N_4  and  C_5
REMARK    3  A    between atoms: C_7  and  N_25
REMARK    4  A    between atoms: C_10  and  C_22
REMARK    5  A    between atoms: C_12  and  C_14
REMARK    6  A    between atoms: C_14  and  C_16
REMARK    7  A    between atoms: C_14  and  O_21
REMARK    8  A    between atoms: C_16  and  C_18
REMARK    9  A    between atoms: C_16  and  O_20
REMARK   10  A    between atoms: C_18  and  O_19
REMARK   11  A    between atoms: C_22  and  O_24
REMARK                            x       y       z     vdW  Elec       q    Type
REMARK                         _______ _______ _______ _____ _____    ______ ____
ROOT
ATOM      1  C   UNL     1       6.626  -2.891  24.569  0.00  0.00    +0.160 C 
ATOM      2  C   UNL     1       6.137  -2.269  23.225  0.00  0.00    +0.229 C 
ATOM      3  O   UNL     1       7.036  -1.333  22.609  0.00  0.00    -0.477 OA
ATOM      4  C   UNL     1       8.386  -1.545  22.739  0.00  0.00    +0.204 C 
ATOM      5  C   UNL     1       8.942  -2.351  23.649  0.00  0.00    +0.071 C 
ATOM      6  C   UNL     1       8.164  -3.075  24.686  0.00  0.00    +0.238 C 
ENDROOT
BRANCH   6   7
ATOM      7  N   UNL     1       8.472  -4.510  24.597  0.00  0.00    -0.104 NA
ATOM      8  C   UNL     1       9.080  -5.106  25.550  0.00  0.00    +0.377 C 
ATOM      9  N   UNL     1       9.325  -6.433  25.466  0.00  0.00    -0.289 N 
ATOM     10  H   UNL     1      10.245  -6.687  25.802  0.00  0.00    +0.255 HD
ATOM     11  H   UNL     1       9.181  -6.763  24.517  0.00  0.00    +0.255 HD
ATOM     12  N   UNL     1       9.583  -4.634  26.712  0.00  0.00    -0.289 N 
ATOM     13  H   UNL     1       9.456  -5.265  27.496  0.00  0.00    +0.255 HD
ATOM     14  H   UNL     1       9.354  -3.681  26.957  0.00  0.00    +0.255 HD
ENDBRANCH   6   7
BRANCH   1  17
ATOM     15  C   UNL     1       4.447  -1.348  27.317  0.00  0.00    +0.109 C 
ATOM     16  C   UNL     1       4.723  -2.096  26.041  0.00  0.00    +0.210 C 
ATOM     17  N   UNL     1       6.064  -2.193  25.752  0.00  0.00    -0.305 N 
ATOM     18  H   UNL     1       6.707  -1.610  26.275  0.00  0.00    +0.149 HD
ATOM     19  O   UNL     1       3.832  -2.585  25.360  0.00  0.00    -0.276 OA
ENDBRANCH   1  17
BRANCH   4  20
ATOM     20  C   UNL     1       9.300  -0.758  21.848  0.00  0.00    +0.372 C 
ATOM     21  O   UNL     1       9.128   0.399  21.498  0.00  0.00    -0.242 OA
BRANCH  20  22
ATOM     22  O   UNL     1      10.354  -1.513  21.463  0.00  0.00    -0.475 OA
ATOM     23  H   UNL     1      10.310  -2.389  21.912  0.00  0.00    +0.296 HD
ENDBRANCH  20  22
ENDBRANCH   4  20
BRANCH   2  24
ATOM     24  C   UNL     1       5.644  -3.330  22.194  0.00  0.00    +0.187 C 
BRANCH  24  25
ATOM     25  O   UNL     1       6.681  -3.644  21.247  0.00  0.00    -0.385 OA
ATOM     26  H   UNL     1       7.515  -3.250  21.561  0.00  0.00    +0.210 HD
ENDBRANCH  24  25
BRANCH  24  27
ATOM     27  C   UNL     1       5.184  -4.655  22.863  0.00  0.00    +0.172 C 
BRANCH  27  28
ATOM     28  O   UNL     1       3.759  -4.748  22.930  0.00  0.00    -0.387 OA
ATOM     29  H   UNL     1       3.559  -5.315  23.702  0.00  0.00    +0.210 HD
ENDBRANCH  27  28
BRANCH  27  30
ATOM     30  C   UNL     1       5.716  -5.900  22.130  0.00  0.00    +0.189 C 
BRANCH  30  31
ATOM     31  O   UNL     1       7.105  -6.067  22.410  0.00  0.00    -0.392 OA
ATOM     32  H   UNL     1       7.244  -7.008  22.625  0.00  0.00    +0.210 HD
ENDBRANCH  30  31
ENDBRANCH  27  30
ENDBRANCH  24  27
ENDBRANCH   2  24
TORSDOF 10
ENDMDL
MODEL 7
REMARK VINA RESULT:      -5.4      1.805      2.065
REMARK  Name = 
REMARK  11 active torsions:
REMARK  status: ('A' for Active; 'I' for Inactive)
REMARK    1  A    between atoms: C_1  and  C_2
REMARK    2  A    between atoms: N_4  and  C_5
REMARK    3  A    between atoms: C_7  and  N_25
REMARK    4  A    between atoms: C_10  and  C_22
REMARK    5  A    between atoms: C_12  and  C_14
REMARK    6  A    between atoms: C_14  and  C_16
REMARK    7  A    between atoms: C_14  and  O_21
REMARK    8  A    between atoms: C_16  and  C_18
REMARK    9  A    between atoms: C_16  and  O_20
REMARK   10  A    between atoms: C_18  and  O_19
REMARK   11  A    between atoms: C_22  and  O_24
REMARK                            x       y       z     vdW  Elec       q    Type
REMARK                         _______ _______ _______ _____ _____    ______ ____
ROOT
ATOM      1  C   UNL     1       7.069  -2.743  24.213  0.00  0.00    +0.160 C 
ATOM      2  C   UNL     1       7.102  -1.235  23.815  0.00  0.00    +0.229 C 
ATOM      3  O   UNL     1       6.865  -0.305  24.884  0.00  0.00    -0.477 OA
ATOM      4  C   UNL     1       7.319  -0.626  26.139  0.00  0.00    +0.204 C 
ATOM      5  C   UNL     1       7.672  -1.856  26.526  0.00  0.00    +0.071 C 
ATOM      6  C   UNL     1       7.554  -3.053  25.655  0.00  0.00    +0.238 C 
ENDROOT
BRANCH   6   7
ATOM      7  N   UNL     1       8.863  -3.716  25.577  0.00  0.00    -0.104 NA
ATOM      8  C   UNL     1       8.997  -4.939  25.923  0.00  0.00    +0.377 C 
ATOM      9  N   UNL     1      10.202  -5.542  25.811  0.00  0.00    -0.289 N 
ATOM     10  H   UNL     1      10.419  -6.139  26.600  0.00  0.00    +0.255 HD
ATOM     11  H   UNL     1      10.934  -4.854  25.665  0.00  0.00    +0.255 HD
ATOM     12  N   UNL     1       8.107  -5.816  26.435  0.00  0.00    -0.289 N 
ATOM     13  H   UNL     1       8.215  -6.760  26.080  0.00  0.00    +0.255 HD
ATOM     14  H   UNL     1       7.138  -5.530  26.448  0.00  0.00    +0.255 HD
ENDBRANCH   6   7
BRANCH   1  17
ATOM     15  C   UNL     1       4.126  -5.068  23.429  0.00  0.00    +0.109 C 
ATOM     16  C   UNL     1       5.569  -4.708  23.661  0.00  0.00    +0.210 C 
ATOM     17  N   UNL     1       5.756  -3.373  23.927  0.00  0.00    -0.305 N 
ATOM     18  H   UNL     1       4.985  -2.740  23.750  0.00  0.00    +0.149 HD
ATOM     19  O   UNL     1       6.464  -5.541  23.638  0.00  0.00    -0.276 OA
ENDBRANCH   1  17
BRANCH   4  20
ATOM     20  C   UNL     1       7.348   0.467  27.165  0.00  0.00    +0.372 C 
ATOM     21  O   UNL     1       6.617   1.446  27.182  0.00  0.00    -0.242 OA
BRANCH  20  22
ATOM     22  O   UNL     1       8.312   0.232  28.083  0.00  0.00    -0.475 OA
ATOM     23  H   UNL     1       8.791   1.072  28.277  0.00  0.00    +0.296 HD
ENDBRANCH  20  22
ENDBRANCH   4  20
BRANCH   2  24
ATOM     24  C   UNL     1       8.371  -0.837  23.001  0.00  0.00    +0.187 C 
BRANCH  24  25
ATOM     25  O   UNL     1       8.628  -1.790  21.953  0.00  0.00    -0.385 OA
ATOM     26  H   UNL     1       7.913  -1.724  21.294  0.00  0.00    +0.210 HD
ENDBRANCH  24  25
BRANCH  24  27
ATOM     27  C   UNL     1       8.256   0.572  22.353  0.00  0.00    +0.172 C 
BRANCH  27  28
ATOM     28  O   UNL     1       8.022   1.587  23.330  0.00  0.00    -0.387 OA
ATOM     29  H   UNL     1       7.794   1.119  24.160  0.00  0.00    +0.210 HD
ENDBRANCH  27  28
BRANCH  27  30
ATOM     30  C   UNL     1       9.513   0.954  21.550  0.00  0.00    +0.189 C 
BRANCH  30  31
ATOM     31  O   UNL     1       9.671   2.372  21.548  0.00  0.00    -0.392 OA
ATOM     32  H   UNL     1      10.609   2.557  21.743  0.00  0.00    +0.210 HD
ENDBRANCH  30  31
ENDBRANCH  27  30
ENDBRANCH  24  27
ENDBRANCH   2  24
TORSDOF 10
ENDMDL
MODEL 8
REMARK VINA RESULT:      -5.4      2.938      3.845
REMARK  Name = 
REMARK  11 active torsions:
REMARK  status: ('A' for Active; 'I' for Inactive)
REMARK    1  A    between atoms: C_1  and  C_2
REMARK    2  A    between atoms: N_4  and  C_5
REMARK    3  A    between atoms: C_7  and  N_25
REMARK    4  A    between atoms: C_10  and  C_22
REMARK    5  A    between atoms: C_12  and  C_14
REMARK    6  A    between atoms: C_14  and  C_16
REMARK    7  A    between atoms: C_14  and  O_21
REMARK    8  A    between atoms: C_16  and  C_18
REMARK    9  A    between atoms: C_16  and  O_20
REMARK   10  A    between atoms: C_18  and  O_19
REMARK   11  A    between atoms: C_22  and  O_24
REMARK                            x       y       z     vdW  Elec       q    Type
REMARK                         _______ _______ _______ _____ _____    ______ ____
ROOT
ATOM      1  C   UNL     1       7.419   0.300  23.432  0.00  0.00    +0.160 C 
ATOM      2  C   UNL     1       8.105   1.085  22.272  0.00  0.00    +0.229 C 
ATOM      3  O   UNL     1       7.452   2.300  21.872  0.00  0.00    -0.477 OA
ATOM      4  C   UNL     1       6.818   3.045  22.834  0.00  0.00    +0.204 C 
ATOM      5  C   UNL     1       6.474   2.588  24.043  0.00  0.00    +0.071 C 
ATOM      6  C   UNL     1       6.680   1.182  24.475  0.00  0.00    +0.238 C 
ENDROOT
BRANCH   6   7
ATOM      7  N   UNL     1       7.453   1.177  25.725  0.00  0.00    -0.104 NA
ATOM      8  C   UNL     1       7.218   0.310  26.634  0.00  0.00    +0.377 C 
ATOM      9  N   UNL     1       7.962   0.298  27.762  0.00  0.00    -0.289 N 
ATOM     10  H   UNL     1       7.413   0.131  28.596  0.00  0.00    +0.255 HD
ATOM     11  H   UNL     1       8.497   1.157  27.846  0.00  0.00    +0.255 HD
ATOM     12  N   UNL     1       6.288  -0.668  26.705  0.00  0.00    -0.289 N 
ATOM     13  H   UNL     1       6.629  -1.524  27.127  0.00  0.00    +0.255 HD
ATOM     14  H   UNL     1       5.750  -0.850  25.869  0.00  0.00    +0.255 HD
ENDBRANCH   6   7
BRANCH   1  17
ATOM     15  C   UNL     1       5.567  -2.985  22.752  0.00  0.00    +0.109 C 
ATOM     16  C   UNL     1       6.560  -2.084  23.435  0.00  0.00    +0.210 C 
ATOM     17  N   UNL     1       6.558  -0.803  22.936  0.00  0.00    -0.305 N 
ATOM     18  H   UNL     1       6.070  -0.632  22.065  0.00  0.00    +0.149 HD
ATOM     19  O   UNL     1       7.267  -2.466  24.357  0.00  0.00    -0.276 OA
ENDBRANCH   1  17
BRANCH   4  20
ATOM     20  C   UNL     1       6.416   4.445  22.475  0.00  0.00    +0.372 C 
ATOM     21  O   UNL     1       5.352   4.973  22.757  0.00  0.00    -0.242 OA
BRANCH  20  22
ATOM     22  O   UNL     1       7.398   5.056  21.774  0.00  0.00    -0.475 OA
ATOM     23  H   UNL     1       7.251   4.912  20.811  0.00  0.00    +0.296 HD
ENDBRANCH  20  22
ENDBRANCH   4  20
BRANCH   2  24
ATOM     24  C   UNL     1       9.630   1.319  22.498  0.00  0.00    +0.187 C 
BRANCH  24  25
ATOM     25  O   UNL     1      10.199   2.074  21.413  0.00  0.00    -0.385 OA
ATOM     26  H   UNL     1      10.725   2.804  21.788  0.00  0.00    +0.210 HD
ENDBRANCH  24  25
BRANCH  24  27
ATOM     27  C   UNL     1       9.935   2.074  23.823  0.00  0.00    +0.172 C 
BRANCH  27  28
ATOM     28  O   UNL     1      10.548   1.219  24.790  0.00  0.00    -0.387 OA
ATOM     29  H   UNL     1       9.863   0.572  25.055  0.00  0.00    +0.210 HD
ENDBRANCH  27  28
BRANCH  27  30
ATOM     30  C   UNL     1      10.848   3.294  23.608  0.00  0.00    +0.189 C 
BRANCH  30  31
ATOM     31  O   UNL     1      10.074   4.398  23.139  0.00  0.00    -0.392 OA
ATOM     32  H   UNL     1      10.325   4.550  22.208  0.00  0.00    +0.210 HD
ENDBRANCH  30  31
ENDBRANCH  27  30
ENDBRANCH  24  27
ENDBRANCH   2  24
TORSDOF 10
ENDMDL
MODEL 9
REMARK VINA RESULT:      -5.3      2.537      5.932
REMARK  Name = 
REMARK  11 active torsions:
REMARK  status: ('A' for Active; 'I' for Inactive)
REMARK    1  A    between atoms: C_1  and  C_2
REMARK    2  A    between atoms: N_4  and  C_5
REMARK    3  A    between atoms: C_7  and  N_25
REMARK    4  A    between atoms: C_10  and  C_22
REMARK    5  A    between atoms: C_12  and  C_14
REMARK    6  A    between atoms: C_14  and  C_16
REMARK    7  A    between atoms: C_14  and  O_21
REMARK    8  A    between atoms: C_16  and  C_18
REMARK    9  A    between atoms: C_16  and  O_20
REMARK   10  A    between atoms: C_18  and  O_19
REMARK   11  A    between atoms: C_22  and  O_24
REMARK                            x       y       z     vdW  Elec       q    Type
REMARK                         _______ _______ _______ _____ _____    ______ ____
ROOT
ATOM      1  C   UNL     1       7.513  -1.844  23.441  0.00  0.00    +0.160 C 
ATOM      2  C   UNL     1       7.431  -3.312  22.920  0.00  0.00    +0.229 C 
ATOM      3  O   UNL     1       8.113  -4.293  23.716  0.00  0.00    -0.477 OA
ATOM      4  C   UNL     1       8.145  -4.119  25.078  0.00  0.00    +0.204 C 
ATOM      5  C   UNL     1       7.883  -2.965  25.701  0.00  0.00    +0.071 C 
ATOM      6  C   UNL     1       7.587  -1.698  24.986  0.00  0.00    +0.238 C 
ENDROOT
BRANCH   6   7
ATOM      7  N   UNL     1       6.303  -1.169  25.468  0.00  0.00    -0.104 NA
ATOM      8  C   UNL     1       6.153   0.082  25.683  0.00  0.00    +0.377 C 
ATOM      9  N   UNL     1       4.956   0.556  26.094  0.00  0.00    -0.289 N 
ATOM     10  H   UNL     1       5.036   1.267  26.810  0.00  0.00    +0.255 HD
ATOM     11  H   UNL     1       4.358  -0.204  26.404  0.00  0.00    +0.255 HD
ATOM     12  N   UNL     1       7.028   1.108  25.591  0.00  0.00    -0.289 N 
ATOM     13  H   UNL     1       6.620   1.958  25.220  0.00  0.00    +0.255 HD
ATOM     14  H   UNL     1       7.925   0.908  25.170  0.00  0.00    +0.255 HD
ENDBRANCH   6   7
BRANCH   1  17
ATOM     15  C   UNL     1       9.703   0.788  21.721  0.00  0.00    +0.109 C 
ATOM     16  C   UNL     1       8.455   0.247  22.363  0.00  0.00    +0.210 C 
ATOM     17  N   UNL     1       8.578  -1.063  22.764  0.00  0.00    -0.305 N 
ATOM     18  H   UNL     1       9.374  -1.590  22.428  0.00  0.00    +0.149 HD
ATOM     19  O   UNL     1       7.453   0.929  22.528  0.00  0.00    -0.276 OA
ENDBRANCH   1  17
BRANCH   4  20
ATOM     20  C   UNL     1       8.576  -5.286  25.916  0.00  0.00    +0.372 C 
ATOM     21  O   UNL     1       7.898  -5.838  26.768  0.00  0.00    -0.242 OA
BRANCH  20  22
ATOM     22  O   UNL     1       9.842  -5.649  25.609  0.00  0.00    -0.475 OA
ATOM     23  H   UNL     1       9.871  -5.983  24.682  0.00  0.00    +0.296 HD
ENDBRANCH  20  22
ENDBRANCH   4  20
BRANCH   2  24
ATOM     24  C   UNL     1       5.978  -3.773  22.591  0.00  0.00    +0.187 C 
BRANCH  24  25
ATOM     25  O   UNL     1       5.351  -2.867  21.664  0.00  0.00    -0.385 OA
ATOM     26  H   UNL     1       6.003  -2.622  20.983  0.00  0.00    +0.210 HD
ENDBRANCH  24  25
BRANCH  24  27
ATOM     27  C   UNL     1       5.921  -5.202  21.981  0.00  0.00    +0.172 C 
BRANCH  27  28
ATOM     28  O   UNL     1       7.206  -5.642  21.540  0.00  0.00    -0.387 OA
ATOM     29  H   UNL     1       7.835  -5.406  22.254  0.00  0.00    +0.210 HD
ENDBRANCH  27  28
BRANCH  27  30
ATOM     30  C   UNL     1       5.366  -6.242  22.972  0.00  0.00    +0.189 C 
BRANCH  30  31
ATOM     31  O   UNL     1       3.979  -6.458  22.717  0.00  0.00    -0.392 OA
ATOM     32  H   UNL     1       3.511  -5.637  22.959  0.00  0.00    +0.210 HD
ENDBRANCH  30  31
ENDBRANCH  27  30
ENDBRANCH  24  27
ENDBRANCH   2  24
TORSDOF 10
ENDMDL
