MODEL 1
REMARK VINA RESULT:      -6.4      0.000      0.000
REMARK  Name = 
REMARK  10 active torsions:
REMARK  status: ('A' for Active; 'I' for Inactive)
REMARK    1  A    between atoms: C_1  and  C_2
REMARK    2  A    between atoms: N_4  and  C_5
REMARK    3  A    between atoms: C_7  and  N_23
REMARK    4  A    between atoms: C_10  and  C_20
REMARK    5  A    between atoms: C_12  and  C_14
REMARK    6  A    between atoms: C_14  and  C_16
REMARK    7  A    between atoms: C_16  and  C_17
REMARK    8  A    between atoms: C_16  and  O_19
REMARK    9  A    between atoms: C_17  and  O_18
REMARK   10  A    between atoms: C_20  and  O_22
REMARK                            x       y       z     vdW  Elec       q    Type
REMARK                         _______ _______ _______ _____ _____    ______ ____
ROOT
ATOM      1  C   UNL     1       7.903  -3.109  23.111  0.00  0.00    +0.165 C 
ATOM      2  C   UNL     1       8.194  -1.650  22.656  0.00  0.00    +0.266 C 
ATOM      3  O   UNL     1       7.380  -0.606  23.193  0.00  0.00    -0.472 OA
ATOM      4  C   UNL     1       6.673  -0.807  24.352  0.00  0.00    +0.205 C 
ATOM      5  C   UNL     1       6.624  -1.969  25.004  0.00  0.00    +0.071 C 
ATOM      6  C   UNL     1       7.314  -3.201  24.546  0.00  0.00    +0.239 C 
ENDROOT
BRANCH   6   7
ATOM      7  N   UNL     1       8.394  -3.456  25.501  0.00  0.00    -0.104 NA
ATOM      8  C   UNL     1       8.533  -4.623  26.003  0.00  0.00    +0.377 C 
ATOM      9  N   UNL     1       9.542  -4.870  26.866  0.00  0.00    -0.289 N 
ATOM     10  H   UNL     1       9.280  -5.458  27.646  0.00  0.00    +0.255 HD
ATOM     11  H   UNL     1       9.971  -4.007  27.182  0.00  0.00    +0.255 HD
ATOM     12  N   UNL     1       7.809  -5.750  25.824  0.00  0.00    -0.289 N 
ATOM     13  H   UNL     1       8.387  -6.584  25.820  0.00  0.00    +0.255 HD
ATOM     14  H   UNL     1       7.165  -5.756  25.048  0.00  0.00    +0.255 HD
ENDBRANCH   6   7
BRANCH   1  17
ATOM     15  C   UNL     1       6.091  -5.882  21.233  0.00  0.00    +0.109 C 
ATOM     16  C   UNL     1       7.150  -5.240  22.085  0.00  0.00    +0.210 C 
ATOM     17  N   UNL     1       7.075  -3.857  22.134  0.00  0.00    -0.305 N 
ATOM     18  H   UNL     1       6.219  -3.432  21.800  0.00  0.00    +0.149 HD
ATOM     19  O   UNL     1       8.011  -5.895  22.659  0.00  0.00    -0.276 OA
ENDBRANCH   1  17
BRANCH   2  20
ATOM     20  C   UNL     1       9.701  -1.340  22.737  0.00  0.00    +0.206 C 
ATOM     21  O   UNL     1      10.562  -2.223  22.652  0.00  0.00    -0.291 OA
BRANCH  20  22
ATOM     22  C   UNL     1      10.111   0.131  22.834  0.00  0.00    +0.209 C 
BRANCH  22  23
ATOM     23  O   UNL     1       9.597   0.731  24.023  0.00  0.00    -0.382 OA
ATOM     24  H   UNL     1       8.703   0.344  24.142  0.00  0.00    +0.210 HD
ENDBRANCH  22  23
BRANCH  22  25
ATOM     25  C   UNL     1       9.597   0.921  21.624  0.00  0.00    +0.195 C 
BRANCH  25  26
ATOM     26  O   UNL     1      10.207   2.218  21.604  0.00  0.00    -0.392 OA
ATOM     27  H   UNL     1      10.007   2.598  20.724  0.00  0.00    +0.210 HD
ENDBRANCH  25  26
ENDBRANCH  22  25
ENDBRANCH  20  22
ENDBRANCH   2  20
BRANCH   4  28
ATOM     28  C   UNL     1       5.915   0.360  24.894  0.00  0.00    +0.372 C 
ATOM     29  O   UNL     1       4.785   0.314  25.350  0.00  0.00    -0.242 OA
BRANCH  28  30
ATOM     30  O   UNL     1       6.643   1.496  24.803  0.00  0.00    -0.475 OA
ATOM     31  H   UNL     1       6.114   2.221  24.403  0.00  0.00    +0.296 HD
ENDBRANCH  28  30
ENDBRANCH   4  28
TORSDOF 9
ENDMDL
MODEL 2
REMARK VINA RESULT:      -6.3      2.601      5.677
REMARK  Name = 
REMARK  10 active torsions:
REMARK  status: ('A' for Active; 'I' for Inactive)
REMARK    1  A    between atoms: C_1  and  C_2
REMARK    2  A    between atoms: N_4  and  C_5
REMARK    3  A    between atoms: C_7  and  N_23
REMARK    4  A    between atoms: C_10  and  C_20
REMARK    5  A    between atoms: C_12  and  C_14
REMARK    6  A    between atoms: C_14  and  C_16
REMARK    7  A    between atoms: C_16  and  C_17
REMARK    8  A    between atoms: C_16  and  O_19
REMARK    9  A    between atoms: C_17  and  O_18
REMARK   10  A    between atoms: C_20  and  O_22
REMARK                            x       y       z     vdW  Elec       q    Type
REMARK                         _______ _______ _______ _____ _____    ______ ____
ROOT
ATOM      1  C   UNL     1       6.888  -1.808  24.302  0.00  0.00    +0.165 C 
ATOM      2  C   UNL     1       6.536  -3.057  25.160  0.00  0.00    +0.266 C 
ATOM      3  O   UNL     1       5.813  -4.119  24.535  0.00  0.00    -0.472 OA
ATOM      4  C   UNL     1       5.799  -4.232  23.167  0.00  0.00    +0.205 C 
ATOM      5  C   UNL     1       6.366  -3.355  22.339  0.00  0.00    +0.071 C 
ATOM      6  C   UNL     1       7.070  -2.129  22.793  0.00  0.00    +0.239 C 
ENDROOT
BRANCH   6   7
ATOM      7  N   UNL     1       8.491  -2.332  22.506  0.00  0.00    -0.104 NA
ATOM      8  C   UNL     1       9.211  -1.340  22.140  0.00  0.00    +0.377 C 
ATOM      9  N   UNL     1      10.528  -1.517  21.898  0.00  0.00    -0.289 N 
ATOM     10  H   UNL     1      10.867  -1.010  21.091  0.00  0.00    +0.255 HD
ATOM     11  H   UNL     1      10.759  -2.503  21.839  0.00  0.00    +0.255 HD
ATOM     12  N   UNL     1       8.885  -0.045  21.933  0.00  0.00    -0.289 N 
ATOM     13  H   UNL     1       9.620   0.590  22.224  0.00  0.00    +0.255 HD
ATOM     14  H   UNL     1       7.989   0.257  22.282  0.00  0.00    +0.255 HD
ENDBRANCH   6   7
BRANCH   1  17
ATOM     15  C   UNL     1       5.317   1.656  24.485  0.00  0.00    +0.109 C 
ATOM     16  C   UNL     1       6.403   0.617  24.514  0.00  0.00    +0.210 C 
ATOM     17  N   UNL     1       5.937  -0.688  24.509  0.00  0.00    -0.305 N 
ATOM     18  H   UNL     1       4.964  -0.828  24.264  0.00  0.00    +0.149 HD
ATOM     19  O   UNL     1       7.589   0.916  24.562  0.00  0.00    -0.276 OA
ENDBRANCH   1  17
BRANCH   2  20
ATOM     20  C   UNL     1       7.768  -3.548  25.944  0.00  0.00    +0.206 C 
ATOM     21  O   UNL     1       8.443  -2.794  26.655  0.00  0.00    -0.291 OA
BRANCH  20  22
ATOM     22  C   UNL     1       8.084  -5.045  25.891  0.00  0.00    +0.209 C 
BRANCH  22  23
ATOM     23  O   UNL     1       8.094  -5.616  27.198  0.00  0.00    -0.382 OA
ATOM     24  H   UNL     1       8.486  -4.927  27.778  0.00  0.00    +0.210 HD
ENDBRANCH  22  23
BRANCH  22  25
ATOM     25  C   UNL     1       9.448  -5.291  25.235  0.00  0.00    +0.195 C 
BRANCH  25  26
ATOM     26  O   UNL     1       9.835  -4.132  24.485  0.00  0.00    -0.392 OA
ATOM     27  H   UNL     1      10.354  -4.464  23.723  0.00  0.00    +0.210 HD
ENDBRANCH  25  26
ENDBRANCH  22  25
ENDBRANCH  20  22
ENDBRANCH   2  20
BRANCH   4  28
ATOM     28  C   UNL     1       5.093  -5.417  22.593  0.00  0.00    +0.372 C 
ATOM     29  O   UNL     1       3.886  -5.593  22.610  0.00  0.00    -0.242 OA
BRANCH  28  30
ATOM     30  O   UNL     1       5.972  -6.292  22.056  0.00  0.00    -0.475 OA
ATOM     31  H   UNL     1       6.618  -5.830  21.476  0.00  0.00    +0.296 HD
ENDBRANCH  28  30
ENDBRANCH   4  28
TORSDOF 9
ENDMDL
MODEL 3
REMARK VINA RESULT:      -6.1      2.025      2.515
REMARK  Name = 
REMARK  10 active torsions:
REMARK  status: ('A' for Active; 'I' for Inactive)
REMARK    1  A    between atoms: C_1  and  C_2
REMARK    2  A    between atoms: N_4  and  C_5
REMARK    3  A    between atoms: C_7  and  N_23
REMARK    4  A    between atoms: C_10  and  C_20
REMARK    5  A    between atoms: C_12  and  C_14
REMARK    6  A    between atoms: C_14  and  C_16
REMARK    7  A    between atoms: C_16  and  C_17
REMARK    8  A    between atoms: C_16  and  O_19
REMARK    9  A    between atoms: C_17  and  O_18
REMARK   10  A    between atoms: C_20  and  O_22
REMARK                            x       y       z     vdW  Elec       q    Type
REMARK                         _______ _______ _______ _____ _____    ______ ____
ROOT
ATOM      1  C   UNL     1       6.662  -3.150  24.217  0.00  0.00    +0.165 C 
ATOM      2  C   UNL     1       6.893  -1.761  23.555  0.00  0.00    +0.266 C 
ATOM      3  O   UNL     1       7.088  -0.634  24.412  0.00  0.00    -0.472 OA
ATOM      4  C   UNL     1       7.476  -0.817  25.716  0.00  0.00    +0.205 C 
ATOM      5  C   UNL     1       7.619  -2.010  26.292  0.00  0.00    +0.071 C 
ATOM      6  C   UNL     1       7.357  -3.297  25.599  0.00  0.00    +0.239 C 
ENDROOT
BRANCH   6   7
ATOM      7  N   UNL     1       8.655  -3.951  25.424  0.00  0.00    -0.104 NA
ATOM      8  C   UNL     1       8.876  -5.077  25.987  0.00  0.00    +0.377 C 
ATOM      9  N   UNL     1      10.064  -5.696  25.809  0.00  0.00    -0.289 N 
ATOM     10  H   UNL     1      10.428  -6.132  26.647  0.00  0.00    +0.255 HD
ATOM     11  H   UNL     1      10.744  -5.069  25.393  0.00  0.00    +0.255 HD
ATOM     12  N   UNL     1       8.092  -5.831  26.787  0.00  0.00    -0.289 N 
ATOM     13  H   UNL     1       8.210  -6.825  26.621  0.00  0.00    +0.255 HD
ATOM     14  H   UNL     1       7.114  -5.587  26.822  0.00  0.00    +0.255 HD
ENDBRANCH   6   7
BRANCH   1  17
ATOM     15  C   UNL     1       3.268  -4.749  23.564  0.00  0.00    +0.109 C 
ATOM     16  C   UNL     1       4.648  -4.237  23.257  0.00  0.00    +0.210 C 
ATOM     17  N   UNL     1       5.226  -3.515  24.289  0.00  0.00    -0.305 N 
ATOM     18  H   UNL     1       4.790  -3.587  25.200  0.00  0.00    +0.149 HD
ATOM     19  O   UNL     1       5.189  -4.430  22.175  0.00  0.00    -0.276 OA
ENDBRANCH   1  17
BRANCH   2  20
ATOM     20  C   UNL     1       7.948  -1.855  22.436  0.00  0.00    +0.206 C 
ATOM     21  O   UNL     1       7.911  -2.734  21.567  0.00  0.00    -0.291 OA
BRANCH  20  22
ATOM     22  C   UNL     1       9.008  -0.753  22.375  0.00  0.00    +0.209 C 
BRANCH  22  23
ATOM     23  O   UNL     1       9.383  -0.474  21.027  0.00  0.00    -0.382 OA
ATOM     24  H   UNL     1       9.200   0.482  20.901  0.00  0.00    +0.210 HD
ENDBRANCH  22  23
BRANCH  22  25
ATOM     25  C   UNL     1      10.261  -1.159  23.161  0.00  0.00    +0.195 C 
BRANCH  25  26
ATOM     26  O   UNL     1      10.231  -2.569  23.415  0.00  0.00    -0.392 OA
ATOM     27  H   UNL     1       9.560  -2.705  24.116  0.00  0.00    +0.210 HD
ENDBRANCH  25  26
ENDBRANCH  22  25
ENDBRANCH  20  22
ENDBRANCH   2  20
BRANCH   4  28
ATOM     28  C   UNL     1       7.742   0.413  26.522  0.00  0.00    +0.372 C 
ATOM     29  O   UNL     1       7.528   1.555  26.153  0.00  0.00    -0.242 OA
BRANCH  28  30
ATOM     30  O   UNL     1       8.270   0.098  27.726  0.00  0.00    -0.475 OA
ATOM     31  H   UNL     1       8.408   0.905  28.271  0.00  0.00    +0.296 HD
ENDBRANCH  28  30
ENDBRANCH   4  28
TORSDOF 9
ENDMDL
MODEL 4
REMARK VINA RESULT:      -6.1      2.137      3.897
REMARK  Name = 
REMARK  10 active torsions:
REMARK  status: ('A' for Active; 'I' for Inactive)
REMARK    1  A    between atoms: C_1  and  C_2
REMARK    2  A    between atoms: N_4  and  C_5
REMARK    3  A    between atoms: C_7  and  N_23
REMARK    4  A    between atoms: C_10  and  C_20
REMARK    5  A    between atoms: C_12  and  C_14
REMARK    6  A    between atoms: C_14  and  C_16
REMARK    7  A    between atoms: C_16  and  C_17
REMARK    8  A    between atoms: C_16  and  O_19
REMARK    9  A    between atoms: C_17  and  O_18
REMARK   10  A    between atoms: C_20  and  O_22
REMARK                            x       y       z     vdW  Elec       q    Type
REMARK                         _______ _______ _______ _____ _____    ______ ____
ROOT
ATOM      1  C   UNL     1       6.593  -3.288  25.016  0.00  0.00    +0.165 C 
ATOM      2  C   UNL     1       6.453  -2.290  23.831  0.00  0.00    +0.266 C 
ATOM      3  O   UNL     1       6.874  -0.940  24.038  0.00  0.00    -0.472 OA
ATOM      4  C   UNL     1       7.740  -0.636  25.058  0.00  0.00    +0.205 C 
ATOM      5  C   UNL     1       8.178  -1.520  25.955  0.00  0.00    +0.071 C 
ATOM      6  C   UNL     1       7.769  -2.948  25.973  0.00  0.00    +0.239 C 
ENDROOT
BRANCH   6   7
ATOM      7  N   UNL     1       8.948  -3.726  25.592  0.00  0.00    -0.104 NA
ATOM      8  C   UNL     1       9.081  -4.924  26.020  0.00  0.00    +0.377 C 
ATOM      9  N   UNL     1      10.156  -5.655  25.652  0.00  0.00    -0.289 N 
ATOM     10  H   UNL     1      10.545  -6.215  26.399  0.00  0.00    +0.255 HD
ATOM     11  H   UNL     1      10.865  -5.071  25.219  0.00  0.00    +0.255 HD
ATOM     12  N   UNL     1       8.293  -5.660  26.833  0.00  0.00    -0.289 N 
ATOM     13  H   UNL     1       8.267  -6.638  26.564  0.00  0.00    +0.255 HD
ATOM     14  H   UNL     1       7.364  -5.308  27.002  0.00  0.00    +0.255 HD
ENDBRANCH   6   7
BRANCH   1  17
ATOM     15  C   UNL     1       3.539  -4.825  26.693  0.00  0.00    +0.109 C 
ATOM     16  C   UNL     1       4.669  -4.694  25.710  0.00  0.00    +0.210 C 
ATOM     17  N   UNL     1       5.323  -3.473  25.759  0.00  0.00    -0.305 N 
ATOM     18  H   UNL     1       5.147  -2.890  26.568  0.00  0.00    +0.149 HD
ATOM     19  O   UNL     1       4.957  -5.589  24.925  0.00  0.00    -0.276 OA
ENDBRANCH   1  17
BRANCH   2  20
ATOM     20  C   UNL     1       7.008  -2.901  22.530  0.00  0.00    +0.206 C 
ATOM     21  O   UNL     1       8.176  -2.727  22.164  0.00  0.00    -0.291 OA
BRANCH  20  22
ATOM     22  C   UNL     1       6.080  -3.823  21.736  0.00  0.00    +0.209 C 
BRANCH  22  23
ATOM     23  O   UNL     1       4.808  -3.945  22.372  0.00  0.00    -0.382 OA
ATOM     24  H   UNL     1       4.170  -3.524  21.756  0.00  0.00    +0.210 HD
ENDBRANCH  22  23
BRANCH  22  25
ATOM     25  C   UNL     1       6.694  -5.221  21.593  0.00  0.00    +0.195 C 
BRANCH  25  26
ATOM     26  O   UNL     1       7.305  -5.605  22.831  0.00  0.00    -0.392 OA
ATOM     27  H   UNL     1       7.373  -4.786  23.365  0.00  0.00    +0.210 HD
ENDBRANCH  25  26
ENDBRANCH  22  25
ENDBRANCH  20  22
ENDBRANCH   2  20
BRANCH   4  28
ATOM     28  C   UNL     1       8.200   0.782  25.156  0.00  0.00    +0.372 C 
ATOM     29  O   UNL     1       7.515   1.762  24.915  0.00  0.00    -0.242 OA
BRANCH  28  30
ATOM     30  O   UNL     1       9.495   0.847  25.539  0.00  0.00    -0.475 OA
ATOM     31  H   UNL     1       9.914  -0.042  25.509  0.00  0.00    +0.296 HD
ENDBRANCH  28  30
ENDBRANCH   4  28
TORSDOF 9
ENDMDL
MODEL 5
REMARK VINA RESULT:      -6.0      2.183      4.885
REMARK  Name = 
REMARK  10 active torsions:
REMARK  status: ('A' for Active; 'I' for Inactive)
REMARK    1  A    between atoms: C_1  and  C_2
REMARK    2  A    between atoms: N_4  and  C_5
REMARK    3  A    between atoms: C_7  and  N_23
REMARK    4  A    between atoms: C_10  and  C_20
REMARK    5  A    between atoms: C_12  and  C_14
REMARK    6  A    between atoms: C_14  and  C_16
REMARK    7  A    between atoms: C_16  and  C_17
REMARK    8  A    between atoms: C_16  and  O_19
REMARK    9  A    between atoms: C_17  and  O_18
REMARK   10  A    between atoms: C_20  and  O_22
REMARK                            x       y       z     vdW  Elec       q    Type
REMARK                         _______ _______ _______ _____ _____    ______ ____
ROOT
ATOM      1  C   UNL     1       6.847  -2.949  24.565  0.00  0.00    +0.165 C 
ATOM      2  C   UNL     1       6.357  -2.560  23.140  0.00  0.00    +0.266 C 
ATOM      3  O   UNL     1       7.087  -1.559  22.430  0.00  0.00    -0.472 OA
ATOM      4  C   UNL     1       8.379  -1.262  22.787  0.00  0.00    +0.205 C 
ATOM      5  C   UNL     1       9.007  -1.800  23.832  0.00  0.00    +0.071 C 
ATOM      6  C   UNL     1       8.380  -2.779  24.756  0.00  0.00    +0.239 C 
ENDROOT
BRANCH   6   7
ATOM      7  N   UNL     1       9.045  -4.062  24.522  0.00  0.00    -0.104 NA
ATOM      8  C   UNL     1       9.153  -4.902  25.480  0.00  0.00    +0.377 C 
ATOM      9  N   UNL     1       9.745  -6.097  25.263  0.00  0.00    -0.289 N 
ATOM     10  H   UNL     1      10.346  -6.399  26.019  0.00  0.00    +0.255 HD
ATOM     11  H   UNL     1      10.235  -6.107  24.375  0.00  0.00    +0.255 HD
ATOM     12  N   UNL     1       8.758  -4.823  26.770  0.00  0.00    -0.289 N 
ATOM     13  H   UNL     1       8.423  -5.711  27.126  0.00  0.00    +0.255 HD
ATOM     14  H   UNL     1       8.120  -4.078  27.002  0.00  0.00    +0.255 HD
ENDBRANCH   6   7
BRANCH   1  17
ATOM     15  C   UNL     1       5.076  -2.146  27.839  0.00  0.00    +0.109 C 
ATOM     16  C   UNL     1       5.609  -2.991  26.715  0.00  0.00    +0.210 C 
ATOM     17  N   UNL     1       6.086  -2.263  25.637  0.00  0.00    -0.305 N 
ATOM     18  H   UNL     1       6.243  -1.273  25.785  0.00  0.00    +0.149 HD
ATOM     19  O   UNL     1       5.592  -4.215  26.756  0.00  0.00    -0.276 OA
ENDBRANCH   1  17
BRANCH   2  20
ATOM     20  C   UNL     1       6.080  -3.817  22.294  0.00  0.00    +0.206 C 
ATOM     21  O   UNL     1       5.825  -3.757  21.085  0.00  0.00    -0.291 OA
BRANCH  20  22
ATOM     22  C   UNL     1       6.224  -5.175  22.985  0.00  0.00    +0.209 C 
BRANCH  22  23
ATOM     23  O   UNL     1       7.321  -5.913  22.448  0.00  0.00    -0.382 OA
ATOM     24  H   UNL     1       7.946  -6.028  23.196  0.00  0.00    +0.210 HD
ENDBRANCH  22  23
BRANCH  22  25
ATOM     25  C   UNL     1       4.945  -6.007  22.824  0.00  0.00    +0.195 C 
BRANCH  25  26
ATOM     26  O   UNL     1       3.816  -5.132  22.712  0.00  0.00    -0.392 OA
ATOM     27  H   UNL     1       3.634  -4.807  23.619  0.00  0.00    +0.210 HD
ENDBRANCH  25  26
ENDBRANCH  22  25
ENDBRANCH  20  22
ENDBRANCH   2  20
BRANCH   4  28
ATOM     28  C   UNL     1       9.103  -0.265  21.942  0.00  0.00    +0.372 C 
ATOM     29  O   UNL     1       8.958   0.944  22.001  0.00  0.00    -0.242 OA
BRANCH  28  30
ATOM     30  O   UNL     1       9.943  -0.880  21.080  0.00  0.00    -0.475 OA
ATOM     31  H   UNL     1      10.881  -0.698  21.313  0.00  0.00    +0.296 HD
ENDBRANCH  28  30
ENDBRANCH   4  28
TORSDOF 9
ENDMDL
MODEL 6
REMARK VINA RESULT:      -6.0      2.645      5.808
REMARK  Name = 
REMARK  10 active torsions:
REMARK  status: ('A' for Active; 'I' for Inactive)
REMARK    1  A    between atoms: C_1  and  C_2
REMARK    2  A    between atoms: N_4  and  C_5
REMARK    3  A    between atoms: C_7  and  N_23
REMARK    4  A    between atoms: C_10  and  C_20
REMARK    5  A    between atoms: C_12  and  C_14
REMARK    6  A    between atoms: C_14  and  C_16
REMARK    7  A    between atoms: C_16  and  C_17
REMARK    8  A    between atoms: C_16  and  O_19
REMARK    9  A    between atoms: C_17  and  O_18
REMARK   10  A    between atoms: C_20  and  O_22
REMARK                            x       y       z     vdW  Elec       q    Type
REMARK                         _______ _______ _______ _____ _____    ______ ____
ROOT
ATOM      1  C   UNL     1       7.540  -2.014  23.117  0.00  0.00    +0.165 C 
ATOM      2  C   UNL     1       7.432  -3.500  22.668  0.00  0.00    +0.266 C 
ATOM      3  O   UNL     1       8.035  -4.496  23.495  0.00  0.00    -0.472 OA
ATOM      4  C   UNL     1       8.316  -4.223  24.811  0.00  0.00    +0.205 C 
ATOM      5  C   UNL     1       8.135  -3.032  25.382  0.00  0.00    +0.071 C 
ATOM      6  C   UNL     1       7.621  -1.841  24.659  0.00  0.00    +0.239 C 
ENDROOT
BRANCH   6   7
ATOM      7  N   UNL     1       6.283  -1.573  25.189  0.00  0.00    -0.104 NA
ATOM      8  C   UNL     1       5.967  -0.385  25.538  0.00  0.00    +0.377 C 
ATOM      9  N   UNL     1       4.726  -0.128  26.006  0.00  0.00    -0.289 N 
ATOM     10  H   UNL     1       4.708   0.515  26.787  0.00  0.00    +0.255 HD
ATOM     11  H   UNL     1       4.232  -0.987  26.223  0.00  0.00    +0.255 HD
ATOM     12  N   UNL     1       6.689   0.757  25.529  0.00  0.00    -0.289 N 
ATOM     13  H   UNL     1       6.131   1.566  25.280  0.00  0.00    +0.255 HD
ATOM     14  H   UNL     1       7.552   0.742  25.007  0.00  0.00    +0.255 HD
ENDBRANCH   6   7
BRANCH   1  17
ATOM     15  C   UNL     1       9.841   0.720  21.801  0.00  0.00    +0.109 C 
ATOM     16  C   UNL     1       8.567   0.088  22.288  0.00  0.00    +0.210 C 
ATOM     17  N   UNL     1       8.637  -1.289  22.430  0.00  0.00    -0.305 N 
ATOM     18  H   UNL     1       9.560  -1.705  22.420  0.00  0.00    +0.149 HD
ATOM     19  O   UNL     1       7.558   0.745  22.510  0.00  0.00    -0.276 OA
ENDBRANCH   1  17
BRANCH   2  20
ATOM     20  C   UNL     1       5.987  -3.847  22.263  0.00  0.00    +0.206 C 
ATOM     21  O   UNL     1       5.365  -3.198  21.414  0.00  0.00    -0.291 OA
BRANCH  20  22
ATOM     22  C   UNL     1       5.365  -5.098  22.886  0.00  0.00    +0.209 C 
BRANCH  22  23
ATOM     23  O   UNL     1       5.039  -6.064  21.887  0.00  0.00    -0.382 OA
ATOM     24  H   UNL     1       4.066  -5.994  21.769  0.00  0.00    +0.210 HD
ENDBRANCH  22  23
BRANCH  22  25
ATOM     25  C   UNL     1       4.091  -4.744  23.663  0.00  0.00    +0.195 C 
BRANCH  25  26
ATOM     26  O   UNL     1       4.218  -3.428  24.216  0.00  0.00    -0.392 OA
ATOM     27  H   UNL     1       4.543  -3.549  25.132  0.00  0.00    +0.210 HD
ENDBRANCH  25  26
ENDBRANCH  22  25
ENDBRANCH  20  22
ENDBRANCH   2  20
BRANCH   4  28
ATOM     28  C   UNL     1       8.866  -5.343  25.633  0.00  0.00    +0.372 C 
ATOM     29  O   UNL     1       8.293  -5.877  26.567  0.00  0.00    -0.242 OA
BRANCH  28  30
ATOM     30  O   UNL     1      10.103  -5.690  25.212  0.00  0.00    -0.475 OA
ATOM     31  H   UNL     1      10.401  -6.521  25.645  0.00  0.00    +0.296 HD
ENDBRANCH  28  30
ENDBRANCH   4  28
TORSDOF 9
ENDMDL
MODEL 7
REMARK VINA RESULT:      -5.9      2.205      2.937
REMARK  Name = 
REMARK  10 active torsions:
REMARK  status: ('A' for Active; 'I' for Inactive)
REMARK    1  A    between atoms: C_1  and  C_2
REMARK    2  A    between atoms: N_4  and  C_5
REMARK    3  A    between atoms: C_7  and  N_23
REMARK    4  A    between atoms: C_10  and  C_20
REMARK    5  A    between atoms: C_12  and  C_14
REMARK    6  A    between atoms: C_14  and  C_16
REMARK    7  A    between atoms: C_16  and  C_17
REMARK    8  A    between atoms: C_16  and  O_19
REMARK    9  A    between atoms: C_17  and  O_18
REMARK   10  A    between atoms: C_20  and  O_22
REMARK                            x       y       z     vdW  Elec       q    Type
REMARK                         _______ _______ _______ _____ _____    ______ ____
ROOT
ATOM      1  C   UNL     1       7.654  -0.952  23.496  0.00  0.00    +0.165 C 
ATOM      2  C   UNL     1       8.066   0.019  22.352  0.00  0.00    +0.266 C 
ATOM      3  O   UNL     1       7.229   1.148  22.096  0.00  0.00    -0.472 OA
ATOM      4  C   UNL     1       6.358   1.594  23.058  0.00  0.00    +0.205 C 
ATOM      5  C   UNL     1       6.168   0.990  24.231  0.00  0.00    +0.071 C 
ATOM      6  C   UNL     1       6.864  -0.256  24.639  0.00  0.00    +0.239 C 
ENDROOT
BRANCH   6   7
ATOM      7  N   UNL     1       7.787   0.111  25.714  0.00  0.00    -0.104 NA
ATOM      8  C   UNL     1       8.144  -0.769  26.570  0.00  0.00    +0.377 C 
ATOM      9  N   UNL     1       9.014  -0.441  27.550  0.00  0.00    -0.289 N 
ATOM     10  H   UNL     1       8.786  -0.842  28.451  0.00  0.00    +0.255 HD
ATOM     11  H   UNL     1       9.132   0.565  27.613  0.00  0.00    +0.255 HD
ATOM     12  N   UNL     1       7.794  -2.068  26.696  0.00  0.00    -0.289 N 
ATOM     13  H   UNL     1       8.565  -2.648  27.006  0.00  0.00    +0.255 HD
ATOM     14  H   UNL     1       7.322  -2.487  25.909  0.00  0.00    +0.255 HD
ENDBRANCH   6   7
BRANCH   1  17
ATOM     15  C   UNL     1       6.402  -4.517  23.022  0.00  0.00    +0.109 C 
ATOM     16  C   UNL     1       7.350  -3.413  23.399  0.00  0.00    +0.210 C 
ATOM     17  N   UNL     1       6.941  -2.153  22.995  0.00  0.00    -0.305 N 
ATOM     18  H   UNL     1       5.977  -2.056  22.700  0.00  0.00    +0.149 HD
ATOM     19  O   UNL     1       8.400  -3.631  23.991  0.00  0.00    -0.276 OA
ENDBRANCH   1  17
BRANCH   2  20
ATOM     20  C   UNL     1       9.558   0.388  22.458  0.00  0.00    +0.206 C 
ATOM     21  O   UNL     1      10.458  -0.436  22.256  0.00  0.00    -0.291 OA
BRANCH  20  22
ATOM     22  C   UNL     1       9.901   1.854  22.733  0.00  0.00    +0.209 C 
BRANCH  22  23
ATOM     23  O   UNL     1      10.520   2.460  21.598  0.00  0.00    -0.382 OA
ATOM     24  H   UNL     1      11.015   3.229  21.954  0.00  0.00    +0.210 HD
ENDBRANCH  22  23
BRANCH  22  25
ATOM     25  C   UNL     1      10.848   1.976  23.933  0.00  0.00    +0.195 C 
BRANCH  25  26
ATOM     26  O   UNL     1      10.465   1.034  24.943  0.00  0.00    -0.392 OA
ATOM     27  H   UNL     1      10.595   1.488  25.801  0.00  0.00    +0.210 HD
ENDBRANCH  25  26
ENDBRANCH  22  25
ENDBRANCH  20  22
ENDBRANCH   2  20
BRANCH   4  28
ATOM     28  C   UNL     1       5.580   2.831  22.746  0.00  0.00    +0.372 C 
ATOM     29  O   UNL     1       4.446   3.063  23.129  0.00  0.00    -0.242 OA
BRANCH  28  30
ATOM     30  O   UNL     1       6.295   3.668  21.962  0.00  0.00    -0.475 OA
ATOM     31  H   UNL     1       5.961   4.590  22.036  0.00  0.00    +0.296 HD
ENDBRANCH  28  30
ENDBRANCH   4  28
TORSDOF 9
ENDMDL
MODEL 8
REMARK VINA RESULT:      -5.8      2.238      5.306
REMARK  Name = 
REMARK  10 active torsions:
REMARK  status: ('A' for Active; 'I' for Inactive)
REMARK    1  A    between atoms: C_1  and  C_2
REMARK    2  A    between atoms: N_4  and  C_5
REMARK    3  A    between atoms: C_7  and  N_23
REMARK    4  A    between atoms: C_10  and  C_20
REMARK    5  A    between atoms: C_12  and  C_14
REMARK    6  A    between atoms: C_14  and  C_16
REMARK    7  A    between atoms: C_16  and  C_17
REMARK    8  A    between atoms: C_16  and  O_19
REMARK    9  A    between atoms: C_17  and  O_18
REMARK   10  A    between atoms: C_20  and  O_22
REMARK                            x       y       z     vdW  Elec       q    Type
REMARK                         _______ _______ _______ _____ _____    ______ ____
ROOT
ATOM      1  C   UNL     1       7.874  -2.271  24.371  0.00  0.00    +0.165 C 
ATOM      2  C   UNL     1       6.524  -1.864  23.712  0.00  0.00    +0.266 C 
ATOM      3  O   UNL     1       6.072  -2.620  22.587  0.00  0.00    -0.472 OA
ATOM      4  C   UNL     1       6.563  -3.882  22.361  0.00  0.00    +0.205 C 
ATOM      5  C   UNL     1       7.521  -4.453  23.092  0.00  0.00    +0.071 C 
ATOM      6  C   UNL     1       8.193  -3.786  24.236  0.00  0.00    +0.239 C 
ENDROOT
BRANCH   6   7
ATOM      7  N   UNL     1       7.756  -4.486  25.445  0.00  0.00    -0.104 NA
ATOM      8  C   UNL     1       8.554  -5.294  26.031  0.00  0.00    +0.377 C 
ATOM      9  N   UNL     1       8.164  -5.924  27.161  0.00  0.00    -0.289 N 
ATOM     10  H   UNL     1       8.453  -6.892  27.210  0.00  0.00    +0.255 HD
ATOM     11  H   UNL     1       7.164  -5.829  27.306  0.00  0.00    +0.255 HD
ATOM     12  N   UNL     1       9.813  -5.671  25.718  0.00  0.00    -0.289 N 
ATOM     13  H   UNL     1      10.393  -5.803  26.539  0.00  0.00    +0.255 HD
ATOM     14  H   UNL     1      10.292  -5.116  25.026  0.00  0.00    +0.255 HD
ENDBRANCH   6   7
BRANCH   1  17
ATOM     15  C   UNL     1      10.728   0.246  24.235  0.00  0.00    +0.109 C 
ATOM     16  C   UNL     1       9.429  -0.362  24.684  0.00  0.00    +0.210 C 
ATOM     17  N   UNL     1       9.009  -1.433  23.912  0.00  0.00    -0.305 N 
ATOM     18  H   UNL     1       9.691  -1.843  23.286  0.00  0.00    +0.149 HD
ATOM     19  O   UNL     1       8.798   0.079  25.637  0.00  0.00    -0.276 OA
ENDBRANCH   1  17
BRANCH   2  20
ATOM     20  C   UNL     1       5.432  -1.661  24.779  0.00  0.00    +0.206 C 
ATOM     21  O   UNL     1       5.099  -0.539  25.178  0.00  0.00    -0.291 OA
BRANCH  20  22
ATOM     22  C   UNL     1       4.693  -2.907  25.272  0.00  0.00    +0.209 C 
BRANCH  22  23
ATOM     23  O   UNL     1       3.294  -2.815  25.004  0.00  0.00    -0.382 OA
ATOM     24  H   UNL     1       3.042  -1.901  25.258  0.00  0.00    +0.210 HD
ENDBRANCH  22  23
BRANCH  22  25
ATOM     25  C   UNL     1       4.893  -3.097  26.781  0.00  0.00    +0.195 C 
BRANCH  25  26
ATOM     26  O   UNL     1       6.116  -2.467  27.185  0.00  0.00    -0.392 OA
ATOM     27  H   UNL     1       6.683  -3.182  27.543  0.00  0.00    +0.210 HD
ENDBRANCH  25  26
ENDBRANCH  22  25
ENDBRANCH  20  22
ENDBRANCH   2  20
BRANCH   4  28
ATOM     28  C   UNL     1       5.978  -4.640  21.215  0.00  0.00    +0.372 C 
ATOM     29  O   UNL     1       5.736  -5.835  21.212  0.00  0.00    -0.242 OA
BRANCH  28  30
ATOM     30  O   UNL     1       5.757  -3.827  20.158  0.00  0.00    -0.475 OA
ATOM     31  H   UNL     1       5.216  -3.049  20.420  0.00  0.00    +0.296 HD
ENDBRANCH  28  30
ENDBRANCH   4  28
TORSDOF 9
ENDMDL
MODEL 9
REMARK VINA RESULT:      -5.8      3.763      6.361
REMARK  Name = 
REMARK  10 active torsions:
REMARK  status: ('A' for Active; 'I' for Inactive)
REMARK    1  A    between atoms: C_1  and  C_2
REMARK    2  A    between atoms: N_4  and  C_5
REMARK    3  A    between atoms: C_7  and  N_23
REMARK    4  A    between atoms: C_10  and  C_20
REMARK    5  A    between atoms: C_12  and  C_14
REMARK    6  A    between atoms: C_14  and  C_16
REMARK    7  A    between atoms: C_16  and  C_17
REMARK    8  A    between atoms: C_16  and  O_19
REMARK    9  A    between atoms: C_17  and  O_18
REMARK   10  A    between atoms: C_20  and  O_22
REMARK                            x       y       z     vdW  Elec       q    Type
REMARK                         _______ _______ _______ _____ _____    ______ ____
ROOT
ATOM      1  C   UNL     1       8.153   1.769  24.869  0.00  0.00    +0.165 C 
ATOM      2  C   UNL     1       9.658   1.754  24.477  0.00  0.00    +0.266 C 
ATOM      3  O   UNL     1      10.170   0.589  23.827  0.00  0.00    -0.472 OA
ATOM      4  C   UNL     1       9.316  -0.282  23.199  0.00  0.00    +0.205 C 
ATOM      5  C   UNL     1       7.988  -0.167  23.212  0.00  0.00    +0.071 C 
ATOM      6  C   UNL     1       7.262   0.915  23.925  0.00  0.00    +0.239 C 
ENDROOT
BRANCH   6   7
ATOM      7  N   UNL     1       6.676   1.776  22.897  0.00  0.00    -0.104 NA
ATOM      8  C   UNL     1       5.533   2.312  23.096  0.00  0.00    +0.377 C 
ATOM      9  N   UNL     1       4.998   3.126  22.161  0.00  0.00    -0.289 N 
ATOM     10  H   UNL     1       4.004   2.999  22.027  0.00  0.00    +0.255 HD
ATOM     11  H   UNL     1       5.502   3.054  21.283  0.00  0.00    +0.255 HD
ATOM     12  N   UNL     1       4.686   2.216  24.145  0.00  0.00    -0.289 N 
ATOM     13  H   UNL     1       4.210   3.090  24.339  0.00  0.00    +0.255 HD
ATOM     14  H   UNL     1       5.059   1.814  24.991  0.00  0.00    +0.255 HD
ENDBRANCH   6   7
BRANCH   1  17
ATOM     15  C   UNL     1       6.648   1.433  28.351  0.00  0.00    +0.109 C 
ATOM     16  C   UNL     1       6.927   2.050  27.009  0.00  0.00    +0.210 C 
ATOM     17  N   UNL     1       7.930   1.417  26.293  0.00  0.00    -0.305 N 
ATOM     18  H   UNL     1       8.216   0.500  26.615  0.00  0.00    +0.149 HD
ATOM     19  O   UNL     1       6.327   3.040  26.609  0.00  0.00    -0.276 OA
ENDBRANCH   1  17
BRANCH   2  20
ATOM     20  C   UNL     1      10.054   3.063  23.767  0.00  0.00    +0.206 C 
ATOM     21  O   UNL     1      11.112   3.180  23.140  0.00  0.00    -0.291 OA
BRANCH  20  22
ATOM     22  C   UNL     1       9.035   4.205  23.784  0.00  0.00    +0.209 C 
BRANCH  22  23
ATOM     23  O   UNL     1       8.385   4.333  22.520  0.00  0.00    -0.382 OA
ATOM     24  H   UNL     1       9.090   4.603  21.892  0.00  0.00    +0.210 HD
ENDBRANCH  22  23
BRANCH  22  25
ATOM     25  C   UNL     1       9.716   5.537  24.124  0.00  0.00    +0.195 C 
BRANCH  25  26
ATOM     26  O   UNL     1      10.488   5.980  23.001  0.00  0.00    -0.392 OA
ATOM     27  H   UNL     1      11.134   5.266  22.817  0.00  0.00    +0.210 HD
ENDBRANCH  25  26
ENDBRANCH  22  25
ENDBRANCH  20  22
ENDBRANCH   2  20
BRANCH   4  28
ATOM     28  C   UNL     1       9.935  -1.430  22.469  0.00  0.00    +0.372 C 
ATOM     29  O   UNL     1      10.501  -2.374  22.993  0.00  0.00    -0.242 OA
BRANCH  28  30
ATOM     30  O   UNL     1       9.800  -1.282  21.132  0.00  0.00    -0.475 OA
ATOM     31  H   UNL     1      10.533  -1.730  20.653  0.00  0.00    +0.296 HD
ENDBRANCH  28  30
ENDBRANCH   4  28
TORSDOF 9
ENDMDL
