MODEL 1
REMARK VINA RESULT:      -6.3      0.000      0.000
REMARK  Name = 
REMARK  12 active torsions:
REMARK  status: ('A' for Active; 'I' for Inactive)
REMARK    1  A    between atoms: C_1  and  C_2
REMARK    2  A    between atoms: C_2  and  C_3
REMARK    3  A    between atoms: C_3  and  C_4
REMARK    4  A    between atoms: C_3  and  C_6
REMARK    5  A    between atoms: C_4  and  C_5
REMARK    6  A    between atoms: C_6  and  C_7
REMARK    7  A    between atoms: C_6  and  N_24
REMARK    8  A    between atoms: C_9  and  N_20
REMARK    9  A    between atoms: C_12  and  C_17
REMARK   10  A    between atoms: C_14  and  O_16
REMARK   11  A    between atoms: C_17  and  O_19
REMARK   12  A    between atoms: C_25  and  C_27
REMARK                            x       y       z     vdW  Elec       q    Type
REMARK                         _______ _______ _______ _____ _____    ______ ____
ROOT
ATOM      1  C   UNL     1       8.038  -2.955  22.962  0.00  0.00    +0.079 C 
ATOM      2  C   UNL     1       6.831  -3.097  22.006  0.00  0.00    +0.137 C 
ATOM      3  C   UNL     1       6.326  -4.544  22.130  0.00  0.00    +0.130 C 
ATOM      4  C   UNL     1       7.417  -5.284  22.898  0.00  0.00    +0.062 C 
ATOM      5  C   UNL     1       7.950  -4.212  23.846  0.00  0.00    +0.196 C 
ENDROOT
BRANCH   5   6
ATOM      6  N   UNL     1       9.252  -4.580  24.367  0.00  0.00    -0.110 NA
ATOM      7  C   UNL     1       9.339  -5.227  25.472  0.00  0.00    +0.377 C 
ATOM      8  N   UNL     1      10.559  -5.609  25.903  0.00  0.00    -0.289 N 
ATOM      9  H   UNL     1      10.732  -5.541  26.895  0.00  0.00    +0.255 HD
ATOM     10  H   UNL     1      11.293  -5.174  25.354  0.00  0.00    +0.255 HD
ATOM     11  N   UNL     1       8.369  -5.656  26.313  0.00  0.00    -0.289 N 
ATOM     12  H   UNL     1       8.623  -5.835  27.269  0.00  0.00    +0.255 HD
ATOM     13  H   UNL     1       7.431  -5.313  26.192  0.00  0.00    +0.255 HD
ENDBRANCH   5   6
BRANCH   2  14
ATOM     14  O   UNL     1       5.740  -2.221  22.267  0.00  0.00    -0.391 OA
ATOM     15  H   UNL     1       5.138  -2.656  22.898  0.00  0.00    +0.210 HD
ENDBRANCH   2  14
BRANCH   3  16
ATOM     16  C   UNL     1       6.032  -5.144  20.774  0.00  0.00    +0.310 C 
ATOM     17  O   UNL     1       5.963  -6.338  20.534  0.00  0.00    -0.251 OA
BRANCH  16  18
ATOM     18  O   UNL     1       5.772  -4.203  19.835  0.00  0.00    -0.480 OA
ATOM     19  H   UNL     1       4.887  -4.289  19.422  0.00  0.00    +0.295 HD
ENDBRANCH  16  18
ENDBRANCH   3  16
BRANCH   1  20
ATOM     20  C   UNL     1       8.317  -1.571  23.638  0.00  0.00    +0.085 C 
BRANCH  20  21
ATOM     21  N   UNL     1       7.835  -1.663  25.034  0.00  0.00    -0.312 N 
ATOM     22  H   UNL     1       8.419  -2.158  25.696  0.00  0.00    +0.149 HD
ATOM     23  C   UNL     1       6.613  -1.182  25.451  0.00  0.00    +0.210 C 
ATOM     24  C   UNL     1       6.327  -1.392  26.916  0.00  0.00    +0.109 C 
ATOM     25  O   UNL     1       5.805  -0.624  24.716  0.00  0.00    -0.276 OA
ENDBRANCH  20  21
BRANCH  20  26
ATOM     26  C   UNL     1       9.771  -0.954  23.639  0.00  0.00    +0.009 C 
BRANCH  26  28
ATOM     27  C   UNL     1       9.125   0.284  21.436  0.00  0.00    +0.004 C 
ATOM     28  C   UNL     1      10.204  -0.393  22.268  0.00  0.00    +0.002 C 
ENDBRANCH  26  28
BRANCH  26  29
ATOM     29  C   UNL     1       9.989   0.096  24.765  0.00  0.00    +0.002 C 
ATOM     30  C   UNL     1      10.950   1.229  24.436  0.00  0.00    +0.004 C 
ENDBRANCH  26  29
ENDBRANCH  20  26
ENDBRANCH   1  20
TORSDOF 9
ENDMDL
MODEL 2
REMARK VINA RESULT:      -6.1      2.694      5.573
REMARK  Name = 
REMARK  12 active torsions:
REMARK  status: ('A' for Active; 'I' for Inactive)
REMARK    1  A    between atoms: C_1  and  C_2
REMARK    2  A    between atoms: C_2  and  C_3
REMARK    3  A    between atoms: C_3  and  C_4
REMARK    4  A    between atoms: C_3  and  C_6
REMARK    5  A    between atoms: C_4  and  C_5
REMARK    6  A    between atoms: C_6  and  C_7
REMARK    7  A    between atoms: C_6  and  N_24
REMARK    8  A    between atoms: C_9  and  N_20
REMARK    9  A    between atoms: C_12  and  C_17
REMARK   10  A    between atoms: C_14  and  O_16
REMARK   11  A    between atoms: C_17  and  O_19
REMARK   12  A    between atoms: C_25  and  C_27
REMARK                            x       y       z     vdW  Elec       q    Type
REMARK                         _______ _______ _______ _____ _____    ______ ____
ROOT
ATOM      1  C   UNL     1       8.408  -1.487  23.195  0.00  0.00    +0.079 C 
ATOM      2  C   UNL     1       9.363  -0.805  22.186  0.00  0.00    +0.137 C 
ATOM      3  C   UNL     1       9.949   0.432  22.886  0.00  0.00    +0.130 C 
ATOM      4  C   UNL     1       9.104   0.618  24.142  0.00  0.00    +0.062 C 
ATOM      5  C   UNL     1       8.760  -0.816  24.535  0.00  0.00    +0.196 C 
ENDROOT
BRANCH   5   6
ATOM      6  N   UNL     1       7.635  -0.849  25.450  0.00  0.00    -0.110 NA
ATOM      7  C   UNL     1       7.833  -0.717  26.710  0.00  0.00    +0.377 C 
ATOM      8  N   UNL     1       6.763  -0.691  27.533  0.00  0.00    -0.289 N 
ATOM      9  H   UNL     1       6.857  -1.172  28.415  0.00  0.00    +0.255 HD
ATOM     10  H   UNL     1       5.916  -0.954  27.039  0.00  0.00    +0.255 HD
ATOM     11  N   UNL     1       8.983  -0.547  27.403  0.00  0.00    -0.289 N 
ATOM     12  H   UNL     1       8.986  -0.799  28.376  0.00  0.00    +0.255 HD
ATOM     13  H   UNL     1       9.861  -0.696  26.935  0.00  0.00    +0.255 HD
ENDBRANCH   5   6
BRANCH   2  14
ATOM     14  O   UNL     1      10.442  -1.611  21.729  0.00  0.00    -0.391 OA
ATOM     15  H   UNL     1      11.133  -1.027  21.365  0.00  0.00    +0.210 HD
ENDBRANCH   2  14
BRANCH   3  16
ATOM     16  C   UNL     1       9.944   1.637  21.973  0.00  0.00    +0.310 C 
ATOM     17  O   UNL     1      10.721   2.574  22.042  0.00  0.00    -0.251 OA
BRANCH  16  18
ATOM     18  O   UNL     1       9.012   1.543  20.994  0.00  0.00    -0.480 OA
ATOM     19  H   UNL     1       8.875   0.630  20.663  0.00  0.00    +0.295 HD
ENDBRANCH  16  18
ENDBRANCH   3  16
BRANCH   1  20
ATOM     20  C   UNL     1       8.233  -3.041  23.147  0.00  0.00    +0.085 C 
BRANCH  20  21
ATOM     21  N   UNL     1       8.122  -3.510  24.546  0.00  0.00    -0.312 N 
ATOM     22  H   UNL     1       7.305  -3.222  25.070  0.00  0.00    +0.149 HD
ATOM     23  C   UNL     1       9.099  -4.243  25.183  0.00  0.00    +0.210 C 
ATOM     24  C   UNL     1       8.777  -4.605  26.611  0.00  0.00    +0.109 C 
ATOM     25  O   UNL     1      10.152  -4.590  24.659  0.00  0.00    -0.276 OA
ENDBRANCH  20  21
BRANCH  20  26
ATOM     26  C   UNL     1       7.073  -3.694  22.296  0.00  0.00    +0.009 C 
BRANCH  26  28
ATOM     27  C   UNL     1       6.313  -6.003  21.351  0.00  0.00    +0.004 C 
ATOM     28  C   UNL     1       6.951  -5.220  22.489  0.00  0.00    +0.002 C 
ENDBRANCH  26  28
BRANCH  26  29
ATOM     29  C   UNL     1       5.698  -2.995  22.497  0.00  0.00    +0.002 C 
ATOM     30  C   UNL     1       4.838  -3.539  23.628  0.00  0.00    +0.004 C 
ENDBRANCH  26  29
ENDBRANCH  20  26
ENDBRANCH   1  20
TORSDOF 9
ENDMDL
MODEL 3
REMARK VINA RESULT:      -5.9      2.701      5.578
REMARK  Name = 
REMARK  12 active torsions:
REMARK  status: ('A' for Active; 'I' for Inactive)
REMARK    1  A    between atoms: C_1  and  C_2
REMARK    2  A    between atoms: C_2  and  C_3
REMARK    3  A    between atoms: C_3  and  C_4
REMARK    4  A    between atoms: C_3  and  C_6
REMARK    5  A    between atoms: C_4  and  C_5
REMARK    6  A    between atoms: C_6  and  C_7
REMARK    7  A    between atoms: C_6  and  N_24
REMARK    8  A    between atoms: C_9  and  N_20
REMARK    9  A    between atoms: C_12  and  C_17
REMARK   10  A    between atoms: C_14  and  O_16
REMARK   11  A    between atoms: C_17  and  O_19
REMARK   12  A    between atoms: C_25  and  C_27
REMARK                            x       y       z     vdW  Elec       q    Type
REMARK                         _______ _______ _______ _____ _____    ______ ____
ROOT
ATOM      1  C   UNL     1       7.872  -1.955  22.946  0.00  0.00    +0.079 C 
ATOM      2  C   UNL     1       9.116  -1.287  22.316  0.00  0.00    +0.137 C 
ATOM      3  C   UNL     1       9.261   0.099  22.965  0.00  0.00    +0.130 C 
ATOM      4  C   UNL     1       7.950   0.331  23.710  0.00  0.00    +0.062 C 
ATOM      5  C   UNL     1       7.570  -1.074  24.172  0.00  0.00    +0.196 C 
ENDROOT
BRANCH   5   6
ATOM      6  N   UNL     1       6.168  -1.141  24.535  0.00  0.00    -0.110 NA
ATOM      7  C   UNL     1       5.833  -1.359  25.754  0.00  0.00    +0.377 C 
ATOM      8  N   UNL     1       4.522  -1.356  26.074  0.00  0.00    -0.289 N 
ATOM      9  H   UNL     1       4.216  -2.048  26.742  0.00  0.00    +0.255 HD
ATOM     10  H   UNL     1       3.943  -1.342  25.241  0.00  0.00    +0.255 HD
ATOM     11  N   UNL     1       6.601  -1.563  26.850  0.00  0.00    -0.289 N 
ATOM     12  H   UNL     1       6.187  -2.044  27.629  0.00  0.00    +0.255 HD
ATOM     13  H   UNL     1       7.585  -1.738  26.731  0.00  0.00    +0.255 HD
ENDBRANCH   5   6
BRANCH   2  14
ATOM     14  O   UNL     1      10.340  -1.990  22.491  0.00  0.00    -0.391 OA
ATOM     15  H   UNL     1      10.623  -2.341  21.626  0.00  0.00    +0.210 HD
ENDBRANCH   2  14
BRANCH   3  16
ATOM     16  C   UNL     1       9.563   1.163  21.934  0.00  0.00    +0.310 C 
ATOM     17  O   UNL     1      10.451   1.995  22.022  0.00  0.00    -0.251 OA
BRANCH  16  18
ATOM     18  O   UNL     1       8.778   1.059  20.835  0.00  0.00    -0.480 OA
ATOM     19  H   UNL     1       8.782   0.167  20.427  0.00  0.00    +0.295 HD
ENDBRANCH  16  18
ENDBRANCH   3  16
BRANCH   1  20
ATOM     20  C   UNL     1       7.840  -3.512  23.105  0.00  0.00    +0.085 C 
BRANCH  20  21
ATOM     21  N   UNL     1       7.996  -3.806  24.546  0.00  0.00    -0.312 N 
ATOM     22  H   UNL     1       7.190  -3.660  25.141  0.00  0.00    +0.149 HD
ATOM     23  C   UNL     1       9.188  -4.189  25.121  0.00  0.00    +0.210 C 
ATOM     24  C   UNL     1       9.116  -4.429  26.607  0.00  0.00    +0.109 C 
ATOM     25  O   UNL     1      10.237  -4.334  24.501  0.00  0.00    -0.276 OA
ENDBRANCH  20  21
BRANCH  20  26
ATOM     26  C   UNL     1       6.630  -4.354  22.539  0.00  0.00    +0.009 C 
BRANCH  26  28
ATOM     27  C   UNL     1       6.135  -5.991  20.571  0.00  0.00    +0.004 C 
ATOM     28  C   UNL     1       7.065  -5.573  21.700  0.00  0.00    +0.002 C 
ENDBRANCH  26  28
BRANCH  26  29
ATOM     29  C   UNL     1       5.608  -4.769  23.636  0.00  0.00    +0.002 C 
ATOM     30  C   UNL     1       4.194  -4.236  23.459  0.00  0.00    +0.004 C 
ENDBRANCH  26  29
ENDBRANCH  20  26
ENDBRANCH   1  20
TORSDOF 9
ENDMDL
MODEL 4
REMARK VINA RESULT:      -5.7      1.401      3.076
REMARK  Name = 
REMARK  12 active torsions:
REMARK  status: ('A' for Active; 'I' for Inactive)
REMARK    1  A    between atoms: C_1  and  C_2
REMARK    2  A    between atoms: C_2  and  C_3
REMARK    3  A    between atoms: C_3  and  C_4
REMARK    4  A    between atoms: C_3  and  C_6
REMARK    5  A    between atoms: C_4  and  C_5
REMARK    6  A    between atoms: C_6  and  C_7
REMARK    7  A    between atoms: C_6  and  N_24
REMARK    8  A    between atoms: C_9  and  N_20
REMARK    9  A    between atoms: C_12  and  C_17
REMARK   10  A    between atoms: C_14  and  O_16
REMARK   11  A    between atoms: C_17  and  O_19
REMARK   12  A    between atoms: C_25  and  C_27
REMARK                            x       y       z     vdW  Elec       q    Type
REMARK                         _______ _______ _______ _____ _____    ______ ____
ROOT
ATOM      1  C   UNL     1       7.889  -2.959  23.107  0.00  0.00    +0.079 C 
ATOM      2  C   UNL     1       6.703  -3.098  22.123  0.00  0.00    +0.137 C 
ATOM      3  C   UNL     1       6.297  -4.581  22.112  0.00  0.00    +0.130 C 
ATOM      4  C   UNL     1       7.428  -5.310  22.831  0.00  0.00    +0.062 C 
ATOM      5  C   UNL     1       7.877  -4.292  23.876  0.00  0.00    +0.196 C 
ENDROOT
BRANCH   5   6
ATOM      6  N   UNL     1       9.196  -4.617  24.385  0.00  0.00    -0.110 NA
ATOM      7  C   UNL     1       9.315  -5.262  25.487  0.00  0.00    +0.377 C 
ATOM      8  N   UNL     1      10.551  -5.604  25.905  0.00  0.00    -0.289 N 
ATOM      9  H   UNL     1      10.732  -5.532  26.896  0.00  0.00    +0.255 HD
ATOM     10  H   UNL     1      11.265  -5.142  25.350  0.00  0.00    +0.255 HD
ATOM     11  N   UNL     1       8.368  -5.726  26.336  0.00  0.00    -0.289 N 
ATOM     12  H   UNL     1       8.638  -5.899  27.289  0.00  0.00    +0.255 HD
ATOM     13  H   UNL     1       7.418  -5.416  26.225  0.00  0.00    +0.255 HD
ENDBRANCH   5   6
BRANCH   2  14
ATOM     14  O   UNL     1       5.553  -2.323  22.441  0.00  0.00    -0.391 OA
ATOM     15  H   UNL     1       5.451  -2.303  23.410  0.00  0.00    +0.210 HD
ENDBRANCH   2  14
BRANCH   3  16
ATOM     16  C   UNL     1       6.058  -5.079  20.706  0.00  0.00    +0.310 C 
ATOM     17  O   UNL     1       6.044  -6.251  20.367  0.00  0.00    -0.251 OA
BRANCH  16  18
ATOM     18  O   UNL     1       5.778  -4.075  19.840  0.00  0.00    -0.480 OA
ATOM     19  H   UNL     1       6.560  -3.541  19.585  0.00  0.00    +0.295 HD
ENDBRANCH  16  18
ENDBRANCH   3  16
BRANCH   1  20
ATOM     20  C   UNL     1       8.066  -1.624  23.903  0.00  0.00    +0.085 C 
BRANCH  20  21
ATOM     21  N   UNL     1       8.127  -0.530  22.910  0.00  0.00    -0.312 N 
ATOM     22  H   UNL     1       7.252  -0.213  22.511  0.00  0.00    +0.149 HD
ATOM     23  C   UNL     1       9.306   0.019  22.452  0.00  0.00    +0.210 C 
ATOM     24  C   UNL     1       9.129   1.117  21.435  0.00  0.00    +0.109 C 
ATOM     25  O   UNL     1      10.420  -0.335  22.823  0.00  0.00    -0.276 OA
ENDBRANCH  20  21
BRANCH  20  26
ATOM     26  C   UNL     1       7.046  -1.225  25.042  0.00  0.00    +0.009 C 
BRANCH  26  28
ATOM     27  C   UNL     1       6.207  -2.880  26.874  0.00  0.00    +0.004 C 
ATOM     28  C   UNL     1       7.303  -1.948  26.380  0.00  0.00    +0.002 C 
ENDBRANCH  26  28
BRANCH  26  29
ATOM     29  C   UNL     1       6.933   0.312  25.250  0.00  0.00    +0.002 C 
ATOM     30  C   UNL     1       5.555   0.912  25.014  0.00  0.00    +0.004 C 
ENDBRANCH  26  29
ENDBRANCH  20  26
ENDBRANCH   1  20
TORSDOF 9
ENDMDL
MODEL 5
REMARK VINA RESULT:      -5.6      2.462      5.691
REMARK  Name = 
REMARK  12 active torsions:
REMARK  status: ('A' for Active; 'I' for Inactive)
REMARK    1  A    between atoms: C_1  and  C_2
REMARK    2  A    between atoms: C_2  and  C_3
REMARK    3  A    between atoms: C_3  and  C_4
REMARK    4  A    between atoms: C_3  and  C_6
REMARK    5  A    between atoms: C_4  and  C_5
REMARK    6  A    between atoms: C_6  and  C_7
REMARK    7  A    between atoms: C_6  and  N_24
REMARK    8  A    between atoms: C_9  and  N_20
REMARK    9  A    between atoms: C_12  and  C_17
REMARK   10  A    between atoms: C_14  and  O_16
REMARK   11  A    between atoms: C_17  and  O_19
REMARK   12  A    between atoms: C_25  and  C_27
REMARK                            x       y       z     vdW  Elec       q    Type
REMARK                         _______ _______ _______ _____ _____    ______ ____
ROOT
ATOM      1  C   UNL     1       6.548  -2.388  24.665  0.00  0.00    +0.079 C 
ATOM      2  C   UNL     1       7.189  -1.083  24.137  0.00  0.00    +0.137 C 
ATOM      3  C   UNL     1       8.627  -1.036  24.678  0.00  0.00    +0.130 C 
ATOM      4  C   UNL     1       8.691  -2.129  25.741  0.00  0.00    +0.062 C 
ATOM      5  C   UNL     1       7.750  -3.196  25.185  0.00  0.00    +0.196 C 
ENDROOT
BRANCH   5   6
ATOM      6  N   UNL     1       7.348  -4.126  26.223  0.00  0.00    -0.110 NA
ATOM      7  C   UNL     1       8.027  -5.197  26.420  0.00  0.00    +0.377 C 
ATOM      8  N   UNL     1       7.666  -6.014  27.431  0.00  0.00    -0.289 N 
ATOM      9  H   UNL     1       7.724  -7.006  27.256  0.00  0.00    +0.255 HD
ATOM     10  H   UNL     1       6.768  -5.743  27.817  0.00  0.00    +0.255 HD
ATOM     11  N   UNL     1       9.128  -5.664  25.786  0.00  0.00    -0.289 N 
ATOM     12  H   UNL     1       9.317  -6.649  25.839  0.00  0.00    +0.255 HD
ATOM     13  H   UNL     1       9.414  -5.233  24.922  0.00  0.00    +0.255 HD
ENDBRANCH   5   6
BRANCH   2  14
ATOM     14  O   UNL     1       7.242  -0.958  22.721  0.00  0.00    -0.391 OA
ATOM     15  H   UNL     1       6.358  -0.703  22.399  0.00  0.00    +0.210 HD
ENDBRANCH   2  14
BRANCH   3  16
ATOM     16  C   UNL     1       8.975   0.336  25.206  0.00  0.00    +0.310 C 
ATOM     17  O   UNL     1       8.179   1.241  25.393  0.00  0.00    -0.251 OA
BRANCH  16  18
ATOM     18  O   UNL     1      10.286   0.451  25.531  0.00  0.00    -0.480 OA
ATOM     19  H   UNL     1      10.456   1.054  26.285  0.00  0.00    +0.295 HD
ENDBRANCH  16  18
ENDBRANCH   3  16
BRANCH   1  20
ATOM     20  C   UNL     1       5.466  -3.111  23.796  0.00  0.00    +0.085 C 
BRANCH  20  21
ATOM     21  N   UNL     1       6.113  -4.300  23.197  0.00  0.00    -0.312 N 
ATOM     22  H   UNL     1       6.573  -4.946  23.825  0.00  0.00    +0.149 HD
ATOM     23  C   UNL     1       6.183  -4.526  21.839  0.00  0.00    +0.210 C 
ATOM     24  C   UNL     1       6.895  -5.797  21.454  0.00  0.00    +0.109 C 
ATOM     25  O   UNL     1       5.714  -3.775  20.991  0.00  0.00    -0.276 OA
ENDBRANCH  20  21
BRANCH  20  26
ATOM     26  C   UNL     1       4.085  -3.544  24.427  0.00  0.00    +0.009 C 
BRANCH  26  28
ATOM     27  C   UNL     1       2.762  -5.528  23.370  0.00  0.00    +0.004 C 
ATOM     28  C   UNL     1       3.824  -5.063  24.356  0.00  0.00    +0.002 C 
ENDBRANCH  26  28
BRANCH  26  29
ATOM     29  C   UNL     1       3.879  -3.010  25.873  0.00  0.00    +0.002 C 
ATOM     30  C   UNL     1       3.814  -4.067  26.966  0.00  0.00    +0.004 C 
ENDBRANCH  26  29
ENDBRANCH  20  26
ENDBRANCH   1  20
TORSDOF 9
ENDMDL
MODEL 6
REMARK VINA RESULT:      -5.6      4.409      6.057
REMARK  Name = 
REMARK  12 active torsions:
REMARK  status: ('A' for Active; 'I' for Inactive)
REMARK    1  A    between atoms: C_1  and  C_2
REMARK    2  A    between atoms: C_2  and  C_3
REMARK    3  A    between atoms: C_3  and  C_4
REMARK    4  A    between atoms: C_3  and  C_6
REMARK    5  A    between atoms: C_4  and  C_5
REMARK    6  A    between atoms: C_6  and  C_7
REMARK    7  A    between atoms: C_6  and  N_24
REMARK    8  A    between atoms: C_9  and  N_20
REMARK    9  A    between atoms: C_12  and  C_17
REMARK   10  A    between atoms: C_14  and  O_16
REMARK   11  A    between atoms: C_17  and  O_19
REMARK   12  A    between atoms: C_25  and  C_27
REMARK                            x       y       z     vdW  Elec       q    Type
REMARK                         _______ _______ _______ _____ _____    ______ ____
ROOT
ATOM      1  C   UNL     1       9.342   2.012  23.638  0.00  0.00    +0.079 C 
ATOM      2  C   UNL     1       9.631   0.975  22.527  0.00  0.00    +0.137 C 
ATOM      3  C   UNL     1       8.960  -0.340  22.952  0.00  0.00    +0.130 C 
ATOM      4  C   UNL     1       8.572  -0.138  24.414  0.00  0.00    +0.062 C 
ATOM      5  C   UNL     1       8.230   1.349  24.470  0.00  0.00    +0.196 C 
ENDROOT
BRANCH   5   6
ATOM      6  N   UNL     1       8.237   1.833  25.837  0.00  0.00    -0.110 NA
ATOM      7  C   UNL     1       7.132   1.951  26.478  0.00  0.00    +0.377 C 
ATOM      8  N   UNL     1       7.173   2.346  27.768  0.00  0.00    -0.289 N 
ATOM      9  H   UNL     1       6.451   2.983  28.072  0.00  0.00    +0.255 HD
ATOM     10  H   UNL     1       8.102   2.667  28.022  0.00  0.00    +0.255 HD
ATOM     11  N   UNL     1       5.861   1.699  26.087  0.00  0.00    -0.289 N 
ATOM     12  H   UNL     1       5.118   2.159  26.583  0.00  0.00    +0.255 HD
ATOM     13  H   UNL     1       5.672   1.543  25.111  0.00  0.00    +0.255 HD
ENDBRANCH   5   6
BRANCH   2  14
ATOM     14  O   UNL     1       9.154   1.321  21.232  0.00  0.00    -0.391 OA
ATOM     15  H   UNL     1       8.183   1.242  21.229  0.00  0.00    +0.210 HD
ENDBRANCH   2  14
BRANCH   3  16
ATOM     16  C   UNL     1       9.874  -1.524  22.731  0.00  0.00    +0.310 C 
ATOM     17  O   UNL     1      10.102  -2.399  23.550  0.00  0.00    -0.251 OA
BRANCH  16  18
ATOM     18  O   UNL     1      10.375  -1.565  21.473  0.00  0.00    -0.480 OA
ATOM     19  H   UNL     1      10.726  -2.443  21.214  0.00  0.00    +0.295 HD
ENDBRANCH  16  18
ENDBRANCH   3  16
BRANCH   1  20
ATOM     20  C   UNL     1       9.206   3.523  23.255  0.00  0.00    +0.085 C 
BRANCH  20  21
ATOM     21  N   UNL     1       7.831   3.939  23.611  0.00  0.00    -0.312 N 
ATOM     22  H   UNL     1       7.684   4.312  24.541  0.00  0.00    +0.149 HD
ATOM     23  C   UNL     1       6.745   3.775  22.779  0.00  0.00    +0.210 C 
ATOM     24  C   UNL     1       5.440   4.266  23.352  0.00  0.00    +0.109 C 
ATOM     25  O   UNL     1       6.805   3.278  21.660  0.00  0.00    -0.276 OA
ENDBRANCH  20  21
BRANCH  20  26
ATOM     26  C   UNL     1      10.225   4.591  23.815  0.00  0.00    +0.009 C 
BRANCH  26  28
ATOM     27  C   UNL     1      12.653   5.500  23.535  0.00  0.00    +0.004 C 
ATOM     28  C   UNL     1      11.684   4.338  23.380  0.00  0.00    +0.002 C 
ENDBRANCH  26  28
BRANCH  26  29
ATOM     29  C   UNL     1       9.801   6.057  23.517  0.00  0.00    +0.002 C 
ATOM     30  C   UNL     1       9.505   6.921  24.734  0.00  0.00    +0.004 C 
ENDBRANCH  26  29
ENDBRANCH  20  26
ENDBRANCH   1  20
TORSDOF 9
ENDMDL
MODEL 7
REMARK VINA RESULT:      -5.4      2.197      2.566
REMARK  Name = 
REMARK  12 active torsions:
REMARK  status: ('A' for Active; 'I' for Inactive)
REMARK    1  A    between atoms: C_1  and  C_2
REMARK    2  A    between atoms: C_2  and  C_3
REMARK    3  A    between atoms: C_3  and  C_4
REMARK    4  A    between atoms: C_3  and  C_6
REMARK    5  A    between atoms: C_4  and  C_5
REMARK    6  A    between atoms: C_6  and  C_7
REMARK    7  A    between atoms: C_6  and  N_24
REMARK    8  A    between atoms: C_9  and  N_20
REMARK    9  A    between atoms: C_12  and  C_17
REMARK   10  A    between atoms: C_14  and  O_16
REMARK   11  A    between atoms: C_17  and  O_19
REMARK   12  A    between atoms: C_25  and  C_27
REMARK                            x       y       z     vdW  Elec       q    Type
REMARK                         _______ _______ _______ _____ _____    ______ ____
ROOT
ATOM      1  C   UNL     1       5.996  -3.475  24.103  0.00  0.00    +0.079 C 
ATOM      2  C   UNL     1       4.505  -3.860  23.953  0.00  0.00    +0.137 C 
ATOM      3  C   UNL     1       4.348  -5.283  24.512  0.00  0.00    +0.130 C 
ATOM      4  C   UNL     1       5.772  -5.805  24.681  0.00  0.00    +0.062 C 
ATOM      5  C   UNL     1       6.552  -4.548  25.057  0.00  0.00    +0.196 C 
ENDROOT
BRANCH   5   6
ATOM      6  N   UNL     1       7.975  -4.740  24.858  0.00  0.00    -0.110 NA
ATOM      7  C   UNL     1       8.681  -5.283  25.781  0.00  0.00    +0.377 C 
ATOM      8  N   UNL     1       9.991  -5.505  25.546  0.00  0.00    -0.289 N 
ATOM      9  H   UNL     1      10.625  -5.340  26.314  0.00  0.00    +0.255 HD
ATOM     10  H   UNL     1      10.293  -5.045  24.693  0.00  0.00    +0.255 HD
ATOM     11  N   UNL     1       8.323  -5.738  27.005  0.00  0.00    -0.289 N 
ATOM     12  H   UNL     1       9.039  -5.813  27.705  0.00  0.00    +0.255 HD
ATOM     13  H   UNL     1       7.414  -5.502  27.366  0.00  0.00    +0.255 HD
ENDBRANCH   5   6
BRANCH   2  14
ATOM     14  O   UNL     1       3.586  -3.011  24.631  0.00  0.00    -0.391 OA
ATOM     15  H   UNL     1       3.203  -3.504  25.380  0.00  0.00    +0.210 HD
ENDBRANCH   2  14
BRANCH   3  16
ATOM     16  C   UNL     1       3.496  -6.142  23.607  0.00  0.00    +0.310 C 
ATOM     17  O   UNL     1       2.728  -5.722  22.758  0.00  0.00    -0.251 OA
BRANCH  16  18
ATOM     18  O   UNL     1       3.723  -7.466  23.782  0.00  0.00    -0.480 OA
ATOM     19  H   UNL     1       3.313  -8.033  23.097  0.00  0.00    +0.295 HD
ENDBRANCH  16  18
ENDBRANCH   3  16
BRANCH   1  20
ATOM     20  C   UNL     1       6.376  -1.976  24.342  0.00  0.00    +0.085 C 
BRANCH  20  21
ATOM     21  N   UNL     1       6.225  -1.715  25.790  0.00  0.00    -0.312 N 
ATOM     22  H   UNL     1       6.809  -2.247  26.423  0.00  0.00    +0.149 HD
ATOM     23  C   UNL     1       5.288  -0.850  26.314  0.00  0.00    +0.210 C 
ATOM     24  C   UNL     1       5.309  -0.745  27.818  0.00  0.00    +0.109 C 
ATOM     25  O   UNL     1       4.493  -0.205  25.640  0.00  0.00    -0.276 OA
ENDBRANCH  20  21
BRANCH  20  26
ATOM     26  C   UNL     1       7.773  -1.414  23.864  0.00  0.00    +0.009 C 
BRANCH  26  28
ATOM     27  C   UNL     1       9.586  -1.513  21.992  0.00  0.00    +0.004 C 
ATOM     28  C   UNL     1       8.223  -1.966  22.495  0.00  0.00    +0.002 C 
ENDBRANCH  26  28
BRANCH  26  29
ATOM     29  C   UNL     1       7.849   0.139  23.892  0.00  0.00    +0.002 C 
ATOM     30  C   UNL     1       8.779   0.737  24.937  0.00  0.00    +0.004 C 
ENDBRANCH  26  29
ENDBRANCH  20  26
ENDBRANCH   1  20
TORSDOF 9
ENDMDL
MODEL 8
REMARK VINA RESULT:      -5.4      2.938      5.778
REMARK  Name = 
REMARK  12 active torsions:
REMARK  status: ('A' for Active; 'I' for Inactive)
REMARK    1  A    between atoms: C_1  and  C_2
REMARK    2  A    between atoms: C_2  and  C_3
REMARK    3  A    between atoms: C_3  and  C_4
REMARK    4  A    between atoms: C_3  and  C_6
REMARK    5  A    between atoms: C_4  and  C_5
REMARK    6  A    between atoms: C_6  and  C_7
REMARK    7  A    between atoms: C_6  and  N_24
REMARK    8  A    between atoms: C_9  and  N_20
REMARK    9  A    between atoms: C_12  and  C_17
REMARK   10  A    between atoms: C_14  and  O_16
REMARK   11  A    between atoms: C_17  and  O_19
REMARK   12  A    between atoms: C_25  and  C_27
REMARK                            x       y       z     vdW  Elec       q    Type
REMARK                         _______ _______ _______ _____ _____    ______ ____
ROOT
ATOM      1  C   UNL     1       7.697  -3.100  24.293  0.00  0.00    +0.079 C 
ATOM      2  C   UNL     1       9.117  -2.868  23.726  0.00  0.00    +0.137 C 
ATOM      3  C   UNL     1       9.504  -1.418  24.057  0.00  0.00    +0.130 C 
ATOM      4  C   UNL     1       8.211  -0.755  24.521  0.00  0.00    +0.062 C 
ATOM      5  C   UNL     1       7.480  -1.895  25.226  0.00  0.00    +0.196 C 
ENDROOT
BRANCH   5   6
ATOM      6  N   UNL     1       6.069  -1.594  25.375  0.00  0.00    -0.110 NA
ATOM      7  C   UNL     1       5.656  -0.966  26.415  0.00  0.00    +0.377 C 
ATOM      8  N   UNL     1       4.348  -0.646  26.499  0.00  0.00    -0.289 N 
ATOM      9  H   UNL     1       3.916  -0.734  27.408  0.00  0.00    +0.255 HD
ATOM     10  H   UNL     1       3.812  -1.108  25.772  0.00  0.00    +0.255 HD
ATOM     11  N   UNL     1       6.341  -0.503  27.487  0.00  0.00    -0.289 N 
ATOM     12  H   UNL     1       5.829  -0.347  28.338  0.00  0.00    +0.255 HD
ATOM     13  H   UNL     1       7.292  -0.800  27.625  0.00  0.00    +0.255 HD
ENDBRANCH   5   6
BRANCH   2  14
ATOM     14  O   UNL     1      10.127  -3.728  24.241  0.00  0.00    -0.391 OA
ATOM     15  H   UNL     1      10.410  -3.388  25.110  0.00  0.00    +0.210 HD
ENDBRANCH   2  14
BRANCH   3  16
ATOM     16  C   UNL     1      10.141  -0.731  22.872  0.00  0.00    +0.310 C 
ATOM     17  O   UNL     1      10.380   0.463  22.796  0.00  0.00    -0.251 OA
BRANCH  16  18
ATOM     18  O   UNL     1      10.502  -1.601  21.899  0.00  0.00    -0.480 OA
ATOM     19  H   UNL     1      11.434  -1.900  21.958  0.00  0.00    +0.295 HD
ENDBRANCH  16  18
ENDBRANCH   3  16
BRANCH   1  20
ATOM     20  C   UNL     1       7.300  -4.528  24.794  0.00  0.00    +0.085 C 
BRANCH  20  21
ATOM     21  N   UNL     1       6.421  -4.348  25.970  0.00  0.00    -0.312 N 
ATOM     22  H   UNL     1       5.641  -3.711  25.875  0.00  0.00    +0.149 HD
ATOM     23  C   UNL     1       6.655  -4.938  27.193  0.00  0.00    +0.210 C 
ATOM     24  C   UNL     1       5.633  -4.609  28.251  0.00  0.00    +0.109 C 
ATOM     25  O   UNL     1       7.605  -5.677  27.431  0.00  0.00    -0.276 OA
ENDBRANCH  20  21
BRANCH  20  26
ATOM     26  C   UNL     1       6.631  -5.568  23.810  0.00  0.00    +0.009 C 
BRANCH  26  28
ATOM     27  C   UNL     1       4.463  -6.878  24.428  0.00  0.00    +0.004 C 
ATOM     28  C   UNL     1       5.091  -5.598  23.899  0.00  0.00    +0.002 C 
ENDBRANCH  26  28
BRANCH  26  29
ATOM     29  C   UNL     1       7.102  -5.407  22.337  0.00  0.00    +0.002 C 
ATOM     30  C   UNL     1       6.111  -5.853  21.273  0.00  0.00    +0.004 C 
ENDBRANCH  26  29
ENDBRANCH  20  26
ENDBRANCH   1  20
TORSDOF 9
ENDMDL
MODEL 9
REMARK VINA RESULT:      -5.3      3.595      5.477
REMARK  Name = 
REMARK  12 active torsions:
REMARK  status: ('A' for Active; 'I' for Inactive)
REMARK    1  A    between atoms: C_1  and  C_2
REMARK    2  A    between atoms: C_2  and  C_3
REMARK    3  A    between atoms: C_3  and  C_4
REMARK    4  A    between atoms: C_3  and  C_6
REMARK    5  A    between atoms: C_4  and  C_5
REMARK    6  A    between atoms: C_6  and  C_7
REMARK    7  A    between atoms: C_6  and  N_24
REMARK    8  A    between atoms: C_9  and  N_20
REMARK    9  A    between atoms: C_12  and  C_17
REMARK   10  A    between atoms: C_14  and  O_16
REMARK   11  A    between atoms: C_17  and  O_19
REMARK   12  A    between atoms: C_25  and  C_27
REMARK                            x       y       z     vdW  Elec       q    Type
REMARK                         _______ _______ _______ _____ _____    ______ ____
ROOT
ATOM      1  C   UNL     1       8.715  -0.938  24.600  0.00  0.00    +0.079 C 
ATOM      2  C   UNL     1       9.185   0.532  24.706  0.00  0.00    +0.137 C 
ATOM      3  C   UNL     1       8.953   1.179  23.331  0.00  0.00    +0.130 C 
ATOM      4  C   UNL     1       8.656   0.019  22.387  0.00  0.00    +0.062 C 
ATOM      5  C   UNL     1       7.914  -0.967  23.286  0.00  0.00    +0.196 C 
ENDROOT
BRANCH   5   6
ATOM      6  N   UNL     1       7.905  -2.296  22.705  0.00  0.00    -0.110 NA
ATOM      7  C   UNL     1       6.792  -2.903  22.515  0.00  0.00    +0.377 C 
ATOM      8  N   UNL     1       6.809  -4.113  21.918  0.00  0.00    -0.289 N 
ATOM      9  H   UNL     1       6.167  -4.806  22.274  0.00  0.00    +0.255 HD
ATOM     10  H   UNL     1       7.757  -4.469  21.842  0.00  0.00    +0.255 HD
ATOM     11  N   UNL     1       5.524  -2.511  22.782  0.00  0.00    -0.289 N 
ATOM     12  H   UNL     1       4.824  -3.225  22.884  0.00  0.00    +0.255 HD
ATOM     13  H   UNL     1       5.375  -1.700  23.360  0.00  0.00    +0.255 HD
ENDBRANCH   5   6
BRANCH   2  14
ATOM     14  O   UNL     1       8.516   1.317  25.686  0.00  0.00    -0.391 OA
ATOM     15  H   UNL     1       7.744   1.741  25.270  0.00  0.00    +0.210 HD
ENDBRANCH   2  14
BRANCH   3  16
ATOM     16  C   UNL     1      10.140   2.012  22.905  0.00  0.00    +0.310 C 
ATOM     17  O   UNL     1      11.000   2.446  23.654  0.00  0.00    -0.251 OA
BRANCH  16  18
ATOM     18  O   UNL     1      10.204   2.178  21.562  0.00  0.00    -0.480 OA
ATOM     19  H   UNL     1      11.085   2.459  21.238  0.00  0.00    +0.295 HD
ENDBRANCH  16  18
ENDBRANCH   3  16
BRANCH   1  20
ATOM     20  C   UNL     1       8.123  -1.642  25.866  0.00  0.00    +0.085 C 
BRANCH  20  21
ATOM     21  N   UNL     1       6.671  -1.362  25.881  0.00  0.00    -0.312 N 
ATOM     22  H   UNL     1       6.114  -1.750  25.130  0.00  0.00    +0.149 HD
ATOM     23  C   UNL     1       6.061  -0.548  26.810  0.00  0.00    +0.210 C 
ATOM     24  C   UNL     1       4.572  -0.398  26.629  0.00  0.00    +0.109 C 
ATOM     25  O   UNL     1       6.653   0.020  27.722  0.00  0.00    -0.276 OA
ENDBRANCH  20  21
BRANCH  20  26
ATOM     26  C   UNL     1       8.348  -3.187  26.107  0.00  0.00    +0.009 C 
BRANCH  26  28
ATOM     27  C   UNL     1       6.588  -4.622  27.389  0.00  0.00    +0.004 C 
ATOM     28  C   UNL     1       7.045  -4.013  26.072  0.00  0.00    +0.002 C 
ENDBRANCH  26  28
BRANCH  26  29
ATOM     29  C   UNL     1       9.424  -3.802  25.166  0.00  0.00    +0.002 C 
ATOM     30  C   UNL     1       9.278  -5.289  24.878  0.00  0.00    +0.004 C 
ENDBRANCH  26  29
ENDBRANCH  20  26
ENDBRANCH   1  20
TORSDOF 9
ENDMDL
