MODEL 1
REMARK VINA RESULT:      -6.7      0.000      0.000
REMARK  Name = 
REMARK  13 active torsions:
REMARK  status: ('A' for Active; 'I' for Inactive)
REMARK    1  A    between atoms: C_1  and  C_2
REMARK    2  A    between atoms: C_3  and  O_51
REMARK    3  A    between atoms: C_9  and  C_43
REMARK    4  A    between atoms: C_11  and  O_12
REMARK    5  A    between atoms: O_12  and  C_13
REMARK    6  A    between atoms: N_20  and  C_42
REMARK    7  A    between atoms: C_29  and  C_33
REMARK    8  A    between atoms: N_35  and  S_36
REMARK    9  A    between atoms: S_36  and  C_39
REMARK   10  A    between atoms: C_45  and  C_48
REMARK   11  A    between atoms: C_48  and  C_49
REMARK   12  A    between atoms: C_48  and  C_50
REMARK   13  A    between atoms: O_51  and  C_52
REMARK                            x       y       z     vdW  Elec       q    Type
REMARK                         _______ _______ _______ _____ _____    ______ ____
ROOT
ATOM      1  C   UNL     1       4.952  -4.050  23.166  0.00  0.00    +0.175 C 
ATOM      2  C   UNL     1       5.729  -4.457  21.886  0.00  0.00    +0.058 C 
ATOM      3  C   UNL     1       7.190  -4.102  22.301  0.00  0.00    +0.091 C 
ATOM      4  C   UNL     1       7.646  -5.210  23.296  0.00  0.00    +0.219 C 
ATOM      5  N   UNL     1       8.002  -4.869  24.604  0.00  0.00    -0.304 N 
ATOM      6  C   UNL     1       9.343  -5.327  24.931  0.00  0.00    +0.132 C 
ATOM      7  C   UNL     1       7.055  -5.247  25.674  0.00  0.00    +0.107 C 
ATOM      8  C   UNL     1       7.147  -4.335  26.900  0.00  0.00    +0.019 C 
ATOM      9  C   UNL     1       5.772  -4.047  27.536  0.00  0.00    +0.006 C 
ATOM     10  C   UNL     1       5.601  -2.583  27.952  0.00  0.00    +0.027 C 
ATOM     11  C   UNL     1       5.448  -1.598  26.801  0.00  0.00    -0.031 C 
ATOM     12  C   UNL     1       6.458  -0.785  26.447  0.00  0.00    -0.025 C 
ATOM     13  C   UNL     1       6.506   0.392  25.564  0.00  0.00    +0.046 C 
ATOM     14  C   UNL     1       7.051   0.647  24.143  0.00  0.00    +0.119 C 
ATOM     15  N   UNL     1       7.066  -0.423  23.185  0.00  0.00    -0.301 N 
ATOM     16  H   UNL     1       6.235  -0.416  22.598  0.00  0.00    +0.150 HD
ATOM     17  C   UNL     1       7.796  -1.607  23.208  0.00  0.00    +0.218 C 
ATOM     18  O   UNL     1       8.940  -1.759  23.592  0.00  0.00    -0.275 OA
ATOM     19  C   UNL     1       7.968   0.760  25.314  0.00  0.00    +0.046 C 
ATOM     20  O   UNL     1       7.694  -6.386  22.920  0.00  0.00    -0.275 OA
ATOM     21  C   UNL     1       6.873  -2.677  22.689  0.00  0.00    +0.090 C 
ATOM     22  C   UNL     1       5.677  -2.806  23.628  0.00  0.00    +0.058 C 
ENDROOT
BRANCH  14  23
ATOM     23  C   UNL     1       6.628   1.956  23.507  0.00  0.00    +0.256 C 
ATOM     24  N   UNL     1       7.393   3.054  23.863  0.00  0.00    -0.188 N 
ATOM     25  H   UNL     1       8.235   2.947  24.423  0.00  0.00    +0.176 HD
ATOM     26  O   UNL     1       5.677   1.988  22.722  0.00  0.00    -0.272 OA
BRANCH  24  27
ATOM     27  S   UNL     1       7.074   4.613  23.406  0.00  0.00    +0.048 S 
ATOM     28  O   UNL     1       5.752   4.944  23.887  0.00  0.00    -0.155 OA
ATOM     29  O   UNL     1       7.387   4.666  21.995  0.00  0.00    -0.155 OA
BRANCH  27  30
ATOM     30  C   UNL     1       8.238   5.694  24.287  0.00  0.00    +0.151 C 
ATOM     31  C   UNL     1       9.217   6.455  23.439  0.00  0.00    +0.030 C 
ATOM     32  C   UNL     1       9.673   5.235  24.192  0.00  0.00    +0.030 C 
ENDBRANCH  27  30
ENDBRANCH  24  27
ENDBRANCH  14  23
BRANCH   1  33
ATOM     33  O   UNL     1       3.559  -3.745  23.138  0.00  0.00    -0.488 OA
BRANCH  33  40
ATOM     34  C   UNL     1       1.444  -7.891  27.171  0.00  0.00    +0.050 C 
ATOM     35  C   UNL     1       1.854  -7.441  25.789  0.00  0.00    +0.017 A 
ATOM     36  C   UNL     1       2.099  -6.072  25.600  0.00  0.00    +0.082 A 
ATOM     37  N   UNL     1       1.918  -5.225  26.646  0.00  0.00    -0.244 NA
ATOM     38  C   UNL     1       2.199  -3.922  26.478  0.00  0.00    +0.100 A 
ATOM     39  C   UNL     1       2.681  -3.434  25.293  0.00  0.00    +0.076 A 
ATOM     40  C   UNL     1       2.898  -4.274  24.225  0.00  0.00    +0.132 A 
ATOM     41  C   UNL     1       2.560  -5.633  24.336  0.00  0.00    +0.043 A 
ATOM     42  C   UNL     1       2.665  -6.557  23.272  0.00  0.00    +0.017 A 
ATOM     43  C   UNL     1       2.387  -7.913  23.472  0.00  0.00    +0.047 A 
ATOM     44  C   UNL     1       2.016  -8.368  24.736  0.00  0.00    +0.125 A 
BRANCH  38  45
ATOM     45  C   UNL     1       2.134  -2.954  27.580  0.00  0.00    +0.127 A 
ATOM     46  S   UNL     1       2.201  -3.393  29.229  0.00  0.00    -0.074 S 
ATOM     47  C   UNL     1       2.333  -1.729  29.652  0.00  0.00    +0.070 A 
ATOM     48  C   UNL     1       2.286  -0.933  28.520  0.00  0.00    +0.052 A 
ATOM     49  N   UNL     1       2.146  -1.649  27.354  0.00  0.00    -0.242 NA
BRANCH  48  50
ATOM     50  C   UNL     1       2.368   0.567  28.438  0.00  0.00    +0.032 C 
ATOM     51  C   UNL     1       2.699   1.024  27.015  0.00  0.00    +0.014 C 
ATOM     52  C   UNL     1       3.390   1.148  29.420  0.00  0.00    +0.014 C 
ENDBRANCH  48  50
ENDBRANCH  38  45
BRANCH  44  53
ATOM     53  O   UNL     1       1.783  -9.679  25.055  0.00  0.00    -0.495 OA
ATOM     54  C   UNL     1       0.562 -10.271  24.630  0.00  0.00    +0.277 C 
ENDBRANCH  44  53
ENDBRANCH  33  40
ENDBRANCH   1  33
TORSDOF 8
ENDMDL
MODEL 2
REMARK VINA RESULT:      -6.6      2.530      9.903
REMARK  Name = 
REMARK  13 active torsions:
REMARK  status: ('A' for Active; 'I' for Inactive)
REMARK    1  A    between atoms: C_1  and  C_2
REMARK    2  A    between atoms: C_3  and  O_51
REMARK    3  A    between atoms: C_9  and  C_43
REMARK    4  A    between atoms: C_11  and  O_12
REMARK    5  A    between atoms: O_12  and  C_13
REMARK    6  A    between atoms: N_20  and  C_42
REMARK    7  A    between atoms: C_29  and  C_33
REMARK    8  A    between atoms: N_35  and  S_36
REMARK    9  A    between atoms: S_36  and  C_39
REMARK   10  A    between atoms: C_45  and  C_48
REMARK   11  A    between atoms: C_48  and  C_49
REMARK   12  A    between atoms: C_48  and  C_50
REMARK   13  A    between atoms: O_51  and  C_52
REMARK                            x       y       z     vdW  Elec       q    Type
REMARK                         _______ _______ _______ _____ _____    ______ ____
ROOT
ATOM      1  C   UNL     1       4.602   2.171  25.754  0.00  0.00    +0.175 C 
ATOM      2  C   UNL     1       3.525   3.044  26.450  0.00  0.00    +0.058 C 
ATOM      3  C   UNL     1       3.450   2.361  27.851  0.00  0.00    +0.091 C 
ATOM      4  C   UNL     1       4.733   2.794  28.621  0.00  0.00    +0.219 C 
ATOM      5  N   UNL     1       5.650   1.828  29.045  0.00  0.00    -0.304 N 
ATOM      6  C   UNL     1       5.889   1.909  30.477  0.00  0.00    +0.132 C 
ATOM      7  C   UNL     1       6.933   1.758  28.314  0.00  0.00    +0.107 C 
ATOM      8  C   UNL     1       7.568   0.366  28.360  0.00  0.00    +0.019 C 
ATOM      9  C   UNL     1       8.252  -0.024  27.033  0.00  0.00    +0.006 C 
ATOM     10  C   UNL     1       7.982  -1.476  26.627  0.00  0.00    +0.027 C 
ATOM     11  C   UNL     1       6.562  -1.763  26.159  0.00  0.00    -0.031 C 
ATOM     12  C   UNL     1       5.694  -2.421  26.947  0.00  0.00    -0.025 C 
ATOM     13  C   UNL     1       4.382  -3.027  26.667  0.00  0.00    +0.046 C 
ATOM     14  C   UNL     1       2.926  -2.634  26.992  0.00  0.00    +0.119 C 
ATOM     15  N   UNL     1       2.573  -1.246  27.110  0.00  0.00    -0.301 N 
ATOM     16  H   UNL     1       2.216  -0.872  26.234  0.00  0.00    +0.150 HD
ATOM     17  C   UNL     1       2.994  -0.315  28.055  0.00  0.00    +0.218 C 
ATOM     18  O   UNL     1       3.180  -0.505  29.242  0.00  0.00    -0.275 OA
ATOM     19  C   UNL     1       3.721  -3.403  27.993  0.00  0.00    +0.046 C 
ATOM     20  O   UNL     1       4.929   3.991  28.855  0.00  0.00    -0.275 OA
ATOM     21  C   UNL     1       3.201   0.974  27.307  0.00  0.00    +0.090 C 
ATOM     22  C   UNL     1       4.303   0.780  26.270  0.00  0.00    +0.058 C 
ENDROOT
BRANCH  14  23
ATOM     23  C   UNL     1       1.858  -3.417  26.255  0.00  0.00    +0.256 C 
ATOM     24  N   UNL     1       2.307  -4.558  25.612  0.00  0.00    -0.188 N 
ATOM     25  H   UNL     1       3.263  -4.884  25.729  0.00  0.00    +0.176 HD
ATOM     26  O   UNL     1       0.684  -3.037  26.271  0.00  0.00    -0.272 OA
BRANCH  24  27
ATOM     27  S   UNL     1       1.374  -5.522  24.642  0.00  0.00    +0.048 S 
ATOM     28  O   UNL     1       0.800  -4.681  23.616  0.00  0.00    -0.155 OA
ATOM     29  O   UNL     1       0.531  -6.269  25.549  0.00  0.00    -0.155 OA
BRANCH  27  30
ATOM     30  C   UNL     1       2.481  -6.691  23.801  0.00  0.00    +0.151 C 
ATOM     31  C   UNL     1       3.909  -6.717  24.271  0.00  0.00    +0.030 C 
ATOM     32  C   UNL     1       3.559  -6.018  22.985  0.00  0.00    +0.030 C 
ENDBRANCH  27  30
ENDBRANCH  24  27
ENDBRANCH  14  23
BRANCH   1  33
ATOM     33  O   UNL     1       4.703   2.086  24.335  0.00  0.00    -0.488 OA
BRANCH  33  40
ATOM     34  C   UNL     1      10.501   4.011  23.567  0.00  0.00    +0.050 C 
ATOM     35  C   UNL     1       9.017   4.235  23.733  0.00  0.00    +0.017 A 
ATOM     36  C   UNL     1       8.181   3.109  23.658  0.00  0.00    +0.082 A 
ATOM     37  N   UNL     1       8.738   1.897  23.402  0.00  0.00    -0.244 NA
ATOM     38  C   UNL     1       7.944   0.814  23.378  0.00  0.00    +0.100 A 
ATOM     39  C   UNL     1       6.600   0.898  23.625  0.00  0.00    +0.076 A 
ATOM     40  C   UNL     1       6.014   2.110  23.913  0.00  0.00    +0.132 A 
ATOM     41  C   UNL     1       6.795   3.277  23.888  0.00  0.00    +0.043 A 
ATOM     42  C   UNL     1       6.272   4.575  24.084  0.00  0.00    +0.017 A 
ATOM     43  C   UNL     1       7.118   5.688  24.125  0.00  0.00    +0.047 A 
ATOM     44  C   UNL     1       8.495   5.521  23.987  0.00  0.00    +0.125 A 
BRANCH  38  45
ATOM     45  C   UNL     1       8.471  -0.546  23.214  0.00  0.00    +0.127 A 
ATOM     46  S   UNL     1      10.079  -0.987  23.585  0.00  0.00    -0.074 S 
ATOM     47  C   UNL     1       9.662  -2.642  23.361  0.00  0.00    +0.070 A 
ATOM     48  C   UNL     1       8.335  -2.764  22.985  0.00  0.00    +0.052 A 
ATOM     49  N   UNL     1       7.683  -1.557  22.883  0.00  0.00    -0.242 NA
BRANCH  48  50
ATOM     50  C   UNL     1       7.568  -4.024  22.691  0.00  0.00    +0.032 C 
ATOM     51  C   UNL     1       6.308  -3.724  21.873  0.00  0.00    +0.014 C 
ATOM     52  C   UNL     1       7.188  -4.786  23.965  0.00  0.00    +0.014 C 
ENDBRANCH  48  50
ENDBRANCH  38  45
BRANCH  44  53
ATOM     53  O   UNL     1       9.415   6.532  24.073  0.00  0.00    -0.495 OA
ATOM     54  C   UNL     1       9.709   7.070  25.356  0.00  0.00    +0.277 C 
ENDBRANCH  44  53
ENDBRANCH  33  40
ENDBRANCH   1  33
TORSDOF 8
ENDMDL
MODEL 3
REMARK VINA RESULT:      -6.3      2.887      9.535
REMARK  Name = 
REMARK  13 active torsions:
REMARK  status: ('A' for Active; 'I' for Inactive)
REMARK    1  A    between atoms: C_1  and  C_2
REMARK    2  A    between atoms: C_3  and  O_51
REMARK    3  A    between atoms: C_9  and  C_43
REMARK    4  A    between atoms: C_11  and  O_12
REMARK    5  A    between atoms: O_12  and  C_13
REMARK    6  A    between atoms: N_20  and  C_42
REMARK    7  A    between atoms: C_29  and  C_33
REMARK    8  A    between atoms: N_35  and  S_36
REMARK    9  A    between atoms: S_36  and  C_39
REMARK   10  A    between atoms: C_45  and  C_48
REMARK   11  A    between atoms: C_48  and  C_49
REMARK   12  A    between atoms: C_48  and  C_50
REMARK   13  A    between atoms: O_51  and  C_52
REMARK                            x       y       z     vdW  Elec       q    Type
REMARK                         _______ _______ _______ _____ _____    ______ ____
ROOT
ATOM      1  C   UNL     1       3.798   2.853  25.060  0.00  0.00    +0.175 C 
ATOM      2  C   UNL     1       2.331   3.272  24.780  0.00  0.00    +0.058 C 
ATOM      3  C   UNL     1       1.752   3.310  26.228  0.00  0.00    +0.091 C 
ATOM      4  C   UNL     1       2.314   4.602  26.893  0.00  0.00    +0.219 C 
ATOM      5  N   UNL     1       3.115   4.507  28.034  0.00  0.00    -0.304 N 
ATOM      6  C   UNL     1       2.578   5.293  29.134  0.00  0.00    +0.132 C 
ATOM      7  C   UNL     1       4.557   4.783  27.862  0.00  0.00    +0.107 C 
ATOM      8  C   UNL     1       5.428   4.066  28.896  0.00  0.00    +0.019 C 
ATOM      9  C   UNL     1       6.756   3.550  28.307  0.00  0.00    +0.006 C 
ATOM     10  C   UNL     1       7.121   2.145  28.794  0.00  0.00    +0.027 C 
ATOM     11  C   UNL     1       6.257   1.023  28.235  0.00  0.00    -0.031 C 
ATOM     12  C   UNL     1       5.323   0.425  28.994  0.00  0.00    -0.025 C 
ATOM     13  C   UNL     1       4.540  -0.806  28.797  0.00  0.00    +0.046 C 
ATOM     14  C   UNL     1       3.071  -1.095  28.422  0.00  0.00    +0.119 C 
ATOM     15  N   UNL     1       2.354  -0.171  27.590  0.00  0.00    -0.301 N 
ATOM     16  H   UNL     1       2.396  -0.435  26.608  0.00  0.00    +0.150 HD
ATOM     17  C   UNL     1       1.983   1.143  27.860  0.00  0.00    +0.218 C 
ATOM     18  O   UNL     1       1.596   1.594  28.921  0.00  0.00    -0.275 OA
ATOM     19  C   UNL     1       3.433  -0.859  29.850  0.00  0.00    +0.046 C 
ATOM     20  O   UNL     1       2.042   5.705  26.408  0.00  0.00    -0.275 OA
ATOM     21  C   UNL     1       2.185   1.906  26.578  0.00  0.00    +0.090 C 
ATOM     22  C   UNL     1       3.664   1.870  26.202  0.00  0.00    +0.058 C 
ENDROOT
BRANCH  14  23
ATOM     23  C   UNL     1       2.764  -2.532  28.049  0.00  0.00    +0.256 C 
ATOM     24  N   UNL     1       3.671  -3.119  27.183  0.00  0.00    -0.188 N 
ATOM     25  H   UNL     1       4.528  -2.640  26.917  0.00  0.00    +0.176 HD
ATOM     26  O   UNL     1       1.777  -3.101  28.522  0.00  0.00    -0.272 OA
BRANCH  24  27
ATOM     27  S   UNL     1       3.507  -4.631  26.528  0.00  0.00    +0.048 S 
ATOM     28  O   UNL     1       2.299  -4.631  25.734  0.00  0.00    -0.155 OA
ATOM     29  O   UNL     1       3.667  -5.544  27.638  0.00  0.00    -0.155 OA
BRANCH  27  30
ATOM     30  C   UNL     1       4.889  -4.885  25.378  0.00  0.00    +0.151 C 
ATOM     31  C   UNL     1       4.548  -4.906  23.915  0.00  0.00    +0.030 C 
ATOM     32  C   UNL     1       4.820  -6.198  24.636  0.00  0.00    +0.030 C 
ENDBRANCH  27  30
ENDBRANCH  24  27
ENDBRANCH  14  23
BRANCH   1  33
ATOM     33  O   UNL     1       4.611   2.239  24.063  0.00  0.00    -0.488 OA
BRANCH  33  40
ATOM     34  C   UNL     1      10.343   0.134  24.863  0.00  0.00    +0.050 C 
ATOM     35  C   UNL     1       8.844  -0.032  24.784  0.00  0.00    +0.017 A 
ATOM     36  C   UNL     1       8.065   1.136  24.739  0.00  0.00    +0.082 A 
ATOM     37  N   UNL     1       8.688   2.340  24.809  0.00  0.00    -0.244 NA
ATOM     38  C   UNL     1       7.947   3.457  24.717  0.00  0.00    +0.100 A 
ATOM     39  C   UNL     1       6.591   3.410  24.535  0.00  0.00    +0.076 A 
ATOM     40  C   UNL     1       5.937   2.203  24.435  0.00  0.00    +0.132 A 
ATOM     41  C   UNL     1       6.664   1.011  24.587  0.00  0.00    +0.043 A 
ATOM     42  C   UNL     1       6.074  -0.273  24.586  0.00  0.00    +0.017 A 
ATOM     43  C   UNL     1       6.864  -1.424  24.663  0.00  0.00    +0.047 A 
ATOM     44  C   UNL     1       8.252  -1.312  24.725  0.00  0.00    +0.125 A 
BRANCH  38  45
ATOM     45  C   UNL     1       8.543   4.798  24.677  0.00  0.00    +0.127 A 
ATOM     46  S   UNL     1       7.689   6.223  25.073  0.00  0.00    -0.074 S 
ATOM     47  C   UNL     1       9.165   7.108  25.009  0.00  0.00    +0.070 A 
ATOM     48  C   UNL     1      10.216   6.278  24.658  0.00  0.00    +0.052 A 
ATOM     49  N   UNL     1       9.835   4.973  24.448  0.00  0.00    -0.242 NA
BRANCH  48  50
ATOM     50  C   UNL     1      11.666   6.640  24.489  0.00  0.00    +0.032 C 
ATOM     51  C   UNL     1      12.440   5.513  23.800  0.00  0.00    +0.014 C 
ATOM     52  C   UNL     1      12.338   6.989  25.822  0.00  0.00    +0.014 C 
ENDBRANCH  48  50
ENDBRANCH  38  45
BRANCH  44  53
ATOM     53  O   UNL     1       9.120  -2.371  24.740  0.00  0.00    -0.495 OA
ATOM     54  C   UNL     1       8.623  -3.657  24.393  0.00  0.00    +0.277 C 
ENDBRANCH  44  53
ENDBRANCH  33  40
ENDBRANCH   1  33
TORSDOF 8
ENDMDL
MODEL 4
REMARK VINA RESULT:      -6.1      1.430      2.089
REMARK  Name = 
REMARK  13 active torsions:
REMARK  status: ('A' for Active; 'I' for Inactive)
REMARK    1  A    between atoms: C_1  and  C_2
REMARK    2  A    between atoms: C_3  and  O_51
REMARK    3  A    between atoms: C_9  and  C_43
REMARK    4  A    between atoms: C_11  and  O_12
REMARK    5  A    between atoms: O_12  and  C_13
REMARK    6  A    between atoms: N_20  and  C_42
REMARK    7  A    between atoms: C_29  and  C_33
REMARK    8  A    between atoms: N_35  and  S_36
REMARK    9  A    between atoms: S_36  and  C_39
REMARK   10  A    between atoms: C_45  and  C_48
REMARK   11  A    between atoms: C_48  and  C_49
REMARK   12  A    between atoms: C_48  and  C_50
REMARK   13  A    between atoms: O_51  and  C_52
REMARK                            x       y       z     vdW  Elec       q    Type
REMARK                         _______ _______ _______ _____ _____    ______ ____
ROOT
ATOM      1  C   UNL     1       4.844  -4.086  23.218  0.00  0.00    +0.175 C 
ATOM      2  C   UNL     1       5.694  -4.377  21.954  0.00  0.00    +0.058 C 
ATOM      3  C   UNL     1       7.121  -4.011  22.465  0.00  0.00    +0.091 C 
ATOM      4  C   UNL     1       7.565  -5.173  23.402  0.00  0.00    +0.219 C 
ATOM      5  N   UNL     1       7.847  -4.916  24.747  0.00  0.00    -0.304 N 
ATOM      6  C   UNL     1       9.185  -5.357  25.107  0.00  0.00    +0.132 C 
ATOM      7  C   UNL     1       6.863  -5.397  25.739  0.00  0.00    +0.107 C 
ATOM      8  C   UNL     1       6.866  -4.572  27.028  0.00  0.00    +0.019 C 
ATOM      9  C   UNL     1       5.454  -4.370  27.614  0.00  0.00    +0.006 C 
ATOM     10  C   UNL     1       5.216  -2.945  28.121  0.00  0.00    +0.027 C 
ATOM     11  C   UNL     1       5.086  -1.885  27.036  0.00  0.00    -0.031 C 
ATOM     12  C   UNL     1       6.085  -1.020  26.790  0.00  0.00    -0.025 C 
ATOM     13  C   UNL     1       6.137   0.217  25.995  0.00  0.00    +0.046 C 
ATOM     14  C   UNL     1       6.740   0.589  24.624  0.00  0.00    +0.119 C 
ATOM     15  N   UNL     1       6.836  -0.409  23.595  0.00  0.00    -0.301 N 
ATOM     16  H   UNL     1       6.033  -0.384  22.970  0.00  0.00    +0.150 HD
ATOM     17  C   UNL     1       7.601  -1.571  23.573  0.00  0.00    +0.218 C 
ATOM     18  O   UNL     1       8.730  -1.715  24.002  0.00  0.00    -0.275 OA
ATOM     19  C   UNL     1       7.596   0.645  25.845  0.00  0.00    +0.046 C 
ATOM     20  O   UNL     1       7.669  -6.317  22.947  0.00  0.00    -0.275 OA
ATOM     21  C   UNL     1       6.740  -2.627  22.935  0.00  0.00    +0.090 C 
ATOM     22  C   UNL     1       5.505  -2.857  23.802  0.00  0.00    +0.058 C 
ENDROOT
BRANCH  14  23
ATOM     23  C   UNL     1       6.306   1.927  24.061  0.00  0.00    +0.256 C 
ATOM     24  N   UNL     1       4.940   2.157  24.083  0.00  0.00    -0.188 N 
ATOM     25  H   UNL     1       4.307   1.510  24.546  0.00  0.00    +0.176 HD
ATOM     26  O   UNL     1       7.145   2.728  23.642  0.00  0.00    -0.272 OA
BRANCH  24  27
ATOM     27  S   UNL     1       4.196   3.481  23.424  0.00  0.00    +0.048 S 
ATOM     28  O   UNL     1       4.448   3.457  22.001  0.00  0.00    -0.155 OA
ATOM     29  O   UNL     1       4.624   4.599  24.236  0.00  0.00    -0.155 OA
BRANCH  27  30
ATOM     30  C   UNL     1       2.406   3.272  23.643  0.00  0.00    +0.151 C 
ATOM     31  C   UNL     1       1.597   3.074  22.391  0.00  0.00    +0.030 C 
ATOM     32  C   UNL     1       1.593   4.413  23.078  0.00  0.00    +0.030 C 
ENDBRANCH  27  30
ENDBRANCH  24  27
ENDBRANCH  14  23
BRANCH   1  33
ATOM     33  O   UNL     1       3.445  -3.820  23.143  0.00  0.00    -0.488 OA
BRANCH  33  40
ATOM     34  C   UNL     1       1.397  -7.877  27.299  0.00  0.00    +0.050 C 
ATOM     35  C   UNL     1       1.842  -7.474  25.913  0.00  0.00    +0.017 A 
ATOM     36  C   UNL     1       2.014  -6.103  25.662  0.00  0.00    +0.082 A 
ATOM     37  N   UNL     1       1.736  -5.217  26.652  0.00  0.00    -0.244 NA
ATOM     38  C   UNL     1       1.948  -3.910  26.427  0.00  0.00    +0.100 A 
ATOM     39  C   UNL     1       2.453  -3.454  25.239  0.00  0.00    +0.076 A 
ATOM     40  C   UNL     1       2.768  -4.333  24.227  0.00  0.00    +0.132 A 
ATOM     41  C   UNL     1       2.506  -5.702  24.396  0.00  0.00    +0.043 A 
ATOM     42  C   UNL     1       2.713  -6.671  23.389  0.00  0.00    +0.017 A 
ATOM     43  C   UNL     1       2.506  -8.029  23.650  0.00  0.00    +0.047 A 
ATOM     44  C   UNL     1       2.106  -8.442  24.919  0.00  0.00    +0.125 A 
BRANCH  38  45
ATOM     45  C   UNL     1       1.776  -2.892  27.471  0.00  0.00    +0.127 A 
ATOM     46  S   UNL     1       1.834  -3.236  29.143  0.00  0.00    -0.074 S 
ATOM     47  C   UNL     1       1.821  -1.546  29.476  0.00  0.00    +0.070 A 
ATOM     48  C   UNL     1       1.740  -0.819  28.301  0.00  0.00    +0.052 A 
ATOM     49  N   UNL     1       1.689  -1.605  27.174  0.00  0.00    -0.242 NA
BRANCH  48  50
ATOM     50  C   UNL     1       1.703   0.677  28.138  0.00  0.00    +0.032 C 
ATOM     51  C   UNL     1       2.783   1.152  27.162  0.00  0.00    +0.014 C 
ATOM     52  C   UNL     1       1.853   1.412  29.474  0.00  0.00    +0.014 C 
ENDBRANCH  48  50
ENDBRANCH  38  45
BRANCH  44  53
ATOM     53  O   UNL     1       1.936  -9.746  25.298  0.00  0.00    -0.495 OA
ATOM     54  C   UNL     1       0.737 -10.409  24.919  0.00  0.00    +0.277 C 
ENDBRANCH  44  53
ENDBRANCH  33  40
ENDBRANCH   1  33
TORSDOF 8
ENDMDL
MODEL 5
REMARK VINA RESULT:      -5.8      3.266      4.583
REMARK  Name = 
REMARK  13 active torsions:
REMARK  status: ('A' for Active; 'I' for Inactive)
REMARK    1  A    between atoms: C_1  and  C_2
REMARK    2  A    between atoms: C_3  and  O_51
REMARK    3  A    between atoms: C_9  and  C_43
REMARK    4  A    between atoms: C_11  and  O_12
REMARK    5  A    between atoms: O_12  and  C_13
REMARK    6  A    between atoms: N_20  and  C_42
REMARK    7  A    between atoms: C_29  and  C_33
REMARK    8  A    between atoms: N_35  and  S_36
REMARK    9  A    between atoms: S_36  and  C_39
REMARK   10  A    between atoms: C_45  and  C_48
REMARK   11  A    between atoms: C_48  and  C_49
REMARK   12  A    between atoms: C_48  and  C_50
REMARK   13  A    between atoms: O_51  and  C_52
REMARK                            x       y       z     vdW  Elec       q    Type
REMARK                         _______ _______ _______ _____ _____    ______ ____
ROOT
ATOM      1  C   UNL     1       6.087  -1.847  23.935  0.00  0.00    +0.175 C 
ATOM      2  C   UNL     1       7.018  -2.061  22.713  0.00  0.00    +0.058 C 
ATOM      3  C   UNL     1       7.941  -0.807  22.820  0.00  0.00    +0.091 C 
ATOM      4  C   UNL     1       8.922  -1.082  23.998  0.00  0.00    +0.219 C 
ATOM      5  N   UNL     1       8.928  -0.236  25.112  0.00  0.00    -0.304 N 
ATOM      6  C   UNL     1      10.252   0.310  25.362  0.00  0.00    +0.132 C 
ATOM      7  C   UNL     1       8.348  -0.773  26.361  0.00  0.00    +0.107 C 
ATOM      8  C   UNL     1       7.803   0.321  27.282  0.00  0.00    +0.019 C 
ATOM      9  C   UNL     1       6.503  -0.095  28.001  0.00  0.00    +0.006 C 
ATOM     10  C   UNL     1       5.458   1.023  28.039  0.00  0.00    +0.027 C 
ATOM     11  C   UNL     1       4.801   1.340  26.704  0.00  0.00    -0.031 C 
ATOM     12  C   UNL     1       5.128   2.448  26.016  0.00  0.00    -0.025 C 
ATOM     13  C   UNL     1       4.500   3.106  24.859  0.00  0.00    +0.046 C 
ATOM     14  C   UNL     1       4.854   3.210  23.361  0.00  0.00    +0.119 C 
ATOM     15  N   UNL     1       5.565   2.139  22.721  0.00  0.00    -0.301 N 
ATOM     16  H   UNL     1       4.933   1.482  22.271  0.00  0.00    +0.150 HD
ATOM     17  C   UNL     1       6.861   1.688  22.954  0.00  0.00    +0.218 C 
ATOM     18  O   UNL     1       7.840   2.365  23.206  0.00  0.00    -0.275 OA
ATOM     19  C   UNL     1       5.450   4.178  24.327  0.00  0.00    +0.046 C 
ATOM     20  O   UNL     1       9.692  -2.045  23.938  0.00  0.00    -0.275 OA
ATOM     21  C   UNL     1       6.804   0.187  22.861  0.00  0.00    +0.090 C 
ATOM     22  C   UNL     1       5.884  -0.348  23.955  0.00  0.00    +0.058 C 
ENDROOT
BRANCH  14  23
ATOM     23  C   UNL     1       3.759   3.760  22.469  0.00  0.00    +0.256 C 
ATOM     24  N   UNL     1       2.865   2.816  21.989  0.00  0.00    -0.188 N 
ATOM     25  H   UNL     1       2.897   1.853  22.312  0.00  0.00    +0.176 HD
ATOM     26  O   UNL     1       3.697   4.969  22.231  0.00  0.00    -0.272 OA
BRANCH  24  27
ATOM     27  S   UNL     1       1.653   3.131  20.906  0.00  0.00    +0.048 S 
ATOM     28  O   UNL     1       0.697   3.993  21.562  0.00  0.00    -0.155 OA
ATOM     29  O   UNL     1       1.260   1.838  20.392  0.00  0.00    -0.155 OA
BRANCH  27  30
ATOM     30  C   UNL     1       2.372   4.091  19.541  0.00  0.00    +0.151 C 
ATOM     31  C   UNL     1       1.675   5.375  19.187  0.00  0.00    +0.030 C 
ATOM     32  C   UNL     1       1.484   4.159  18.322  0.00  0.00    +0.030 C 
ENDBRANCH  27  30
ENDBRANCH  24  27
ENDBRANCH  14  23
BRANCH   1  33
ATOM     33  O   UNL     1       4.799  -2.452  24.017  0.00  0.00    -0.488 OA
BRANCH  33  40
ATOM     34  C   UNL     1       5.228  -4.623  29.764  0.00  0.00    +0.050 C 
ATOM     35  C   UNL     1       5.507  -4.670  28.280  0.00  0.00    +0.017 A 
ATOM     36  C   UNL     1       4.804  -3.771  27.461  0.00  0.00    +0.082 A 
ATOM     37  N   UNL     1       3.890  -2.944  28.032  0.00  0.00    -0.244 NA
ATOM     38  C   UNL     1       3.254  -2.052  27.256  0.00  0.00    +0.100 A 
ATOM     39  C   UNL     1       3.516  -1.942  25.917  0.00  0.00    +0.076 A 
ATOM     40  C   UNL     1       4.456  -2.750  25.318  0.00  0.00    +0.132 A 
ATOM     41  C   UNL     1       5.101  -3.739  26.078  0.00  0.00    +0.043 A 
ATOM     42  C   UNL     1       6.015  -4.671  25.539  0.00  0.00    +0.017 A 
ATOM     43  C   UNL     1       6.683  -5.579  26.367  0.00  0.00    +0.047 A 
ATOM     44  C   UNL     1       6.461  -5.560  27.742  0.00  0.00    +0.125 A 
BRANCH  38  45
ATOM     45  C   UNL     1       2.330  -1.049  27.802  0.00  0.00    +0.127 A 
ATOM     46  S   UNL     1       1.779  -1.055  29.418  0.00  0.00    -0.074 S 
ATOM     47  C   UNL     1       1.073   0.496  29.167  0.00  0.00    +0.070 A 
ATOM     48  C   UNL     1       1.267   0.914  27.862  0.00  0.00    +0.052 A 
ATOM     49  N   UNL     1       1.962   0.008  27.095  0.00  0.00    -0.242 NA
BRANCH  48  50
ATOM     50  C   UNL     1       0.816   2.200  27.225  0.00  0.00    +0.032 C 
ATOM     51  C   UNL     1       0.904   2.120  25.698  0.00  0.00    +0.014 C 
ATOM     52  C   UNL     1       1.613   3.409  27.726  0.00  0.00    +0.014 C 
ENDBRANCH  48  50
ENDBRANCH  38  45
BRANCH  44  53
ATOM     53  O   UNL     1       7.106  -6.360  28.647  0.00  0.00    -0.495 OA
ATOM     54  C   UNL     1       6.374  -7.412  29.263  0.00  0.00    +0.277 C 
ENDBRANCH  44  53
ENDBRANCH  33  40
ENDBRANCH   1  33
TORSDOF 8
ENDMDL
MODEL 6
REMARK VINA RESULT:      -5.2      2.832      6.722
REMARK  Name = 
REMARK  13 active torsions:
REMARK  status: ('A' for Active; 'I' for Inactive)
REMARK    1  A    between atoms: C_1  and  C_2
REMARK    2  A    between atoms: C_3  and  O_51
REMARK    3  A    between atoms: C_9  and  C_43
REMARK    4  A    between atoms: C_11  and  O_12
REMARK    5  A    between atoms: O_12  and  C_13
REMARK    6  A    between atoms: N_20  and  C_42
REMARK    7  A    between atoms: C_29  and  C_33
REMARK    8  A    between atoms: N_35  and  S_36
REMARK    9  A    between atoms: S_36  and  C_39
REMARK   10  A    between atoms: C_45  and  C_48
REMARK   11  A    between atoms: C_48  and  C_49
REMARK   12  A    between atoms: C_48  and  C_50
REMARK   13  A    between atoms: O_51  and  C_52
REMARK                            x       y       z     vdW  Elec       q    Type
REMARK                         _______ _______ _______ _____ _____    ______ ____
ROOT
ATOM      1  C   UNL     1       3.785  -2.612  27.319  0.00  0.00    +0.175 C 
ATOM      2  C   UNL     1       2.735  -2.134  26.282  0.00  0.00    +0.058 C 
ATOM      3  C   UNL     1       2.819  -3.279  25.225  0.00  0.00    +0.091 C 
ATOM      4  C   UNL     1       2.090  -4.507  25.848  0.00  0.00    +0.219 C 
ATOM      5  N   UNL     1       2.792  -5.695  26.070  0.00  0.00    -0.304 N 
ATOM      6  C   UNL     1       2.154  -6.825  25.415  0.00  0.00    +0.132 C 
ATOM      7  C   UNL     1       3.112  -6.029  27.475  0.00  0.00    +0.107 C 
ATOM      8  C   UNL     1       4.360  -6.905  27.608  0.00  0.00    +0.019 C 
ATOM      9  C   UNL     1       5.220  -6.539  28.835  0.00  0.00    +0.006 C 
ATOM     10  C   UNL     1       6.721  -6.535  28.532  0.00  0.00    +0.027 C 
ATOM     11  C   UNL     1       7.201  -5.386  27.657  0.00  0.00    -0.031 C 
ATOM     12  C   UNL     1       7.521  -5.584  26.367  0.00  0.00    -0.025 C 
ATOM     13  C   UNL     1       8.219  -4.736  25.388  0.00  0.00    +0.046 C 
ATOM     14  C   UNL     1       7.764  -3.904  24.170  0.00  0.00    +0.119 C 
ATOM     15  N   UNL     1       6.450  -3.326  24.154  0.00  0.00    -0.301 N 
ATOM     16  H   UNL     1       6.455  -2.367  24.492  0.00  0.00    +0.150 HD
ATOM     17  C   UNL     1       5.214  -3.966  24.128  0.00  0.00    +0.218 C 
ATOM     18  O   UNL     1       4.921  -4.975  23.515  0.00  0.00    -0.275 OA
ATOM     19  C   UNL     1       8.064  -5.356  24.000  0.00  0.00    +0.046 C 
ATOM     20  O   UNL     1       0.893  -4.422  26.138  0.00  0.00    -0.275 OA
ATOM     21  C   UNL     1       4.314  -3.172  25.036  0.00  0.00    +0.090 C 
ATOM     22  C   UNL     1       4.871  -3.216  26.456  0.00  0.00    +0.058 C 
ENDROOT
BRANCH  14  23
ATOM     23  C   UNL     1       8.798  -2.948  23.610  0.00  0.00    +0.256 C 
ATOM     24  N   UNL     1       8.319  -2.052  22.668  0.00  0.00    -0.188 N 
ATOM     25  H   UNL     1       7.326  -1.988  22.464  0.00  0.00    +0.176 HD
ATOM     26  O   UNL     1       9.965  -2.989  24.009  0.00  0.00    -0.272 OA
BRANCH  24  27
ATOM     27  S   UNL     1       9.259  -0.986  21.819  0.00  0.00    +0.048 S 
ATOM     28  O   UNL     1       8.942  -1.147  20.418  0.00  0.00    -0.155 OA
ATOM     29  O   UNL     1      10.604  -1.195  22.306  0.00  0.00    -0.155 OA
BRANCH  27  30
ATOM     30  C   UNL     1       8.741   0.692  22.283  0.00  0.00    +0.151 C 
ATOM     31  C   UNL     1       8.415   1.628  21.153  0.00  0.00    +0.030 C 
ATOM     32  C   UNL     1       9.728   1.760  21.876  0.00  0.00    +0.030 C 
ENDBRANCH  27  30
ENDBRANCH  24  27
ENDBRANCH  14  23
BRANCH   1  33
ATOM     33  O   UNL     1       4.414  -1.711  28.226  0.00  0.00    -0.488 OA
BRANCH  33  40
ATOM     34  C   UNL     1       7.113   2.669  24.842  0.00  0.00    +0.050 C 
ATOM     35  C   UNL     1       7.131   1.444  25.724  0.00  0.00    +0.017 A 
ATOM     36  C   UNL     1       5.930   1.083  26.356  0.00  0.00    +0.082 A 
ATOM     37  N   UNL     1       4.837   1.868  26.178  0.00  0.00    -0.244 NA
ATOM     38  C   UNL     1       3.676   1.497  26.742  0.00  0.00    +0.100 A 
ATOM     39  C   UNL     1       3.564   0.344  27.472  0.00  0.00    +0.076 A 
ATOM     40  C   UNL     1       4.651  -0.483  27.647  0.00  0.00    +0.132 A 
ATOM     41  C   UNL     1       5.898  -0.104  27.126  0.00  0.00    +0.043 A 
ATOM     42  C   UNL     1       7.088  -0.839  27.324  0.00  0.00    +0.017 A 
ATOM     43  C   UNL     1       8.282  -0.447  26.711  0.00  0.00    +0.047 A 
ATOM     44  C   UNL     1       8.303   0.672  25.881  0.00  0.00    +0.125 A 
BRANCH  38  45
ATOM     45  C   UNL     1       2.421   2.225  26.517  0.00  0.00    +0.127 A 
ATOM     46  S   UNL     1       1.404   2.765  27.779  0.00  0.00    -0.074 S 
ATOM     47  C   UNL     1       0.474   3.648  26.629  0.00  0.00    +0.070 A 
ATOM     48  C   UNL     1       0.968   3.457  25.351  0.00  0.00    +0.052 A 
ATOM     49  N   UNL     1       2.061   2.622  25.307  0.00  0.00    -0.242 NA
BRANCH  48  50
ATOM     50  C   UNL     1       0.456   4.041  24.062  0.00  0.00    +0.032 C 
ATOM     51  C   UNL     1       0.776   3.126  22.877  0.00  0.00    +0.014 C 
ATOM     52  C   UNL     1       1.012   5.444  23.798  0.00  0.00    +0.014 C 
ENDBRANCH  48  50
ENDBRANCH  38  45
BRANCH  44  53
ATOM     53  O   UNL     1       9.400   1.105  25.184  0.00  0.00    -0.495 OA
ATOM     54  C   UNL     1      10.590   0.330  25.246  0.00  0.00    +0.277 C 
ENDBRANCH  44  53
ENDBRANCH  33  40
ENDBRANCH   1  33
TORSDOF 8
ENDMDL
MODEL 7
REMARK VINA RESULT:      -5.2      3.442     10.588
REMARK  Name = 
REMARK  13 active torsions:
REMARK  status: ('A' for Active; 'I' for Inactive)
REMARK    1  A    between atoms: C_1  and  C_2
REMARK    2  A    between atoms: C_3  and  O_51
REMARK    3  A    between atoms: C_9  and  C_43
REMARK    4  A    between atoms: C_11  and  O_12
REMARK    5  A    between atoms: O_12  and  C_13
REMARK    6  A    between atoms: N_20  and  C_42
REMARK    7  A    between atoms: C_29  and  C_33
REMARK    8  A    between atoms: N_35  and  S_36
REMARK    9  A    between atoms: S_36  and  C_39
REMARK   10  A    between atoms: C_45  and  C_48
REMARK   11  A    between atoms: C_48  and  C_49
REMARK   12  A    between atoms: C_48  and  C_50
REMARK   13  A    between atoms: O_51  and  C_52
REMARK                            x       y       z     vdW  Elec       q    Type
REMARK                         _______ _______ _______ _____ _____    ______ ____
ROOT
ATOM      1  C   UNL     1       5.328   3.238  26.155  0.00  0.00    +0.175 C 
ATOM      2  C   UNL     1       4.878   2.832  24.728  0.00  0.00    +0.058 C 
ATOM      3  C   UNL     1       3.330   2.989  24.849  0.00  0.00    +0.091 C 
ATOM      4  C   UNL     1       3.040   4.519  24.833  0.00  0.00    +0.219 C 
ATOM      5  N   UNL     1       2.422   5.123  25.932  0.00  0.00    -0.304 N 
ATOM      6  C   UNL     1       1.215   5.834  25.543  0.00  0.00    +0.132 C 
ATOM      7  C   UNL     1       3.270   5.980  26.787  0.00  0.00    +0.107 C 
ATOM      8  C   UNL     1       2.767   6.063  28.230  0.00  0.00    +0.019 C 
ATOM      9  C   UNL     1       3.913   6.087  29.263  0.00  0.00    +0.006 C 
ATOM     10  C   UNL     1       3.634   5.206  30.484  0.00  0.00    +0.027 C 
ATOM     11  C   UNL     1       3.689   3.707  30.226  0.00  0.00    -0.031 C 
ATOM     12  C   UNL     1       2.564   2.975  30.153  0.00  0.00    -0.025 C 
ATOM     13  C   UNL     1       2.339   1.520  30.156  0.00  0.00    +0.046 C 
ATOM     14  C   UNL     1       1.957   0.490  29.072  0.00  0.00    +0.119 C 
ATOM     15  N   UNL     1       2.361   0.708  27.711  0.00  0.00    -0.301 N 
ATOM     16  H   UNL     1       3.237   0.238  27.497  0.00  0.00    +0.150 HD
ATOM     17  C   UNL     1       1.970   1.716  26.834  0.00  0.00    +0.218 C 
ATOM     18  O   UNL     1       0.862   2.204  26.723  0.00  0.00    -0.275 OA
ATOM     19  C   UNL     1       0.883   1.247  29.779  0.00  0.00    +0.046 C 
ATOM     20  O   UNL     1       3.356   5.189  23.844  0.00  0.00    -0.275 OA
ATOM     21  C   UNL     1       3.205   2.103  26.066  0.00  0.00    +0.090 C 
ATOM     22  C   UNL     1       4.244   2.658  27.037  0.00  0.00    +0.058 C 
ENDROOT
BRANCH  14  23
ATOM     23  C   UNL     1       2.111  -0.964  29.471  0.00  0.00    +0.256 C 
ATOM     24  N   UNL     1       3.184  -1.620  28.891  0.00  0.00    -0.188 N 
ATOM     25  H   UNL     1       3.866  -1.116  28.330  0.00  0.00    +0.176 HD
ATOM     26  O   UNL     1       1.325  -1.476  30.271  0.00  0.00    -0.272 OA
BRANCH  24  27
ATOM     27  S   UNL     1       3.506  -3.235  29.064  0.00  0.00    +0.048 S 
ATOM     28  O   UNL     1       2.355  -3.962  28.581  0.00  0.00    -0.155 OA
ATOM     29  O   UNL     1       3.963  -3.386  30.428  0.00  0.00    -0.155 OA
BRANCH  27  30
ATOM     30  C   UNL     1       4.885  -3.642  27.955  0.00  0.00    +0.151 C 
ATOM     31  C   UNL     1       4.566  -4.539  26.791  0.00  0.00    +0.030 C 
ATOM     32  C   UNL     1       5.277  -5.100  27.992  0.00  0.00    +0.030 C 
ENDBRANCH  27  30
ENDBRANCH  24  27
ENDBRANCH  14  23
BRANCH   1  33
ATOM     33  O   UNL     1       6.582   2.828  26.697  0.00  0.00    -0.488 OA
BRANCH  33  40
ATOM     34  C   UNL     1      11.512   3.531  23.075  0.00  0.00    +0.050 C 
ATOM     35  C   UNL     1      10.353   4.052  23.890  0.00  0.00    +0.017 A 
ATOM     36  C   UNL     1       9.413   3.115  24.350  0.00  0.00    +0.082 A 
ATOM     37  N   UNL     1       9.568   1.811  24.007  0.00  0.00    -0.244 NA
ATOM     38  C   UNL     1       8.696   0.909  24.487  0.00  0.00    +0.100 A 
ATOM     39  C   UNL     1       7.674   1.267  25.324  0.00  0.00    +0.076 A 
ATOM     40  C   UNL     1       7.509   2.579  25.709  0.00  0.00    +0.132 A 
ATOM     41  C   UNL     1       8.360   3.564  25.183  0.00  0.00    +0.043 A 
ATOM     42  C   UNL     1       8.219   4.944  25.447  0.00  0.00    +0.017 A 
ATOM     43  C   UNL     1       9.149   5.866  24.954  0.00  0.00    +0.047 A 
ATOM     44  C   UNL     1      10.239   5.423  24.207  0.00  0.00    +0.125 A 
BRANCH  38  45
ATOM     45  C   UNL     1       8.846  -0.533  24.256  0.00  0.00    +0.127 A 
ATOM     46  S   UNL     1      10.070  -1.210  23.274  0.00  0.00    -0.074 S 
ATOM     47  C   UNL     1       9.622  -2.779  23.824  0.00  0.00    +0.070 A 
ATOM     48  C   UNL     1       8.549  -2.703  24.695  0.00  0.00    +0.052 A 
ATOM     49  N   UNL     1       8.107  -1.418  24.907  0.00  0.00    -0.242 NA
BRANCH  48  50
ATOM     50  C   UNL     1       7.848  -3.831  25.403  0.00  0.00    +0.032 C 
ATOM     51  C   UNL     1       8.673  -4.336  26.589  0.00  0.00    +0.014 C 
ATOM     52  C   UNL     1       7.526  -4.997  24.463  0.00  0.00    +0.014 C 
ENDBRANCH  48  50
ENDBRANCH  38  45
BRANCH  44  53
ATOM     53  O   UNL     1      11.237   6.230  23.731  0.00  0.00    -0.495 OA
ATOM     54  C   UNL     1      12.223   6.694  24.644  0.00  0.00    +0.277 C 
ENDBRANCH  44  53
ENDBRANCH  33  40
ENDBRANCH   1  33
TORSDOF 8
ENDMDL
MODEL 8
REMARK VINA RESULT:      -5.0      2.579      6.711
REMARK  Name = 
REMARK  13 active torsions:
REMARK  status: ('A' for Active; 'I' for Inactive)
REMARK    1  A    between atoms: C_1  and  C_2
REMARK    2  A    between atoms: C_3  and  O_51
REMARK    3  A    between atoms: C_9  and  C_43
REMARK    4  A    between atoms: C_11  and  O_12
REMARK    5  A    between atoms: O_12  and  C_13
REMARK    6  A    between atoms: N_20  and  C_42
REMARK    7  A    between atoms: C_29  and  C_33
REMARK    8  A    between atoms: N_35  and  S_36
REMARK    9  A    between atoms: S_36  and  C_39
REMARK   10  A    between atoms: C_45  and  C_48
REMARK   11  A    between atoms: C_48  and  C_49
REMARK   12  A    between atoms: C_48  and  C_50
REMARK   13  A    between atoms: O_51  and  C_52
REMARK                            x       y       z     vdW  Elec       q    Type
REMARK                         _______ _______ _______ _____ _____    ______ ____
ROOT
ATOM      1  C   UNL     1       4.821  -2.810  27.322  0.00  0.00    +0.175 C 
ATOM      2  C   UNL     1       3.329  -2.836  26.898  0.00  0.00    +0.058 C 
ATOM      3  C   UNL     1       3.428  -3.538  25.508  0.00  0.00    +0.091 C 
ATOM      4  C   UNL     1       3.686  -5.047  25.795  0.00  0.00    +0.219 C 
ATOM      5  N   UNL     1       4.857  -5.654  25.333  0.00  0.00    -0.304 N 
ATOM      6  C   UNL     1       4.568  -6.817  24.509  0.00  0.00    +0.132 C 
ATOM      7  C   UNL     1       5.883  -5.983  26.344  0.00  0.00    +0.107 C 
ATOM      8  C   UNL     1       7.299  -6.017  25.766  0.00  0.00    +0.019 C 
ATOM      9  C   UNL     1       8.355  -5.445  26.734  0.00  0.00    +0.006 C 
ATOM     10  C   UNL     1       9.382  -4.549  26.036  0.00  0.00    +0.027 C 
ATOM     11  C   UNL     1       8.853  -3.200  25.570  0.00  0.00    -0.031 C 
ATOM     12  C   UNL     1       8.610  -2.963  24.269  0.00  0.00    -0.025 C 
ATOM     13  C   UNL     1       8.337  -1.718  23.534  0.00  0.00    +0.046 C 
ATOM     14  C   UNL     1       7.069  -1.093  22.914  0.00  0.00    +0.119 C 
ATOM     15  N   UNL     1       5.785  -1.359  23.501  0.00  0.00    -0.301 N 
ATOM     16  H   UNL     1       5.516  -0.636  24.165  0.00  0.00    +0.150 HD
ATOM     17  C   UNL     1       5.098  -2.566  23.591  0.00  0.00    +0.218 C 
ATOM     18  O   UNL     1       5.043  -3.445  22.751  0.00  0.00    -0.275 OA
ATOM     19  C   UNL     1       7.868  -2.073  22.123  0.00  0.00    +0.046 C 
ATOM     20  O   UNL     1       2.849  -5.699  26.428  0.00  0.00    -0.275 OA
ATOM     21  C   UNL     1       4.455  -2.581  24.952  0.00  0.00    +0.090 C 
ATOM     22  C   UNL     1       5.545  -2.544  26.020  0.00  0.00    +0.058 C 
ENDROOT
BRANCH  14  23
ATOM     23  C   UNL     1       7.196   0.356  22.491  0.00  0.00    +0.256 C 
ATOM     24  N   UNL     1       6.165   1.182  22.909  0.00  0.00    -0.188 N 
ATOM     25  H   UNL     1       5.446   0.842  23.542  0.00  0.00    +0.176 HD
ATOM     26  O   UNL     1       8.174   0.731  21.839  0.00  0.00    -0.272 OA
BRANCH  24  27
ATOM     27  S   UNL     1       6.001   2.773  22.484  0.00  0.00    +0.048 S 
ATOM     28  O   UNL     1       4.749   2.907  21.776  0.00  0.00    -0.155 OA
ATOM     29  O   UNL     1       7.254   3.128  21.853  0.00  0.00    -0.155 OA
BRANCH  27  30
ATOM     30  C   UNL     1       5.844   3.737  24.015  0.00  0.00    +0.151 C 
ATOM     31  C   UNL     1       4.564   4.506  24.193  0.00  0.00    +0.030 C 
ATOM     32  C   UNL     1       5.819   5.230  23.786  0.00  0.00    +0.030 C 
ENDBRANCH  27  30
ENDBRANCH  24  27
ENDBRANCH  14  23
BRANCH   1  33
ATOM     33  O   UNL     1       5.317  -1.880  28.282  0.00  0.00    -0.488 OA
BRANCH  33  40
ATOM     34  C   UNL     1       4.315   4.163  27.649  0.00  0.00    +0.050 C 
ATOM     35  C   UNL     1       3.901   2.759  28.019  0.00  0.00    +0.017 A 
ATOM     36  C   UNL     1       4.764   1.712  27.656  0.00  0.00    +0.082 A 
ATOM     37  N   UNL     1       5.893   2.008  26.962  0.00  0.00    -0.244 NA
ATOM     38  C   UNL     1       6.742   1.013  26.657  0.00  0.00    +0.100 A 
ATOM     39  C   UNL     1       6.509  -0.280  27.043  0.00  0.00    +0.076 A 
ATOM     40  C   UNL     1       5.385  -0.603  27.769  0.00  0.00    +0.132 A 
ATOM     41  C   UNL     1       4.439   0.395  28.058  0.00  0.00    +0.043 A 
ATOM     42  C   UNL     1       3.217   0.148  28.721  0.00  0.00    +0.017 A 
ATOM     43  C   UNL     1       2.355   1.201  29.047  0.00  0.00    +0.047 A 
ATOM     44  C   UNL     1       2.707   2.512  28.732  0.00  0.00    +0.125 A 
BRANCH  38  45
ATOM     45  C   UNL     1       8.035   1.252  26.004  0.00  0.00    +0.127 A 
ATOM     46  S   UNL     1       9.307   0.112  25.981  0.00  0.00    -0.074 S 
ATOM     47  C   UNL     1      10.157   1.105  24.860  0.00  0.00    +0.070 A 
ATOM     48  C   UNL     1       9.443   2.260  24.592  0.00  0.00    +0.052 A 
ATOM     49  N   UNL     1       8.250   2.335  25.274  0.00  0.00    -0.242 NA
BRANCH  48  50
ATOM     50  C   UNL     1       9.819   3.390  23.674  0.00  0.00    +0.032 C 
ATOM     51  C   UNL     1      11.318   3.371  23.361  0.00  0.00    +0.014 C 
ATOM     52  C   UNL     1       9.427   4.758  24.243  0.00  0.00    +0.014 C 
ENDBRANCH  48  50
ENDBRANCH  38  45
BRANCH  44  53
ATOM     53  O   UNL     1       1.970   3.617  29.061  0.00  0.00    -0.495 OA
ATOM     54  C   UNL     1       0.552   3.533  28.980  0.00  0.00    +0.277 C 
ENDBRANCH  44  53
ENDBRANCH  33  40
ENDBRANCH   1  33
TORSDOF 8
ENDMDL
MODEL 9
REMARK VINA RESULT:      -4.7      3.057      5.098
REMARK  Name = 
REMARK  13 active torsions:
REMARK  status: ('A' for Active; 'I' for Inactive)
REMARK    1  A    between atoms: C_1  and  C_2
REMARK    2  A    between atoms: C_3  and  O_51
REMARK    3  A    between atoms: C_9  and  C_43
REMARK    4  A    between atoms: C_11  and  O_12
REMARK    5  A    between atoms: O_12  and  C_13
REMARK    6  A    between atoms: N_20  and  C_42
REMARK    7  A    between atoms: C_29  and  C_33
REMARK    8  A    between atoms: N_35  and  S_36
REMARK    9  A    between atoms: S_36  and  C_39
REMARK   10  A    between atoms: C_45  and  C_48
REMARK   11  A    between atoms: C_48  and  C_49
REMARK   12  A    between atoms: C_48  and  C_50
REMARK   13  A    between atoms: O_51  and  C_52
REMARK                            x       y       z     vdW  Elec       q    Type
REMARK                         _______ _______ _______ _____ _____    ______ ____
ROOT
ATOM      1  C   UNL     1       7.089  -1.452  22.401  0.00  0.00    +0.175 C 
ATOM      2  C   UNL     1       8.061  -1.033  21.266  0.00  0.00    +0.058 C 
ATOM      3  C   UNL     1       8.679   0.266  21.869  0.00  0.00    +0.091 C 
ATOM      4  C   UNL     1       9.681  -0.193  22.969  0.00  0.00    +0.219 C 
ATOM      5  N   UNL     1       9.484   0.197  24.297  0.00  0.00    -0.304 N 
ATOM      6  C   UNL     1      10.650   0.881  24.833  0.00  0.00    +0.132 C 
ATOM      7  C   UNL     1       9.023  -0.846  25.238  0.00  0.00    +0.107 C 
ATOM      8  C   UNL     1       8.236  -0.276  26.420  0.00  0.00    +0.019 C 
ATOM      9  C   UNL     1       7.053  -1.172  26.839  0.00  0.00    +0.006 C 
ATOM     10  C   UNL     1       5.784  -0.375  27.157  0.00  0.00    +0.027 C 
ATOM     11  C   UNL     1       5.089   0.243  25.952  0.00  0.00    -0.031 C 
ATOM     12  C   UNL     1       5.171   1.562  25.708  0.00  0.00    -0.025 C 
ATOM     13  C   UNL     1       4.427   2.437  24.787  0.00  0.00    +0.046 C 
ATOM     14  C   UNL     1       4.767   3.124  23.448  0.00  0.00    +0.119 C 
ATOM     15  N   UNL     1       5.708   2.510  22.552  0.00  0.00    -0.301 N 
ATOM     16  H   UNL     1       5.243   1.935  21.853  0.00  0.00    +0.150 HD
ATOM     17  C   UNL     1       7.068   2.283  22.735  0.00  0.00    +0.218 C 
ATOM     18  O   UNL     1       7.868   3.015  23.285  0.00  0.00    -0.275 OA
ATOM     19  C   UNL     1       5.120   3.797  24.731  0.00  0.00    +0.046 C 
ATOM     20  O   UNL     1      10.648  -0.896  22.659  0.00  0.00    -0.275 OA
ATOM     21  C   UNL     1       7.349   0.929  22.140  0.00  0.00    +0.090 C 
ATOM     22  C   UNL     1       6.557  -0.128  22.904  0.00  0.00    +0.058 C 
ENDROOT
BRANCH  14  23
ATOM     23  C   UNL     1       3.588   3.711  22.698  0.00  0.00    +0.256 C 
ATOM     24  N   UNL     1       2.793   2.788  22.039  0.00  0.00    -0.188 N 
ATOM     25  H   UNL     1       2.945   1.789  22.155  0.00  0.00    +0.176 HD
ATOM     26  O   UNL     1       3.382   4.927  22.717  0.00  0.00    -0.272 OA
BRANCH  24  27
ATOM     27  S   UNL     1       1.519   3.173  21.054  0.00  0.00    +0.048 S 
ATOM     28  O   UNL     1       0.619   4.008  21.816  0.00  0.00    -0.155 OA
ATOM     29  O   UNL     1       1.075   1.913  20.500  0.00  0.00    -0.155 OA
BRANCH  27  30
ATOM     30  C   UNL     1       2.163   4.196  19.699  0.00  0.00    +0.151 C 
ATOM     31  C   UNL     1       1.603   5.586  19.585  0.00  0.00    +0.030 C 
ATOM     32  C   UNL     1       1.131   4.513  18.642  0.00  0.00    +0.030 C 
ENDBRANCH  27  30
ENDBRANCH  24  27
ENDBRANCH  14  23
BRANCH   1  33
ATOM     33  O   UNL     1       5.968  -2.298  22.161  0.00  0.00    -0.488 OA
BRANCH  33  40
ATOM     34  C   UNL     1       6.781  -5.585  27.305  0.00  0.00    +0.050 C 
ATOM     35  C   UNL     1       7.215  -5.061  25.957  0.00  0.00    +0.017 A 
ATOM     36  C   UNL     1       6.250  -4.401  25.178  0.00  0.00    +0.082 A 
ATOM     37  N   UNL     1       4.982  -4.305  25.652  0.00  0.00    -0.244 NA
ATOM     38  C   UNL     1       4.072  -3.631  24.930  0.00  0.00    +0.100 A 
ATOM     39  C   UNL     1       4.394  -3.026  23.745  0.00  0.00    +0.076 A 
ATOM     40  C   UNL     1       5.679  -3.087  23.253  0.00  0.00    +0.132 A 
ATOM     41  C   UNL     1       6.648  -3.832  23.945  0.00  0.00    +0.043 A 
ATOM     42  C   UNL     1       7.968  -4.025  23.480  0.00  0.00    +0.017 A 
ATOM     43  C   UNL     1       8.906  -4.712  24.257  0.00  0.00    +0.047 A 
ATOM     44  C   UNL     1       8.547  -5.201  25.511  0.00  0.00    +0.125 A 
BRANCH  38  45
ATOM     45  C   UNL     1       2.707  -3.386  25.412  0.00  0.00    +0.127 A 
ATOM     46  S   UNL     1       1.416  -4.482  25.190  0.00  0.00    -0.074 S 
ATOM     47  C   UNL     1       0.443  -3.526  26.242  0.00  0.00    +0.070 A 
ATOM     48  C   UNL     1       1.143  -2.412  26.675  0.00  0.00    +0.052 A 
ATOM     49  N   UNL     1       2.420  -2.339  26.170  0.00  0.00    -0.242 NA
BRANCH  48  50
ATOM     50  C   UNL     1       0.671  -1.323  27.600  0.00  0.00    +0.032 C 
ATOM     51  C   UNL     1       1.519  -0.059  27.441  0.00  0.00    +0.014 C 
ATOM     52  C   UNL     1       0.670  -1.765  29.067  0.00  0.00    +0.014 C 
ENDBRANCH  48  50
ENDBRANCH  38  45
BRANCH  44  53
ATOM     53  O   UNL     1       9.402  -5.831  26.376  0.00  0.00    -0.495 OA
ATOM     54  C   UNL     1      10.680  -5.252  26.606  0.00  0.00    +0.277 C 
ENDBRANCH  44  53
ENDBRANCH  33  40
ENDBRANCH   1  33
TORSDOF 8
ENDMDL
