MODEL 1
REMARK VINA RESULT:      -7.3      0.000      0.000
REMARK  Name = 
REMARK  10 active torsions:
REMARK  status: ('A' for Active; 'I' for Inactive)
REMARK    1  A    between atoms: C_1  and  O_2
REMARK    2  A    between atoms: O_2  and  C_3
REMARK    3  A    between atoms: C_4  and  N_13
REMARK    4  A    between atoms: C_6  and  C_9
REMARK    5  A    between atoms: C_14  and  C_39
REMARK    6  A    between atoms: N_28  and  C_31
REMARK    7  A    between atoms: C_33  and  O_37
REMARK    8  A    between atoms: O_37  and  C_38
REMARK    9  A    between atoms: C_39  and  C_40
REMARK   10  A    between atoms: C_40  and  O_42
REMARK                            x       y       z     vdW  Elec       q    Type
REMARK                         _______ _______ _______ _____ _____    ______ ____
ROOT
ATOM      1  N   UNL     1       5.559  -3.424  25.977  0.00  0.00    -0.181 N 
ATOM      2  C   UNL     1       5.309  -2.044  26.086  0.00  0.00    +0.380 C 
ATOM      3  N   UNL     1       6.211  -1.187  25.475  0.00  0.00    -0.221 N 
ATOM      4  C   UNL     1       5.725   0.064  24.846  0.00  0.00    +0.206 C 
ATOM      5  C   UNL     1       6.729   0.557  23.774  0.00  0.00    +0.140 C 
ATOM      6  N   UNL     1       8.068   0.741  24.376  0.00  0.00    -0.324 N 
ATOM      7  C   UNL     1       8.573  -0.476  25.042  0.00  0.00    +0.140 C 
ATOM      8  C   UNL     1       7.544  -0.989  26.085  0.00  0.00    +0.206 C 
ATOM      9  N   UNL     1       4.282  -1.534  26.717  0.00  0.00    -0.073 NA
ATOM     10  C   UNL     1       3.345  -2.377  27.328  0.00  0.00    +0.183 A 
ATOM     11  C   UNL     1       2.193  -1.854  27.926  0.00  0.00    +0.166 A 
ATOM     12  F   UNL     1       1.964  -0.531  27.918  0.00  0.00    -0.202 F 
ATOM     13  C   UNL     1       1.259  -2.676  28.564  0.00  0.00    +0.042 A 
ATOM     14  C   UNL     1       1.448  -4.054  28.584  0.00  0.00    +0.003 A 
ATOM     15  C   UNL     1       2.586  -4.595  27.993  0.00  0.00    +0.010 A 
ATOM     16  C   UNL     1       3.551  -3.758  27.390  0.00  0.00    +0.033 A 
ATOM     17  C   UNL     1       4.866  -4.328  26.914  0.00  0.00    +0.189 C 
ENDROOT
BRANCH   1  23
ATOM     18  C   UNL     1       7.741  -4.465  25.341  0.00  0.00    +0.156 A 
ATOM     19  C   UNL     1       8.383  -5.446  24.571  0.00  0.00    +0.049 A 
ATOM     20  C   UNL     1       7.854  -5.828  23.343  0.00  0.00    +0.016 A 
ATOM     21  C   UNL     1       6.750  -5.143  22.844  0.00  0.00    +0.058 A 
ATOM     22  C   UNL     1       6.066  -4.255  23.694  0.00  0.00    +0.056 A 
ATOM     23  C   UNL     1       6.442  -4.025  25.028  0.00  0.00    +0.137 A 
BRANCH  21  24
ATOM     24  C   UNL     1       6.293  -5.332  21.420  0.00  0.00    +0.418 C 
ATOM     25  F   UNL     1       6.068  -4.160  20.771  0.00  0.00    -0.166 F 
ATOM     26  F   UNL     1       5.134  -6.042  21.341  0.00  0.00    -0.166 F 
ATOM     27  F   UNL     1       7.193  -6.017  20.656  0.00  0.00    -0.166 F 
ENDBRANCH  21  24
BRANCH  18  29
ATOM     28  C   UNL     1       9.826  -4.517  26.389  0.00  0.00    +0.277 C 
ATOM     29  O   UNL     1       8.520  -3.930  26.341  0.00  0.00    -0.492 OA
ENDBRANCH  18  29
ENDBRANCH   1  23
BRANCH   6  30
ATOM     30  C   UNL     1       8.850   1.853  24.137  0.00  0.00    +0.033 A 
ATOM     31  C   UNL     1      10.125   1.766  23.560  0.00  0.00    +0.023 A 
ATOM     32  C   UNL     1      10.926   2.900  23.365  0.00  0.00    +0.005 A 
ATOM     33  C   UNL     1      10.457   4.154  23.735  0.00  0.00    +0.046 A 
ATOM     34  C   UNL     1       9.194   4.285  24.304  0.00  0.00    +0.122 A 
ATOM     35  C   UNL     1       8.415   3.140  24.508  0.00  0.00    +0.068 A 
BRANCH  34  36
ATOM     36  O   UNL     1       8.839   5.568  24.629  0.00  0.00    -0.495 OA
ATOM     37  C   UNL     1       9.237   6.594  23.735  0.00  0.00    +0.277 C 
ENDBRANCH  34  36
ENDBRANCH   6  30
BRANCH  17  38
ATOM     38  C   UNL     1       5.692  -4.756  28.142  0.00  0.00    +0.164 C 
BRANCH  38  39
ATOM     39  C   UNL     1       6.160  -6.180  28.141  0.00  0.00    +0.308 C 
ATOM     40  O   UNL     1       5.399  -7.140  28.157  0.00  0.00    -0.251 OA
BRANCH  39  41
ATOM     41  O   UNL     1       7.499  -6.322  28.235  0.00  0.00    -0.481 OA
ATOM     42  H   UNL     1       7.960  -5.608  28.713  0.00  0.00    +0.295 HD
ENDBRANCH  39  41
ENDBRANCH  38  39
ENDBRANCH  17  38
TORSDOF 8
ENDMDL
MODEL 2
REMARK VINA RESULT:      -7.1      2.304      3.023
REMARK  Name = 
REMARK  10 active torsions:
REMARK  status: ('A' for Active; 'I' for Inactive)
REMARK    1  A    between atoms: C_1  and  O_2
REMARK    2  A    between atoms: O_2  and  C_3
REMARK    3  A    between atoms: C_4  and  N_13
REMARK    4  A    between atoms: C_6  and  C_9
REMARK    5  A    between atoms: C_14  and  C_39
REMARK    6  A    between atoms: N_28  and  C_31
REMARK    7  A    between atoms: C_33  and  O_37
REMARK    8  A    between atoms: O_37  and  C_38
REMARK    9  A    between atoms: C_39  and  C_40
REMARK   10  A    between atoms: C_40  and  O_42
REMARK                            x       y       z     vdW  Elec       q    Type
REMARK                         _______ _______ _______ _____ _____    ______ ____
ROOT
ATOM      1  N   UNL     1       5.480  -2.414  25.892  0.00  0.00    -0.181 N 
ATOM      2  C   UNL     1       5.132  -1.158  26.422  0.00  0.00    +0.380 C 
ATOM      3  N   UNL     1       5.860  -0.062  25.986  0.00  0.00    -0.221 N 
ATOM      4  C   UNL     1       5.182   1.244  25.804  0.00  0.00    +0.206 C 
ATOM      5  C   UNL     1       5.977   2.132  24.813  0.00  0.00    +0.140 C 
ATOM      6  N   UNL     1       7.367   2.306  25.286  0.00  0.00    -0.324 N 
ATOM      7  C   UNL     1       8.065   1.025  25.511  0.00  0.00    +0.140 C 
ATOM      8  C   UNL     1       7.245   0.123  26.472  0.00  0.00    +0.206 C 
ATOM      9  N   UNL     1       4.166  -0.971  27.286  0.00  0.00    -0.073 NA
ATOM     10  C   UNL     1       3.403  -2.058  27.731  0.00  0.00    +0.183 A 
ATOM     11  C   UNL     1       2.308  -1.865  28.581  0.00  0.00    +0.166 A 
ATOM     12  F   UNL     1       1.967  -0.629  28.981  0.00  0.00    -0.202 F 
ATOM     13  C   UNL     1       1.549  -2.939  29.056  0.00  0.00    +0.042 A 
ATOM     14  C   UNL     1       1.856  -4.236  28.657  0.00  0.00    +0.003 A 
ATOM     15  C   UNL     1       2.939  -4.449  27.809  0.00  0.00    +0.010 A 
ATOM     16  C   UNL     1       3.732  -3.366  27.367  0.00  0.00    +0.033 A 
ATOM     17  C   UNL     1       5.009  -3.618  26.601  0.00  0.00    +0.189 C 
ENDROOT
BRANCH   1  23
ATOM     18  C   UNL     1       5.722  -2.936  23.459  0.00  0.00    +0.156 A 
ATOM     19  C   UNL     1       6.420  -2.664  22.274  0.00  0.00    +0.049 A 
ATOM     20  C   UNL     1       7.762  -2.303  22.320  0.00  0.00    +0.016 A 
ATOM     21  C   UNL     1       8.423  -2.327  23.544  0.00  0.00    +0.058 A 
ATOM     22  C   UNL     1       7.665  -2.485  24.718  0.00  0.00    +0.056 A 
ATOM     23  C   UNL     1       6.266  -2.618  24.717  0.00  0.00    +0.137 A 
BRANCH  21  24
ATOM     24  C   UNL     1       9.924  -2.199  23.622  0.00  0.00    +0.418 C 
ATOM     25  F   UNL     1      10.534  -3.334  24.052  0.00  0.00    -0.166 F 
ATOM     26  F   UNL     1      10.313  -1.210  24.473  0.00  0.00    -0.166 F 
ATOM     27  F   UNL     1      10.498  -1.895  22.422  0.00  0.00    -0.166 F 
ENDBRANCH  21  24
BRANCH  18  29
ATOM     28  C   UNL     1       4.731  -5.001  23.011  0.00  0.00    +0.277 C 
ATOM     29  O   UNL     1       4.535  -3.607  23.277  0.00  0.00    -0.492 OA
ENDBRANCH  18  29
ENDBRANCH   1  23
BRANCH   6  30
ATOM     30  C   UNL     1       8.009   3.529  25.291  0.00  0.00    +0.033 A 
ATOM     31  C   UNL     1       7.669   4.554  26.185  0.00  0.00    +0.023 A 
ATOM     32  C   UNL     1       8.299   5.804  26.149  0.00  0.00    +0.005 A 
ATOM     33  C   UNL     1       9.300   6.052  25.217  0.00  0.00    +0.046 A 
ATOM     34  C   UNL     1       9.673   5.059  24.317  0.00  0.00    +0.122 A 
ATOM     35  C   UNL     1       9.021   3.821  24.356  0.00  0.00    +0.068 A 
BRANCH  34  36
ATOM     36  O   UNL     1      10.668   5.417  23.446  0.00  0.00    -0.495 OA
ATOM     37  C   UNL     1      11.845   5.976  24.004  0.00  0.00    +0.277 C 
ENDBRANCH  34  36
ENDBRANCH   6  30
BRANCH  17  38
ATOM     38  C   UNL     1       6.037  -4.262  27.552  0.00  0.00    +0.164 C 
BRANCH  38  39
ATOM     39  C   UNL     1       6.670  -5.528  27.058  0.00  0.00    +0.308 C 
ATOM     40  O   UNL     1       6.336  -6.089  26.021  0.00  0.00    -0.251 OA
BRANCH  39  41
ATOM     41  O   UNL     1       7.569  -6.065  27.908  0.00  0.00    -0.481 OA
ATOM     42  H   UNL     1       8.456  -5.661  27.885  0.00  0.00    +0.295 HD
ENDBRANCH  39  41
ENDBRANCH  38  39
ENDBRANCH  17  38
TORSDOF 8
ENDMDL
MODEL 3
REMARK VINA RESULT:      -6.8      2.816      3.968
REMARK  Name = 
REMARK  10 active torsions:
REMARK  status: ('A' for Active; 'I' for Inactive)
REMARK    1  A    between atoms: C_1  and  O_2
REMARK    2  A    between atoms: O_2  and  C_3
REMARK    3  A    between atoms: C_4  and  N_13
REMARK    4  A    between atoms: C_6  and  C_9
REMARK    5  A    between atoms: C_14  and  C_39
REMARK    6  A    between atoms: N_28  and  C_31
REMARK    7  A    between atoms: C_33  and  O_37
REMARK    8  A    between atoms: O_37  and  C_38
REMARK    9  A    between atoms: C_39  and  C_40
REMARK   10  A    between atoms: C_40  and  O_42
REMARK                            x       y       z     vdW  Elec       q    Type
REMARK                         _______ _______ _______ _____ _____    ______ ____
ROOT
ATOM      1  N   UNL     1       6.759  -3.148  25.625  0.00  0.00    -0.181 N 
ATOM      2  C   UNL     1       6.239  -2.290  26.611  0.00  0.00    +0.380 C 
ATOM      3  N   UNL     1       6.451  -0.930  26.444  0.00  0.00    -0.221 N 
ATOM      4  C   UNL     1       5.402   0.032  26.858  0.00  0.00    +0.206 C 
ATOM      5  C   UNL     1       5.566   1.372  26.096  0.00  0.00    +0.140 C 
ATOM      6  N   UNL     1       6.921   1.922  26.317  0.00  0.00    -0.324 N 
ATOM      7  C   UNL     1       7.995   0.978  25.947  0.00  0.00    +0.140 C 
ATOM      8  C   UNL     1       7.802  -0.376  26.681  0.00  0.00    +0.206 C 
ATOM      9  N   UNL     1       5.569  -2.700  27.659  0.00  0.00    -0.073 NA
ATOM     10  C   UNL     1       5.325  -4.066  27.845  0.00  0.00    +0.183 A 
ATOM     11  C   UNL     1       4.532  -4.515  28.907  0.00  0.00    +0.166 A 
ATOM     12  F   UNL     1       3.986  -3.639  29.765  0.00  0.00    -0.202 F 
ATOM     13  C   UNL     1       4.298  -5.876  29.124  0.00  0.00    +0.042 A 
ATOM     14  C   UNL     1       4.832  -6.820  28.252  0.00  0.00    +0.003 A 
ATOM     15  C   UNL     1       5.621  -6.394  27.188  0.00  0.00    +0.010 A 
ATOM     16  C   UNL     1       5.893  -5.021  26.997  0.00  0.00    +0.033 A 
ATOM     17  C   UNL     1       6.895  -4.579  25.956  0.00  0.00    +0.189 C 
ENDROOT
BRANCH   1  23
ATOM     18  C   UNL     1       6.354  -2.809  23.182  0.00  0.00    +0.156 A 
ATOM     19  C   UNL     1       6.588  -1.994  22.065  0.00  0.00    +0.049 A 
ATOM     20  C   UNL     1       7.776  -1.280  21.957  0.00  0.00    +0.016 A 
ATOM     21  C   UNL     1       8.768  -1.476  22.914  0.00  0.00    +0.058 A 
ATOM     22  C   UNL     1       8.450  -2.202  24.076  0.00  0.00    +0.056 A 
ATOM     23  C   UNL     1       7.176  -2.741  24.321  0.00  0.00    +0.137 A 
BRANCH  21  24
ATOM     24  C   UNL     1      10.161  -0.936  22.715  0.00  0.00    +0.418 C 
ATOM     25  F   UNL     1      10.244  -0.032  21.703  0.00  0.00    -0.166 F 
ATOM     26  F   UNL     1      11.058  -1.918  22.424  0.00  0.00    -0.166 F 
ATOM     27  F   UNL     1      10.655  -0.307  23.821  0.00  0.00    -0.166 F 
ENDBRANCH  21  24
BRANCH  18  29
ATOM     28  C   UNL     1       5.771  -4.923  22.383  0.00  0.00    +0.277 C 
ATOM     29  O   UNL     1       5.332  -3.715  23.017  0.00  0.00    -0.492 OA
ENDBRANCH  18  29
ENDBRANCH   1  23
BRANCH   6  30
ATOM     30  C   UNL     1       7.152   3.250  26.614  0.00  0.00    +0.033 A 
ATOM     31  C   UNL     1       6.607   3.873  27.746  0.00  0.00    +0.023 A 
ATOM     32  C   UNL     1       6.814   5.233  28.011  0.00  0.00    +0.005 A 
ATOM     33  C   UNL     1       7.587   6.001  27.149  0.00  0.00    +0.046 A 
ATOM     34  C   UNL     1       8.152   5.419  26.018  0.00  0.00    +0.122 A 
ATOM     35  C   UNL     1       7.921   4.063  25.759  0.00  0.00    +0.068 A 
BRANCH  34  36
ATOM     36  O   UNL     1       8.892   6.271  25.242  0.00  0.00    -0.495 OA
ATOM     37  C   UNL     1       9.730   5.686  24.259  0.00  0.00    +0.277 C 
ENDBRANCH  34  36
ENDBRANCH   6  30
BRANCH  17  38
ATOM     38  C   UNL     1       8.301  -5.016  26.406  0.00  0.00    +0.164 C 
BRANCH  38  39
ATOM     39  C   UNL     1       9.234  -5.425  25.306  0.00  0.00    +0.308 C 
ATOM     40  O   UNL     1       8.864  -5.667  24.163  0.00  0.00    -0.251 OA
BRANCH  39  41
ATOM     41  O   UNL     1      10.509  -5.614  25.704  0.00  0.00    -0.481 OA
ATOM     42  H   UNL     1      11.040  -6.202  25.136  0.00  0.00    +0.295 HD
ENDBRANCH  39  41
ENDBRANCH  38  39
ENDBRANCH  17  38
TORSDOF 8
ENDMDL
MODEL 4
REMARK VINA RESULT:      -6.7      3.662      5.103
REMARK  Name = 
REMARK  10 active torsions:
REMARK  status: ('A' for Active; 'I' for Inactive)
REMARK    1  A    between atoms: C_1  and  O_2
REMARK    2  A    between atoms: O_2  and  C_3
REMARK    3  A    between atoms: C_4  and  N_13
REMARK    4  A    between atoms: C_6  and  C_9
REMARK    5  A    between atoms: C_14  and  C_39
REMARK    6  A    between atoms: N_28  and  C_31
REMARK    7  A    between atoms: C_33  and  O_37
REMARK    8  A    between atoms: O_37  and  C_38
REMARK    9  A    between atoms: C_39  and  C_40
REMARK   10  A    between atoms: C_40  and  O_42
REMARK                            x       y       z     vdW  Elec       q    Type
REMARK                         _______ _______ _______ _____ _____    ______ ____
ROOT
ATOM      1  N   UNL     1       6.732  -2.394  25.646  0.00  0.00    -0.181 N 
ATOM      2  C   UNL     1       5.864  -1.903  26.639  0.00  0.00    +0.380 C 
ATOM      3  N   UNL     1       5.881  -0.537  26.877  0.00  0.00    -0.221 N 
ATOM      4  C   UNL     1       4.622   0.164  27.222  0.00  0.00    +0.206 C 
ATOM      5  C   UNL     1       4.735   1.674  26.888  0.00  0.00    +0.140 C 
ATOM      6  N   UNL     1       5.893   2.265  27.593  0.00  0.00    -0.324 N 
ATOM      7  C   UNL     1       7.163   1.572  27.302  0.00  0.00    +0.140 C 
ATOM      8  C   UNL     1       7.031   0.053  27.597  0.00  0.00    +0.206 C 
ATOM      9  N   UNL     1       5.046  -2.654  27.333  0.00  0.00    -0.073 NA
ATOM     10  C   UNL     1       4.994  -4.034  27.101  0.00  0.00    +0.183 A 
ATOM     11  C   UNL     1       4.062  -4.839  27.766  0.00  0.00    +0.166 A 
ATOM     12  F   UNL     1       3.196  -4.297  28.637  0.00  0.00    -0.202 F 
ATOM     13  C   UNL     1       4.012  -6.221  27.568  0.00  0.00    +0.042 A 
ATOM     14  C   UNL     1       4.881  -6.825  26.664  0.00  0.00    +0.003 A 
ATOM     15  C   UNL     1       5.813  -6.043  25.990  0.00  0.00    +0.010 A 
ATOM     16  C   UNL     1       5.893  -4.652  26.227  0.00  0.00    +0.033 A 
ATOM     17  C   UNL     1       7.021  -3.840  25.635  0.00  0.00    +0.189 C 
ENDROOT
BRANCH   1  23
ATOM     18  C   UNL     1       6.819  -1.363  23.371  0.00  0.00    +0.156 A 
ATOM     19  C   UNL     1       7.189  -0.242  22.614  0.00  0.00    +0.049 A 
ATOM     20  C   UNL     1       8.282   0.528  22.994  0.00  0.00    +0.016 A 
ATOM     21  C   UNL     1       9.064   0.105  24.065  0.00  0.00    +0.058 A 
ATOM     22  C   UNL     1       8.593  -0.949  24.869  0.00  0.00    +0.056 A 
ATOM     23  C   UNL     1       7.367  -1.597  24.645  0.00  0.00    +0.137 A 
BRANCH  21  24
ATOM     24  C   UNL     1      10.395   0.747  24.361  0.00  0.00    +0.418 C 
ATOM     25  F   UNL     1      10.337   2.104  24.399  0.00  0.00    -0.166 F 
ATOM     26  F   UNL     1      11.338   0.431  23.430  0.00  0.00    -0.166 F 
ATOM     27  F   UNL     1      10.922   0.361  25.559  0.00  0.00    -0.166 F 
ENDBRANCH  21  24
BRANCH  18  29
ATOM     28  C   UNL     1       6.667  -3.292  22.065  0.00  0.00    +0.277 C 
ATOM     29  O   UNL     1       5.968  -2.228  22.723  0.00  0.00    -0.492 OA
ENDBRANCH  18  29
ENDBRANCH   1  23
BRANCH   6  30
ATOM     30  C   UNL     1       5.826   3.471  28.262  0.00  0.00    +0.033 A 
ATOM     31  C   UNL     1       4.761   3.803  29.112  0.00  0.00    +0.023 A 
ATOM     32  C   UNL     1       4.685   5.049  29.749  0.00  0.00    +0.005 A 
ATOM     33  C   UNL     1       5.689   5.990  29.557  0.00  0.00    +0.046 A 
ATOM     34  C   UNL     1       6.767   5.698  28.728  0.00  0.00    +0.122 A 
ATOM     35  C   UNL     1       6.818   4.455  28.085  0.00  0.00    +0.068 A 
BRANCH  34  36
ATOM     36  O   UNL     1       7.694   6.701  28.614  0.00  0.00    -0.495 OA
ATOM     37  C   UNL     1       8.206   6.962  27.317  0.00  0.00    +0.277 C 
ENDBRANCH  34  36
ENDBRANCH   6  30
BRANCH  17  38
ATOM     38  C   UNL     1       8.337  -4.250  26.322  0.00  0.00    +0.164 C 
BRANCH  38  39
ATOM     39  C   UNL     1       9.421  -4.734  25.406  0.00  0.00    +0.308 C 
ATOM     40  O   UNL     1       9.874  -4.065  24.485  0.00  0.00    -0.251 OA
BRANCH  39  41
ATOM     41  O   UNL     1       9.785  -6.017  25.609  0.00  0.00    -0.481 OA
ATOM     42  H   UNL     1      10.213  -6.453  24.850  0.00  0.00    +0.295 HD
ENDBRANCH  39  41
ENDBRANCH  38  39
ENDBRANCH  17  38
TORSDOF 8
ENDMDL
MODEL 5
REMARK VINA RESULT:      -6.6      3.577      7.765
REMARK  Name = 
REMARK  10 active torsions:
REMARK  status: ('A' for Active; 'I' for Inactive)
REMARK    1  A    between atoms: C_1  and  O_2
REMARK    2  A    between atoms: O_2  and  C_3
REMARK    3  A    between atoms: C_4  and  N_13
REMARK    4  A    between atoms: C_6  and  C_9
REMARK    5  A    between atoms: C_14  and  C_39
REMARK    6  A    between atoms: N_28  and  C_31
REMARK    7  A    between atoms: C_33  and  O_37
REMARK    8  A    between atoms: O_37  and  C_38
REMARK    9  A    between atoms: C_39  and  C_40
REMARK   10  A    between atoms: C_40  and  O_42
REMARK                            x       y       z     vdW  Elec       q    Type
REMARK                         _______ _______ _______ _____ _____    ______ ____
ROOT
ATOM      1  N   UNL     1       6.862  -1.089  26.470  0.00  0.00    -0.181 N 
ATOM      2  C   UNL     1       5.634  -1.638  26.884  0.00  0.00    +0.380 C 
ATOM      3  N   UNL     1       5.204  -2.787  26.238  0.00  0.00    -0.221 N 
ATOM      4  C   UNL     1       4.478  -3.829  27.001  0.00  0.00    +0.206 C 
ATOM      5  C   UNL     1       4.597  -5.202  26.290  0.00  0.00    +0.140 C 
ATOM      6  N   UNL     1       4.096  -5.101  24.903  0.00  0.00    -0.324 N 
ATOM      7  C   UNL     1       4.772  -4.049  24.119  0.00  0.00    +0.140 C 
ATOM      8  C   UNL     1       4.686  -2.685  24.856  0.00  0.00    +0.206 C 
ATOM      9  N   UNL     1       4.892  -1.134  27.837  0.00  0.00    -0.073 NA
ATOM     10  C   UNL     1       5.311   0.015  28.519  0.00  0.00    +0.183 A 
ATOM     11  C   UNL     1       4.578   0.514  29.602  0.00  0.00    +0.166 A 
ATOM     12  F   UNL     1       3.460  -0.108  30.010  0.00  0.00    -0.202 F 
ATOM     13  C   UNL     1       4.966   1.674  30.279  0.00  0.00    +0.042 A 
ATOM     14  C   UNL     1       6.125   2.344  29.900  0.00  0.00    +0.003 A 
ATOM     15  C   UNL     1       6.870   1.863  28.828  0.00  0.00    +0.010 A 
ATOM     16  C   UNL     1       6.451   0.716  28.117  0.00  0.00    +0.033 A 
ATOM     17  C   UNL     1       7.157   0.306  26.846  0.00  0.00    +0.189 C 
ENDROOT
BRANCH   1  23
ATOM     18  C   UNL     1       8.206  -3.122  25.914  0.00  0.00    +0.156 A 
ATOM     19  C   UNL     1       8.788  -3.890  24.896  0.00  0.00    +0.049 A 
ATOM     20  C   UNL     1       9.252  -3.279  23.737  0.00  0.00    +0.016 A 
ATOM     21  C   UNL     1       9.233  -1.889  23.656  0.00  0.00    +0.058 A 
ATOM     22  C   UNL     1       8.534  -1.166  24.639  0.00  0.00    +0.056 A 
ATOM     23  C   UNL     1       7.850  -1.778  25.702  0.00  0.00    +0.137 A 
BRANCH  21  24
ATOM     24  C   UNL     1       9.953  -1.163  22.548  0.00  0.00    +0.418 C 
ATOM     25  F   UNL     1      10.273   0.118  22.869  0.00  0.00    -0.166 F 
ATOM     26  F   UNL     1       9.210  -1.097  21.408  0.00  0.00    -0.166 F 
ATOM     27  F   UNL     1      11.124  -1.763  22.186  0.00  0.00    -0.166 F 
ENDBRANCH  21  24
BRANCH  18  29
ATOM     28  C   UNL     1       8.034  -5.191  26.981  0.00  0.00    +0.277 C 
ATOM     29  O   UNL     1       8.109  -3.768  27.125  0.00  0.00    -0.492 OA
ENDBRANCH  18  29
ENDBRANCH   1  23
BRANCH   6  30
ATOM     30  C   UNL     1       3.256  -6.041  24.340  0.00  0.00    +0.033 A 
ATOM     31  C   UNL     1       2.486  -5.775  23.198  0.00  0.00    +0.023 A 
ATOM     32  C   UNL     1       1.605  -6.725  22.664  0.00  0.00    +0.005 A 
ATOM     33  C   UNL     1       1.484  -7.974  23.259  0.00  0.00    +0.046 A 
ATOM     34  C   UNL     1       2.236  -8.282  24.389  0.00  0.00    +0.122 A 
ATOM     35  C   UNL     1       3.099  -7.315  24.920  0.00  0.00    +0.068 A 
BRANCH  34  36
ATOM     36  O   UNL     1       2.034  -9.541  24.890  0.00  0.00    -0.495 OA
ATOM     37  C   UNL     1       0.693  -9.989  24.988  0.00  0.00    +0.277 C 
ENDBRANCH  34  36
ENDBRANCH   6  30
BRANCH  17  38
ATOM     38  C   UNL     1       6.860   1.354  25.756  0.00  0.00    +0.164 C 
BRANCH  38  39
ATOM     39  C   UNL     1       5.617   1.117  24.952  0.00  0.00    +0.308 C 
ATOM     40  O   UNL     1       4.487   1.306  25.386  0.00  0.00    -0.251 OA
BRANCH  39  41
ATOM     41  O   UNL     1       5.839   0.568  23.740  0.00  0.00    -0.481 OA
ATOM     42  H   UNL     1       5.048   0.223  23.287  0.00  0.00    +0.295 HD
ENDBRANCH  39  41
ENDBRANCH  38  39
ENDBRANCH  17  38
TORSDOF 8
ENDMDL
MODEL 6
REMARK VINA RESULT:      -6.6      2.018      2.586
REMARK  Name = 
REMARK  10 active torsions:
REMARK  status: ('A' for Active; 'I' for Inactive)
REMARK    1  A    between atoms: C_1  and  O_2
REMARK    2  A    between atoms: O_2  and  C_3
REMARK    3  A    between atoms: C_4  and  N_13
REMARK    4  A    between atoms: C_6  and  C_9
REMARK    5  A    between atoms: C_14  and  C_39
REMARK    6  A    between atoms: N_28  and  C_31
REMARK    7  A    between atoms: C_33  and  O_37
REMARK    8  A    between atoms: O_37  and  C_38
REMARK    9  A    between atoms: C_39  and  C_40
REMARK   10  A    between atoms: C_40  and  O_42
REMARK                            x       y       z     vdW  Elec       q    Type
REMARK                         _______ _______ _______ _____ _____    ______ ____
ROOT
ATOM      1  N   UNL     1       5.035  -3.575  27.013  0.00  0.00    -0.181 N 
ATOM      2  C   UNL     1       4.862  -2.180  27.043  0.00  0.00    +0.380 C 
ATOM      3  N   UNL     1       5.749  -1.415  26.301  0.00  0.00    -0.221 N 
ATOM      4  C   UNL     1       5.271  -0.185  25.626  0.00  0.00    +0.206 C 
ATOM      5  C   UNL     1       6.204   0.181  24.443  0.00  0.00    +0.140 C 
ATOM      6  N   UNL     1       7.596   0.332  24.920  0.00  0.00    -0.324 N 
ATOM      7  C   UNL     1       8.097  -0.862  25.629  0.00  0.00    +0.140 C 
ATOM      8  C   UNL     1       7.137  -1.248  26.786  0.00  0.00    +0.206 C 
ATOM      9  N   UNL     1       3.917  -1.574  27.717  0.00  0.00    -0.073 NA
ATOM     10  C   UNL     1       2.996  -2.322  28.460  0.00  0.00    +0.183 A 
ATOM     11  C   UNL     1       1.925  -1.700  29.111  0.00  0.00    +0.166 A 
ATOM     12  F   UNL     1       1.759  -0.370  29.026  0.00  0.00    -0.202 F 
ATOM     13  C   UNL     1       1.010  -2.426  29.879  0.00  0.00    +0.042 A 
ATOM     14  C   UNL     1       1.134  -3.808  29.983  0.00  0.00    +0.003 A 
ATOM     15  C   UNL     1       2.191  -4.447  29.341  0.00  0.00    +0.010 A 
ATOM     16  C   UNL     1       3.140  -3.705  28.604  0.00  0.00    +0.033 A 
ATOM     17  C   UNL     1       4.382  -4.376  28.065  0.00  0.00    +0.189 C 
ENDROOT
BRANCH   1  23
ATOM     18  C   UNL     1       5.269  -4.814  24.854  0.00  0.00    +0.156 A 
ATOM     19  C   UNL     1       6.078  -5.063  23.737  0.00  0.00    +0.049 A 
ATOM     20  C   UNL     1       7.463  -5.027  23.855  0.00  0.00    +0.016 A 
ATOM     21  C   UNL     1       8.027  -4.854  25.115  0.00  0.00    +0.058 A 
ATOM     22  C   UNL     1       7.189  -4.488  26.184  0.00  0.00    +0.056 A 
ATOM     23  C   UNL     1       5.806  -4.285  26.042  0.00  0.00    +0.137 A 
BRANCH  21  24
ATOM     24  C   UNL     1       9.502  -5.063  25.345  0.00  0.00    +0.418 C 
ATOM     25  F   UNL     1       9.877  -4.847  26.634  0.00  0.00    -0.166 F 
ATOM     26  F   UNL     1      10.265  -4.233  24.582  0.00  0.00    -0.166 F 
ATOM     27  F   UNL     1       9.918  -6.326  25.040  0.00  0.00    -0.166 F 
ENDBRANCH  21  24
BRANCH  18  29
ATOM     28  C   UNL     1       3.744  -6.555  25.160  0.00  0.00    +0.277 C 
ATOM     29  O   UNL     1       3.960  -5.213  24.706  0.00  0.00    -0.492 OA
ENDBRANCH  18  29
ENDBRANCH   1  23
BRANCH   6  30
ATOM     30  C   UNL     1       8.408   1.382  24.541  0.00  0.00    +0.033 A 
ATOM     31  C   UNL     1       9.744   1.200  24.157  0.00  0.00    +0.023 A 
ATOM     32  C   UNL     1      10.568   2.281  23.817  0.00  0.00    +0.005 A 
ATOM     33  C   UNL     1      10.064   3.575  23.841  0.00  0.00    +0.046 A 
ATOM     34  C   UNL     1       8.741   3.799  24.209  0.00  0.00    +0.122 A 
ATOM     35  C   UNL     1       7.936   2.710  24.563  0.00  0.00    +0.068 A 
BRANCH  34  36
ATOM     36  O   UNL     1       8.355   5.114  24.199  0.00  0.00    -0.495 OA
ATOM     37  C   UNL     1       9.329   6.069  23.811  0.00  0.00    +0.277 C 
ENDBRANCH  34  36
ENDBRANCH   6  30
BRANCH  17  38
ATOM     38  C   UNL     1       5.287  -4.763  29.250  0.00  0.00    +0.164 C 
BRANCH  38  39
ATOM     39  C   UNL     1       5.811  -6.168  29.230  0.00  0.00    +0.308 C 
ATOM     40  O   UNL     1       5.640  -6.938  28.293  0.00  0.00    -0.251 OA
BRANCH  39  41
ATOM     41  O   UNL     1       6.396  -6.555  30.383  0.00  0.00    -0.481 OA
ATOM     42  H   UNL     1       6.314  -5.927  31.123  0.00  0.00    +0.295 HD
ENDBRANCH  39  41
ENDBRANCH  38  39
ENDBRANCH  17  38
TORSDOF 8
ENDMDL
MODEL 7
REMARK VINA RESULT:      -6.6      3.335      4.365
REMARK  Name = 
REMARK  10 active torsions:
REMARK  status: ('A' for Active; 'I' for Inactive)
REMARK    1  A    between atoms: C_1  and  O_2
REMARK    2  A    between atoms: O_2  and  C_3
REMARK    3  A    between atoms: C_4  and  N_13
REMARK    4  A    between atoms: C_6  and  C_9
REMARK    5  A    between atoms: C_14  and  C_39
REMARK    6  A    between atoms: N_28  and  C_31
REMARK    7  A    between atoms: C_33  and  O_37
REMARK    8  A    between atoms: O_37  and  C_38
REMARK    9  A    between atoms: C_39  and  C_40
REMARK   10  A    between atoms: C_40  and  O_42
REMARK                            x       y       z     vdW  Elec       q    Type
REMARK                         _______ _______ _______ _____ _____    ______ ____
ROOT
ATOM      1  N   UNL     1       6.397  -2.966  24.338  0.00  0.00    -0.181 N 
ATOM      2  C   UNL     1       5.384  -2.273  25.025  0.00  0.00    +0.380 C 
ATOM      3  N   UNL     1       5.752  -1.125  25.709  0.00  0.00    -0.221 N 
ATOM      4  C   UNL     1       4.822   0.027  25.765  0.00  0.00    +0.206 C 
ATOM      5  C   UNL     1       5.599   1.338  26.046  0.00  0.00    +0.140 C 
ATOM      6  N   UNL     1       6.377   1.211  27.297  0.00  0.00    -0.324 N 
ATOM      7  C   UNL     1       7.293   0.053  27.294  0.00  0.00    +0.140 C 
ATOM      8  C   UNL     1       6.515  -1.251  26.971  0.00  0.00    +0.206 C 
ATOM      9  N   UNL     1       4.129  -2.644  25.047  0.00  0.00    -0.073 NA
ATOM     10  C   UNL     1       3.724  -3.790  24.350  0.00  0.00    +0.183 A 
ATOM     11  C   UNL     1       2.374  -4.151  24.285  0.00  0.00    +0.166 A 
ATOM     12  F   UNL     1       1.439  -3.397  24.886  0.00  0.00    -0.202 F 
ATOM     13  C   UNL     1       1.953  -5.304  23.617  0.00  0.00    +0.042 A 
ATOM     14  C   UNL     1       2.884  -6.108  22.966  0.00  0.00    +0.003 A 
ATOM     15  C   UNL     1       4.232  -5.766  23.017  0.00  0.00    +0.010 A 
ATOM     16  C   UNL     1       4.659  -4.625  23.732  0.00  0.00    +0.033 A 
ATOM     17  C   UNL     1       6.132  -4.360  23.938  0.00  0.00    +0.189 C 
ENDROOT
BRANCH   1  23
ATOM     18  C   UNL     1       8.893  -2.943  24.475  0.00  0.00    +0.156 A 
ATOM     19  C   UNL     1      10.095  -2.728  23.786  0.00  0.00    +0.049 A 
ATOM     20  C   UNL     1      10.153  -1.795  22.756  0.00  0.00    +0.016 A 
ATOM     21  C   UNL     1       9.036  -1.005  22.501  0.00  0.00    +0.058 A 
ATOM     22  C   UNL     1       7.820  -1.333  23.127  0.00  0.00    +0.056 A 
ATOM     23  C   UNL     1       7.675  -2.424  23.999  0.00  0.00    +0.137 A 
BRANCH  21  24
ATOM     24  C   UNL     1       9.119   0.188  21.582  0.00  0.00    +0.418 C 
ATOM     25  F   UNL     1       8.099   1.069  21.759  0.00  0.00    -0.166 F 
ATOM     26  F   UNL     1       9.091  -0.170  20.269  0.00  0.00    -0.166 F 
ATOM     27  F   UNL     1      10.268   0.907  21.740  0.00  0.00    -0.166 F 
ENDBRANCH  21  24
BRANCH  18  29
ATOM     28  C   UNL     1       9.921  -4.732  25.566  0.00  0.00    +0.277 C 
ATOM     29  O   UNL     1       9.037  -3.610  25.670  0.00  0.00    -0.492 OA
ENDBRANCH  18  29
ENDBRANCH   1  23
BRANCH   6  30
ATOM     30  C   UNL     1       6.409   2.198  28.262  0.00  0.00    +0.033 A 
ATOM     31  C   UNL     1       5.838   2.029  29.531  0.00  0.00    +0.023 A 
ATOM     32  C   UNL     1       5.840   3.056  30.484  0.00  0.00    +0.005 A 
ATOM     33  C   UNL     1       6.431   4.278  30.189  0.00  0.00    +0.046 A 
ATOM     34  C   UNL     1       7.016   4.485  28.944  0.00  0.00    +0.122 A 
ATOM     35  C   UNL     1       6.990   3.454  27.997  0.00  0.00    +0.068 A 
BRANCH  34  36
ATOM     36  O   UNL     1       7.566   5.727  28.765  0.00  0.00    -0.495 OA
ATOM     37  C   UNL     1       7.544   6.259  27.451  0.00  0.00    +0.277 C 
ENDBRANCH  34  36
ENDBRANCH   6  30
BRANCH  17  38
ATOM     38  C   UNL     1       6.698  -5.432  24.888  0.00  0.00    +0.164 C 
BRANCH  38  39
ATOM     39  C   UNL     1       6.112  -5.447  26.268  0.00  0.00    +0.308 C 
ATOM     40  O   UNL     1       5.028  -5.952  26.535  0.00  0.00    -0.251 OA
BRANCH  39  41
ATOM     41  O   UNL     1       6.828  -4.757  27.180  0.00  0.00    -0.481 OA
ATOM     42  H   UNL     1       6.307  -4.346  27.894  0.00  0.00    +0.295 HD
ENDBRANCH  39  41
ENDBRANCH  38  39
ENDBRANCH  17  38
TORSDOF 8
ENDMDL
MODEL 8
REMARK VINA RESULT:      -6.3      3.433      8.223
REMARK  Name = 
REMARK  10 active torsions:
REMARK  status: ('A' for Active; 'I' for Inactive)
REMARK    1  A    between atoms: C_1  and  O_2
REMARK    2  A    between atoms: O_2  and  C_3
REMARK    3  A    between atoms: C_4  and  N_13
REMARK    4  A    between atoms: C_6  and  C_9
REMARK    5  A    between atoms: C_14  and  C_39
REMARK    6  A    between atoms: N_28  and  C_31
REMARK    7  A    between atoms: C_33  and  O_37
REMARK    8  A    between atoms: O_37  and  C_38
REMARK    9  A    between atoms: C_39  and  C_40
REMARK   10  A    between atoms: C_40  and  O_42
REMARK                            x       y       z     vdW  Elec       q    Type
REMARK                         _______ _______ _______ _____ _____    ______ ____
ROOT
ATOM      1  N   UNL     1       6.735   3.552  24.936  0.00  0.00    -0.181 N 
ATOM      2  C   UNL     1       6.281   2.748  25.998  0.00  0.00    +0.380 C 
ATOM      3  N   UNL     1       6.763   1.450  26.061  0.00  0.00    -0.221 N 
ATOM      4  C   UNL     1       7.029   0.829  27.380  0.00  0.00    +0.206 C 
ATOM      5  C   UNL     1       8.053  -0.326  27.238  0.00  0.00    +0.140 C 
ATOM      6  N   UNL     1       7.564  -1.323  26.261  0.00  0.00    -0.324 N 
ATOM      7  C   UNL     1       7.255  -0.736  24.942  0.00  0.00    +0.140 C 
ATOM      8  C   UNL     1       6.262   0.447  25.096  0.00  0.00    +0.206 C 
ATOM      9  N   UNL     1       5.448   3.157  26.921  0.00  0.00    -0.073 NA
ATOM     10  C   UNL     1       4.959   4.470  26.892  0.00  0.00    +0.183 A 
ATOM     11  C   UNL     1       4.141   4.953  27.920  0.00  0.00    +0.166 A 
ATOM     12  F   UNL     1       3.817   4.165  28.958  0.00  0.00    -0.202 F 
ATOM     13  C   UNL     1       3.622   6.251  27.897  0.00  0.00    +0.042 A 
ATOM     14  C   UNL     1       3.944   7.108  26.849  0.00  0.00    +0.003 A 
ATOM     15  C   UNL     1       4.757   6.648  25.818  0.00  0.00    +0.010 A 
ATOM     16  C   UNL     1       5.243   5.321  25.821  0.00  0.00    +0.033 A 
ATOM     17  C   UNL     1       5.970   4.771  24.616  0.00  0.00    +0.189 C 
ENDROOT
BRANCH   1  23
ATOM     18  C   UNL     1       9.090   3.990  24.222  0.00  0.00    +0.156 A 
ATOM     19  C   UNL     1      10.303   3.426  23.801  0.00  0.00    +0.049 A 
ATOM     20  C   UNL     1      10.307   2.250  23.060  0.00  0.00    +0.016 A 
ATOM     21  C   UNL     1       9.093   1.709  22.649  0.00  0.00    +0.058 A 
ATOM     22  C   UNL     1       7.904   2.232  23.191  0.00  0.00    +0.056 A 
ATOM     23  C   UNL     1       7.882   3.275  24.131  0.00  0.00    +0.137 A 
BRANCH  21  24
ATOM     24  C   UNL     1       9.038   0.593  21.637  0.00  0.00    +0.418 C 
ATOM     25  F   UNL     1       8.704   1.019  20.390  0.00  0.00    -0.166 F 
ATOM     26  F   UNL     1       8.126  -0.361  21.971  0.00  0.00    -0.166 F 
ATOM     27  F   UNL     1      10.225  -0.067  21.502  0.00  0.00    -0.166 F 
ENDBRANCH  21  24
BRANCH  18  29
ATOM     28  C   UNL     1       9.438   6.195  23.540  0.00  0.00    +0.277 C 
ATOM     29  O   UNL     1       9.186   5.300  24.630  0.00  0.00    -0.492 OA
ENDBRANCH  18  29
ENDBRANCH   1  23
BRANCH   6  30
ATOM     30  C   UNL     1       7.614  -2.683  26.490  0.00  0.00    +0.033 A 
ATOM     31  C   UNL     1       8.774  -3.441  26.273  0.00  0.00    +0.023 A 
ATOM     32  C   UNL     1       8.796  -4.828  26.468  0.00  0.00    +0.005 A 
ATOM     33  C   UNL     1       7.653  -5.489  26.900  0.00  0.00    +0.046 A 
ATOM     34  C   UNL     1       6.483  -4.773  27.134  0.00  0.00    +0.122 A 
ATOM     35  C   UNL     1       6.473  -3.390  26.918  0.00  0.00    +0.068 A 
BRANCH  34  36
ATOM     36  O   UNL     1       5.421  -5.528  27.556  0.00  0.00    -0.495 OA
ATOM     37  C   UNL     1       5.026  -6.607  26.724  0.00  0.00    +0.277 C 
ENDBRANCH  34  36
ENDBRANCH   6  30
BRANCH  17  38
ATOM     38  C   UNL     1       4.966   4.629  23.456  0.00  0.00    +0.164 C 
BRANCH  38  39
ATOM     39  C   UNL     1       4.244   3.317  23.383  0.00  0.00    +0.308 C 
ATOM     40  O   UNL     1       3.367   2.985  24.171  0.00  0.00    -0.251 OA
BRANCH  39  41
ATOM     41  O   UNL     1       4.719   2.477  22.440  0.00  0.00    -0.481 OA
ATOM     42  H   UNL     1       5.003   1.603  22.765  0.00  0.00    +0.295 HD
ENDBRANCH  39  41
ENDBRANCH  38  39
ENDBRANCH  17  38
TORSDOF 8
ENDMDL
MODEL 9
REMARK VINA RESULT:      -6.0      2.537      8.196
REMARK  Name = 
REMARK  10 active torsions:
REMARK  status: ('A' for Active; 'I' for Inactive)
REMARK    1  A    between atoms: C_1  and  O_2
REMARK    2  A    between atoms: O_2  and  C_3
REMARK    3  A    between atoms: C_4  and  N_13
REMARK    4  A    between atoms: C_6  and  C_9
REMARK    5  A    between atoms: C_14  and  C_39
REMARK    6  A    between atoms: N_28  and  C_31
REMARK    7  A    between atoms: C_33  and  O_37
REMARK    8  A    between atoms: O_37  and  C_38
REMARK    9  A    between atoms: C_39  and  C_40
REMARK   10  A    between atoms: C_40  and  O_42
REMARK                            x       y       z     vdW  Elec       q    Type
REMARK                         _______ _______ _______ _____ _____    ______ ____
ROOT
ATOM      1  N   UNL     1       8.198   1.310  23.975  0.00  0.00    -0.181 N 
ATOM      2  C   UNL     1       7.550   1.681  25.167  0.00  0.00    +0.380 C 
ATOM      3  N   UNL     1       6.821   0.702  25.825  0.00  0.00    -0.221 N 
ATOM      4  C   UNL     1       6.790   0.682  27.307  0.00  0.00    +0.206 C 
ATOM      5  C   UNL     1       6.438  -0.738  27.820  0.00  0.00    +0.140 C 
ATOM      6  N   UNL     1       5.149  -1.182  27.247  0.00  0.00    -0.324 N 
ATOM      7  C   UNL     1       5.130  -1.143  25.771  0.00  0.00    +0.140 C 
ATOM      8  C   UNL     1       5.524   0.269  25.262  0.00  0.00    +0.206 C 
ATOM      9  N   UNL     1       7.605   2.882  25.686  0.00  0.00    -0.073 NA
ATOM     10  C   UNL     1       8.348   3.886  25.053  0.00  0.00    +0.183 A 
ATOM     11  C   UNL     1       8.495   5.148  25.640  0.00  0.00    +0.166 A 
ATOM     12  F   UNL     1       7.928   5.415  26.827  0.00  0.00    -0.202 F 
ATOM     13  C   UNL     1       9.211   6.171  25.012  0.00  0.00    +0.042 A 
ATOM     14  C   UNL     1       9.828   5.936  23.787  0.00  0.00    +0.003 A 
ATOM     15  C   UNL     1       9.697   4.687  23.187  0.00  0.00    +0.010 A 
ATOM     16  C   UNL     1       8.934   3.669  23.803  0.00  0.00    +0.033 A 
ATOM     17  C   UNL     1       8.643   2.383  23.067  0.00  0.00    +0.189 C 
ENDROOT
BRANCH   1  23
ATOM     18  C   UNL     1       9.720  -0.645  23.637  0.00  0.00    +0.156 A 
ATOM     19  C   UNL     1       9.855  -2.039  23.694  0.00  0.00    +0.049 A 
ATOM     20  C   UNL     1       8.762  -2.858  23.437  0.00  0.00    +0.016 A 
ATOM     21  C   UNL     1       7.571  -2.277  23.012  0.00  0.00    +0.058 A 
ATOM     22  C   UNL     1       7.440  -0.878  23.084  0.00  0.00    +0.056 A 
ATOM     23  C   UNL     1       8.454  -0.035  23.567  0.00  0.00    +0.137 A 
BRANCH  21  24
ATOM     24  C   UNL     1       6.442  -3.118  22.473  0.00  0.00    +0.418 C 
ATOM     25  F   UNL     1       5.515  -2.394  21.792  0.00  0.00    -0.166 F 
ATOM     26  F   UNL     1       5.767  -3.769  23.461  0.00  0.00    -0.166 F 
ATOM     27  F   UNL     1       6.862  -4.092  21.615  0.00  0.00    -0.166 F 
ENDBRANCH  21  24
BRANCH  18  29
ATOM     28  C   UNL     1      11.285   0.624  24.816  0.00  0.00    +0.277 C 
ATOM     29  O   UNL     1      10.913   0.038  23.563  0.00  0.00    -0.492 OA
ENDBRANCH  18  29
ENDBRANCH   1  23
BRANCH   6  30
ATOM     30  C   UNL     1       4.161  -1.785  28.000  0.00  0.00    +0.033 A 
ATOM     31  C   UNL     1       3.268  -1.052  28.795  0.00  0.00    +0.023 A 
ATOM     32  C   UNL     1       2.300  -1.680  29.589  0.00  0.00    +0.005 A 
ATOM     33  C   UNL     1       2.196  -3.066  29.593  0.00  0.00    +0.046 A 
ATOM     34  C   UNL     1       3.058  -3.830  28.813  0.00  0.00    +0.122 A 
ATOM     35  C   UNL     1       4.031  -3.186  28.039  0.00  0.00    +0.068 A 
BRANCH  34  36
ATOM     36  O   UNL     1       2.864  -5.183  28.898  0.00  0.00    -0.495 OA
ATOM     37  C   UNL     1       3.852  -6.015  28.312  0.00  0.00    +0.277 C 
ENDBRANCH  34  36
ENDBRANCH   6  30
BRANCH  17  38
ATOM     38  C   UNL     1       7.688   2.688  21.897  0.00  0.00    +0.164 C 
BRANCH  38  39
ATOM     39  C   UNL     1       6.414   3.387  22.269  0.00  0.00    +0.308 C 
ATOM     40  O   UNL     1       5.448   2.814  22.757  0.00  0.00    -0.251 OA
BRANCH  39  41
ATOM     41  O   UNL     1       6.376   4.689  21.917  0.00  0.00    -0.481 OA
ATOM     42  H   UNL     1       6.296   4.860  20.961  0.00  0.00    +0.295 HD
ENDBRANCH  39  41
ENDBRANCH  38  39
ENDBRANCH  17  38
TORSDOF 8
ENDMDL
