MODEL 1
REMARK VINA RESULT:      -6.2      0.000      0.000
REMARK  Name = 
REMARK  4 active torsions:
REMARK  status: ('A' for Active; 'I' for Inactive)
REMARK    1  A    between atoms: C3*_2  and  O3*_19
REMARK    2  A    between atoms: C4*_4  and  C5*_17
REMARK    3  A    between atoms: C1*_6  and  N_8
REMARK    4  A    between atoms: C5*_17  and  O5*_18
REMARK                            x       y       z     vdW  Elec       q    Type
REMARK                         _______ _______ _______ _____ _____    ______ ____
ROOT
ATOM      1  C2* UNL     1       6.750  -2.560  23.106  0.00  0.00    +0.088 C 
ATOM      2  C1* UNL     1       7.938  -3.382  23.587  0.00  0.00    +0.226 C 
ATOM      3  O4* UNL     1       9.080  -2.505  23.701  0.00  0.00    -0.348 OA
ATOM      4  C4* UNL     1       8.678  -1.174  23.314  0.00  0.00    +0.175 C 
ATOM      5  C3* UNL     1       7.157  -1.151  23.458  0.00  0.00    +0.150 C 
ENDROOT
BRANCH   2   6
ATOM      6  N   UNL     1       7.687  -4.058  24.857  0.00  0.00    -0.273 N 
ATOM      7  C   UNL     1       8.548  -5.096  25.190  0.00  0.00    +0.331 A 
ATOM      8  O   UNL     1       9.492  -5.459  24.492  0.00  0.00    -0.246 OA
ATOM      9  N   UNL     1       8.281  -5.728  26.374  0.00  0.00    -0.274 N 
ATOM     10  H   UNL     1       8.907  -6.473  26.642  0.00  0.00    +0.173 HD
ATOM     11  C   UNL     1       7.247  -5.455  27.229  0.00  0.00    +0.267 A 
ATOM     12  O   UNL     1       7.117  -6.081  28.276  0.00  0.00    -0.267 OA
ATOM     13  C   UNL     1       6.322  -4.373  26.797  0.00  0.00    +0.094 A 
ATOM     14  I   UNL     1       4.696  -3.903  27.942  0.00  0.00    -0.037 I 
ATOM     15  C   UNL     1       6.596  -3.741  25.648  0.00  0.00    +0.113 A 
ENDBRANCH   2   6
BRANCH   5  16
ATOM     16  O3* UNL     1       6.497  -0.172  22.681  0.00  0.00    -0.389 OA
ATOM     17  H3* UNL     1       5.944  -0.629  22.019  0.00  0.00    +0.210 HD
ENDBRANCH   5  16
BRANCH   4  18
ATOM     18  C5* UNL     1       9.219  -0.872  21.913  0.00  0.00    +0.190 C 
BRANCH  18  19
ATOM     19  O5* UNL     1      10.386  -1.637  21.623  0.00  0.00    -0.392 OA
ATOM     20  H5* UNL     1      11.054  -1.378  22.284  0.00  0.00    +0.210 HD
ENDBRANCH  18  19
ENDBRANCH   4  18
TORSDOF 4
ENDMDL
MODEL 2
REMARK VINA RESULT:      -5.9      2.636      5.982
REMARK  Name = 
REMARK  4 active torsions:
REMARK  status: ('A' for Active; 'I' for Inactive)
REMARK    1  A    between atoms: C3*_2  and  O3*_19
REMARK    2  A    between atoms: C4*_4  and  C5*_17
REMARK    3  A    between atoms: C1*_6  and  N_8
REMARK    4  A    between atoms: C5*_17  and  O5*_18
REMARK                            x       y       z     vdW  Elec       q    Type
REMARK                         _______ _______ _______ _____ _____    ______ ____
ROOT
ATOM      1  C2* UNL     1       7.451  -5.368  25.542  0.00  0.00    +0.088 C 
ATOM      2  C1* UNL     1       6.272  -4.819  24.749  0.00  0.00    +0.226 C 
ATOM      3  O4* UNL     1       5.101  -4.858  25.594  0.00  0.00    -0.348 OA
ATOM      4  C4* UNL     1       5.476  -5.405  26.876  0.00  0.00    +0.175 C 
ATOM      5  C3* UNL     1       6.990  -5.217  26.970  0.00  0.00    +0.150 C 
ENDROOT
BRANCH   2   6
ATOM      6  N   UNL     1       6.497  -3.464  24.255  0.00  0.00    -0.273 N 
ATOM      7  C   UNL     1       5.760  -3.076  23.143  0.00  0.00    +0.331 A 
ATOM      8  O   UNL     1       4.941  -3.795  22.576  0.00  0.00    -0.246 OA
ATOM      9  N   UNL     1       6.002  -1.810  22.685  0.00  0.00    -0.274 N 
ATOM     10  H   UNL     1       5.463  -1.505  21.889  0.00  0.00    +0.173 HD
ATOM     11  C   UNL     1       6.908  -0.919  23.194  0.00  0.00    +0.267 A 
ATOM     12  O   UNL     1       7.028   0.201  22.708  0.00  0.00    -0.267 OA
ATOM     13  C   UNL     1       7.712  -1.405  24.348  0.00  0.00    +0.094 A 
ATOM     14  I   UNL     1       9.149  -0.205  25.168  0.00  0.00    -0.037 I 
ATOM     15  C   UNL     1       7.459  -2.637  24.809  0.00  0.00    +0.113 A 
ENDBRANCH   2   6
BRANCH   5  16
ATOM     16  O3* UNL     1       7.648  -6.095  27.861  0.00  0.00    -0.389 OA
ATOM     17  H3* UNL     1       8.583  -6.163  27.588  0.00  0.00    +0.210 HD
ENDBRANCH   5  16
BRANCH   4  18
ATOM     18  C5* UNL     1       4.977  -6.850  26.974  0.00  0.00    +0.190 C 
BRANCH  18  19
ATOM     19  O5* UNL     1       5.318  -7.442  28.225  0.00  0.00    -0.392 OA
ATOM     20  H5* UNL     1       5.048  -8.377  28.167  0.00  0.00    +0.210 HD
ENDBRANCH  18  19
ENDBRANCH   4  18
TORSDOF 4
ENDMDL
MODEL 3
REMARK VINA RESULT:      -5.9      2.731      2.901
REMARK  Name = 
REMARK  4 active torsions:
REMARK  status: ('A' for Active; 'I' for Inactive)
REMARK    1  A    between atoms: C3*_2  and  O3*_19
REMARK    2  A    between atoms: C4*_4  and  C5*_17
REMARK    3  A    between atoms: C1*_6  and  N_8
REMARK    4  A    between atoms: C5*_17  and  O5*_18
REMARK                            x       y       z     vdW  Elec       q    Type
REMARK                         _______ _______ _______ _____ _____    ______ ____
ROOT
ATOM      1  C2* UNL     1       6.988  -2.373  22.611  0.00  0.00    +0.088 C 
ATOM      2  C1* UNL     1       7.567  -3.781  22.606  0.00  0.00    +0.226 C 
ATOM      3  O4* UNL     1       8.797  -3.768  23.363  0.00  0.00    -0.348 OA
ATOM      4  C4* UNL     1       9.028  -2.426  23.842  0.00  0.00    +0.175 C 
ATOM      5  C3* UNL     1       7.664  -1.740  23.802  0.00  0.00    +0.150 C 
ENDROOT
BRANCH   2   6
ATOM      6  N   UNL     1       6.648  -4.778  23.149  0.00  0.00    -0.273 N 
ATOM      7  C   UNL     1       5.904  -5.504  22.227  0.00  0.00    +0.331 A 
ATOM      8  O   UNL     1       5.986  -5.360  21.010  0.00  0.00    -0.246 OA
ATOM      9  N   UNL     1       5.034  -6.417  22.758  0.00  0.00    -0.274 N 
ATOM     10  H   UNL     1       4.498  -6.967  22.104  0.00  0.00    +0.173 HD
ATOM     11  C   UNL     1       4.814  -6.655  24.088  0.00  0.00    +0.267 A 
ATOM     12  O   UNL     1       4.017  -7.515  24.448  0.00  0.00    -0.267 OA
ATOM     13  C   UNL     1       5.594  -5.810  25.032  0.00  0.00    +0.094 A 
ATOM     14  I   UNL     1       5.318  -6.010  27.048  0.00  0.00    -0.037 I 
ATOM     15  C   UNL     1       6.460  -4.931  24.511  0.00  0.00    +0.113 A 
ENDBRANCH   2   6
BRANCH   5  16
ATOM     16  O3* UNL     1       7.705  -0.329  23.733  0.00  0.00    -0.389 OA
ATOM     17  H3* UNL     1       8.351  -0.009  24.391  0.00  0.00    +0.210 HD
ENDBRANCH   5  16
BRANCH   4  18
ATOM     18  C5* UNL     1      10.127  -1.772  22.999  0.00  0.00    +0.190 C 
BRANCH  18  19
ATOM     19  O5* UNL     1      10.551  -0.531  23.557  0.00  0.00    -0.392 OA
ATOM     20  H5* UNL     1       9.982   0.155  23.162  0.00  0.00    +0.210 HD
ENDBRANCH  18  19
ENDBRANCH   4  18
TORSDOF 4
ENDMDL
MODEL 4
REMARK VINA RESULT:      -5.8      3.442      4.460
REMARK  Name = 
REMARK  4 active torsions:
REMARK  status: ('A' for Active; 'I' for Inactive)
REMARK    1  A    between atoms: C3*_2  and  O3*_19
REMARK    2  A    between atoms: C4*_4  and  C5*_17
REMARK    3  A    between atoms: C1*_6  and  N_8
REMARK    4  A    between atoms: C5*_17  and  O5*_18
REMARK                            x       y       z     vdW  Elec       q    Type
REMARK                         _______ _______ _______ _____ _____    ______ ____
ROOT
ATOM      1  C2* UNL     1       9.396   1.383  22.126  0.00  0.00    +0.088 C 
ATOM      2  C1* UNL     1      10.272   0.646  23.131  0.00  0.00    +0.226 C 
ATOM      3  O4* UNL     1      10.641   1.573  24.176  0.00  0.00    -0.348 OA
ATOM      4  C4* UNL     1      10.047   2.855  23.884  0.00  0.00    +0.175 C 
ATOM      5  C3* UNL     1       8.895   2.561  22.924  0.00  0.00    +0.150 C 
ENDROOT
BRANCH   2   6
ATOM      6  N   UNL     1       9.622  -0.531  23.701  0.00  0.00    -0.273 N 
ATOM      7  C   UNL     1       9.993  -1.762  23.175  0.00  0.00    +0.331 A 
ATOM      8  O   UNL     1      10.827  -1.907  22.284  0.00  0.00    -0.246 OA
ATOM      9  N   UNL     1       9.356  -2.848  23.709  0.00  0.00    -0.274 N 
ATOM     10  H   UNL     1       9.626  -3.753  23.352  0.00  0.00    +0.173 HD
ATOM     11  C   UNL     1       8.385  -2.831  24.674  0.00  0.00    +0.267 A 
ATOM     12  O   UNL     1       7.895  -3.876  25.089  0.00  0.00    -0.267 OA
ATOM     13  C   UNL     1       7.984  -1.484  25.161  0.00  0.00    +0.094 A 
ATOM     14  I   UNL     1       6.499  -1.302  26.554  0.00  0.00    -0.037 I 
ATOM     15  C   UNL     1       8.623  -0.422  24.652  0.00  0.00    +0.113 A 
ENDBRANCH   2   6
BRANCH   5  16
ATOM     16  O3* UNL     1       8.495   3.650  22.116  0.00  0.00    -0.389 OA
ATOM     17  H3* UNL     1       7.521   3.648  22.062  0.00  0.00    +0.210 HD
ENDBRANCH   5  16
BRANCH   4  18
ATOM     18  C5* UNL     1      11.128   3.803  23.355  0.00  0.00    +0.190 C 
BRANCH  18  19
ATOM     19  O5* UNL     1      10.654   5.144  23.262  0.00  0.00    -0.392 OA
ATOM     20  H5* UNL     1      10.468   5.302  22.317  0.00  0.00    +0.210 HD
ENDBRANCH  18  19
ENDBRANCH   4  18
TORSDOF 4
ENDMDL
MODEL 5
REMARK VINA RESULT:      -5.8      2.107      2.539
REMARK  Name = 
REMARK  4 active torsions:
REMARK  status: ('A' for Active; 'I' for Inactive)
REMARK    1  A    between atoms: C3*_2  and  O3*_19
REMARK    2  A    between atoms: C4*_4  and  C5*_17
REMARK    3  A    between atoms: C1*_6  and  N_8
REMARK    4  A    between atoms: C5*_17  and  O5*_18
REMARK                            x       y       z     vdW  Elec       q    Type
REMARK                         _______ _______ _______ _____ _____    ______ ____
ROOT
ATOM      1  C2* UNL     1       9.686  -2.322  23.719  0.00  0.00    +0.088 C 
ATOM      2  C1* UNL     1       8.507  -1.990  24.624  0.00  0.00    +0.226 C 
ATOM      3  O4* UNL     1       7.662  -1.041  23.939  0.00  0.00    -0.348 OA
ATOM      4  C4* UNL     1       8.245  -0.752  22.650  0.00  0.00    +0.175 C 
ATOM      5  C3* UNL     1       9.179  -1.925  22.354  0.00  0.00    +0.150 C 
ENDROOT
BRANCH   2   6
ATOM      6  N   UNL     1       7.737  -3.169  25.012  0.00  0.00    -0.273 N 
ATOM      7  C   UNL     1       8.098  -3.782  26.206  0.00  0.00    +0.331 A 
ATOM      8  O   UNL     1       9.002  -3.386  26.937  0.00  0.00    -0.246 OA
ATOM      9  N   UNL     1       7.377  -4.896  26.539  0.00  0.00    -0.274 N 
ATOM     10  H   UNL     1       7.613  -5.344  27.411  0.00  0.00    +0.173 HD
ATOM     11  C   UNL     1       6.373  -5.468  25.804  0.00  0.00    +0.267 A 
ATOM     12  O   UNL     1       5.783  -6.462  26.214  0.00  0.00    -0.267 OA
ATOM     13  C   UNL     1       6.066  -4.805  24.508  0.00  0.00    +0.094 A 
ATOM     14  I   UNL     1       4.635  -5.588  23.275  0.00  0.00    -0.037 I 
ATOM     15  C   UNL     1       6.758  -3.703  24.192  0.00  0.00    +0.113 A 
ENDBRANCH   2   6
BRANCH   5  16
ATOM     16  O3* UNL     1      10.216  -1.648  21.435  0.00  0.00    -0.389 OA
ATOM     17  H3* UNL     1      10.945  -2.277  21.599  0.00  0.00    +0.210 HD
ENDBRANCH   5  16
BRANCH   4  18
ATOM     18  C5* UNL     1       8.906   0.630  22.695  0.00  0.00    +0.190 C 
BRANCH  18  19
ATOM     19  O5* UNL     1       9.262   1.085  21.392  0.00  0.00    -0.392 OA
ATOM     20  H5* UNL     1      10.088   1.593  21.497  0.00  0.00    +0.210 HD
ENDBRANCH  18  19
ENDBRANCH   4  18
TORSDOF 4
ENDMDL
MODEL 6
REMARK VINA RESULT:      -5.7      3.697      5.591
REMARK  Name = 
REMARK  4 active torsions:
REMARK  status: ('A' for Active; 'I' for Inactive)
REMARK    1  A    between atoms: C3*_2  and  O3*_19
REMARK    2  A    between atoms: C4*_4  and  C5*_17
REMARK    3  A    between atoms: C1*_6  and  N_8
REMARK    4  A    between atoms: C5*_17  and  O5*_18
REMARK                            x       y       z     vdW  Elec       q    Type
REMARK                         _______ _______ _______ _____ _____    ______ ____
ROOT
ATOM      1  C2* UNL     1       6.319  -2.915  23.765  0.00  0.00    +0.088 C 
ATOM      2  C1* UNL     1       7.786  -3.010  23.369  0.00  0.00    +0.226 C 
ATOM      3  O4* UNL     1       7.897  -3.926  22.259  0.00  0.00    -0.348 OA
ATOM      4  C4* UNL     1       6.580  -4.418  21.934  0.00  0.00    +0.175 C 
ATOM      5  C3* UNL     1       5.608  -3.398  22.525  0.00  0.00    +0.150 C 
ENDROOT
BRANCH   2   6
ATOM      6  N   UNL     1       8.368  -1.716  23.021  0.00  0.00    -0.273 N 
ATOM      7  C   UNL     1       9.753  -1.660  22.935  0.00  0.00    +0.331 A 
ATOM      8  O   UNL     1      10.494  -2.623  23.122  0.00  0.00    -0.246 OA
ATOM      9  N   UNL     1      10.277  -0.434  22.628  0.00  0.00    -0.274 N 
ATOM     10  H   UNL     1      11.281  -0.379  22.544  0.00  0.00    +0.173 HD
ATOM     11  C   UNL     1       9.577   0.726  22.432  0.00  0.00    +0.267 A 
ATOM     12  O   UNL     1      10.156   1.767  22.144  0.00  0.00    -0.267 OA
ATOM     13  C   UNL     1       8.101   0.623  22.594  0.00  0.00    +0.094 A 
ATOM     14  I   UNL     1       6.934   2.289  22.395  0.00  0.00    -0.037 I 
ATOM     15  C   UNL     1       7.588  -0.583  22.873  0.00  0.00    +0.113 A 
ENDBRANCH   2   6
BRANCH   5  16
ATOM     16  O3* UNL     1       4.309  -3.889  22.785  0.00  0.00    -0.389 OA
ATOM     17  H3* UNL     1       3.976  -4.316  21.973  0.00  0.00    +0.210 HD
ENDBRANCH   5  16
BRANCH   4  18
ATOM     18  C5* UNL     1       6.436  -5.853  22.452  0.00  0.00    +0.190 C 
BRANCH  18  19
ATOM     19  O5* UNL     1       5.213  -6.447  22.024  0.00  0.00    -0.392 OA
ATOM     20  H5* UNL     1       5.210  -7.354  22.383  0.00  0.00    +0.210 HD
ENDBRANCH  18  19
ENDBRANCH   4  18
TORSDOF 4
ENDMDL
MODEL 7
REMARK VINA RESULT:      -5.5      3.398      5.812
REMARK  Name = 
REMARK  4 active torsions:
REMARK  status: ('A' for Active; 'I' for Inactive)
REMARK    1  A    between atoms: C3*_2  and  O3*_19
REMARK    2  A    between atoms: C4*_4  and  C5*_17
REMARK    3  A    between atoms: C1*_6  and  N_8
REMARK    4  A    between atoms: C5*_17  and  O5*_18
REMARK                            x       y       z     vdW  Elec       q    Type
REMARK                         _______ _______ _______ _____ _____    ______ ____
ROOT
ATOM      1  C2* UNL     1       6.832  -3.498  24.315  0.00  0.00    +0.088 C 
ATOM      2  C1* UNL     1       7.303  -2.354  25.204  0.00  0.00    +0.226 C 
ATOM      3  O4* UNL     1       8.682  -2.595  25.558  0.00  0.00    -0.348 OA
ATOM      4  C4* UNL     1       9.107  -3.830  24.944  0.00  0.00    +0.175 C 
ATOM      5  C3* UNL     1       8.127  -4.071  23.797  0.00  0.00    +0.150 C 
ENDROOT
BRANCH   2   6
ATOM      6  N   UNL     1       7.161  -1.046  24.572  0.00  0.00    -0.273 N 
ATOM      7  C   UNL     1       5.918  -0.436  24.677  0.00  0.00    +0.331 A 
ATOM      8  O   UNL     1       4.959  -0.925  25.270  0.00  0.00    -0.246 OA
ATOM      9  N   UNL     1       5.801   0.780  24.060  0.00  0.00    -0.274 N 
ATOM     10  H   UNL     1       4.910   1.246  24.142  0.00  0.00    +0.173 HD
ATOM     11  C   UNL     1       6.770   1.423  23.338  0.00  0.00    +0.267 A 
ATOM     12  O   UNL     1       6.555   2.524  22.841  0.00  0.00    -0.267 OA
ATOM     13  C   UNL     1       8.063   0.700  23.207  0.00  0.00    +0.094 A 
ATOM     14  I   UNL     1       9.578   1.511  22.100  0.00  0.00    -0.037 I 
ATOM     15  C   UNL     1       8.183  -0.480  23.829  0.00  0.00    +0.113 A 
ENDBRANCH   2   6
BRANCH   5  16
ATOM     16  O3* UNL     1       8.012  -5.417  23.380  0.00  0.00    -0.389 OA
ATOM     17  H3* UNL     1       8.406  -5.496  22.491  0.00  0.00    +0.210 HD
ENDBRANCH   5  16
BRANCH   4  18
ATOM     18  C5* UNL     1       9.166  -4.928  26.011  0.00  0.00    +0.190 C 
BRANCH  18  19
ATOM     19  O5* UNL     1       9.916  -6.055  25.566  0.00  0.00    -0.392 OA
ATOM     20  H5* UNL     1      10.668  -5.699  25.057  0.00  0.00    +0.210 HD
ENDBRANCH  18  19
ENDBRANCH   4  18
TORSDOF 4
ENDMDL
MODEL 8
REMARK VINA RESULT:      -5.5      2.340      5.521
REMARK  Name = 
REMARK  4 active torsions:
REMARK  status: ('A' for Active; 'I' for Inactive)
REMARK    1  A    between atoms: C3*_2  and  O3*_19
REMARK    2  A    between atoms: C4*_4  and  C5*_17
REMARK    3  A    between atoms: C1*_6  and  N_8
REMARK    4  A    between atoms: C5*_17  and  O5*_18
REMARK                            x       y       z     vdW  Elec       q    Type
REMARK                         _______ _______ _______ _____ _____    ______ ____
ROOT
ATOM      1  C2* UNL     1       8.152  -5.292  26.099  0.00  0.00    +0.088 C 
ATOM      2  C1* UNL     1       7.448  -4.599  24.940  0.00  0.00    +0.226 C 
ATOM      3  O4* UNL     1       6.030  -4.583  25.215  0.00  0.00    -0.348 OA
ATOM      4  C4* UNL     1       5.801  -5.231  26.484  0.00  0.00    +0.175 C 
ATOM      5  C3* UNL     1       7.142  -5.183  27.214  0.00  0.00    +0.150 C 
ENDROOT
BRANCH   2   6
ATOM      6  N   UNL     1       7.936  -3.243  24.704  0.00  0.00    -0.273 N 
ATOM      7  C   UNL     1       9.288  -3.110  24.415  0.00  0.00    +0.331 A 
ATOM      8  O   UNL     1      10.072  -4.053  24.339  0.00  0.00    -0.246 OA
ATOM      9  N   UNL     1       9.726  -1.829  24.219  0.00  0.00    -0.274 N 
ATOM     10  H   UNL     1      10.702  -1.714  23.989  0.00  0.00    +0.173 HD
ATOM     11  C   UNL     1       8.976  -0.687  24.309  0.00  0.00    +0.267 A 
ATOM     12  O   UNL     1       9.477   0.411  24.095  0.00  0.00    -0.267 OA
ATOM     13  C   UNL     1       7.548  -0.882  24.678  0.00  0.00    +0.094 A 
ATOM     14  I   UNL     1       6.325   0.738  24.914  0.00  0.00    -0.037 I 
ATOM     15  C   UNL     1       7.115  -2.138  24.850  0.00  0.00    +0.113 A 
ENDBRANCH   2   6
BRANCH   5  16
ATOM     16  O3* UNL     1       7.314  -6.163  28.217  0.00  0.00    -0.389 OA
ATOM     17  H3* UNL     1       8.083  -5.910  28.763  0.00  0.00    +0.210 HD
ENDBRANCH   5  16
BRANCH   4  18
ATOM     18  C5* UNL     1       5.227  -6.631  26.239  0.00  0.00    +0.190 C 
BRANCH  18  19
ATOM     19  O5* UNL     1       4.995  -7.327  27.461  0.00  0.00    -0.392 OA
ATOM     20  H5* UNL     1       5.865  -7.652  27.759  0.00  0.00    +0.210 HD
ENDBRANCH  18  19
ENDBRANCH   4  18
TORSDOF 4
ENDMDL
MODEL 9
REMARK VINA RESULT:      -5.4      1.616      1.721
REMARK  Name = 
REMARK  4 active torsions:
REMARK  status: ('A' for Active; 'I' for Inactive)
REMARK    1  A    between atoms: C3*_2  and  O3*_19
REMARK    2  A    between atoms: C4*_4  and  C5*_17
REMARK    3  A    between atoms: C1*_6  and  N_8
REMARK    4  A    between atoms: C5*_17  and  O5*_18
REMARK                            x       y       z     vdW  Elec       q    Type
REMARK                         _______ _______ _______ _____ _____    ______ ____
ROOT
ATOM      1  C2* UNL     1       7.034  -1.214  22.615  0.00  0.00    +0.088 C 
ATOM      2  C1* UNL     1       8.285  -1.923  23.118  0.00  0.00    +0.226 C 
ATOM      3  O4* UNL     1       9.312  -0.930  23.334  0.00  0.00    -0.348 OA
ATOM      4  C4* UNL     1       8.778   0.367  22.992  0.00  0.00    +0.175 C 
ATOM      5  C3* UNL     1       7.259   0.211  23.056  0.00  0.00    +0.150 C 
ENDROOT
BRANCH   2   6
ATOM      6  N   UNL     1       8.055  -2.690  24.339  0.00  0.00    -0.273 N 
ATOM      7  C   UNL     1       9.069  -3.554  24.731  0.00  0.00    +0.331 A 
ATOM      8  O   UNL     1      10.128  -3.693  24.124  0.00  0.00    -0.246 OA
ATOM      9  N   UNL     1       8.823  -4.278  25.866  0.00  0.00    -0.274 N 
ATOM     10  H   UNL     1       9.556  -4.897  26.176  0.00  0.00    +0.173 HD
ATOM     11  C   UNL     1       7.679  -4.251  26.618  0.00  0.00    +0.267 A 
ATOM     12  O   UNL     1       7.578  -4.935  27.630  0.00  0.00    -0.267 OA
ATOM     13  C   UNL     1       6.602  -3.353  26.121  0.00  0.00    +0.094 A 
ATOM     14  I   UNL     1       4.814  -3.261  27.107  0.00  0.00    -0.037 I 
ATOM     15  C   UNL     1       6.852  -2.629  25.022  0.00  0.00    +0.113 A 
ENDBRANCH   2   6
BRANCH   5  16
ATOM     16  O3* UNL     1       6.528   1.150  22.295  0.00  0.00    -0.389 OA
ATOM     17  H3* UNL     1       6.640   2.029  22.705  0.00  0.00    +0.210 HD
ENDBRANCH   5  16
BRANCH   4  18
ATOM     18  C5* UNL     1       9.345   0.804  21.637  0.00  0.00    +0.190 C 
BRANCH  18  19
ATOM     19  O5* UNL     1       9.975   2.079  21.717  0.00  0.00    -0.392 OA
ATOM     20  H5* UNL     1      10.803   2.007  21.207  0.00  0.00    +0.210 HD
ENDBRANCH  18  19
ENDBRANCH   4  18
TORSDOF 4
ENDMDL
