MODEL 1
REMARK VINA RESULT:      -6.0      0.000      0.000
REMARK  Name = 
REMARK  7 active torsions:
REMARK  status: ('A' for Active; 'I' for Inactive)
REMARK    1  A    between atoms: N_5  and  C_6
REMARK    2  A    between atoms: C_6  and  C_7
REMARK    3  A    between atoms: C_7  and  C_8
REMARK    4  A    between atoms: C_8  and  C_9
REMARK    5  A    between atoms: C_8  and  C_11
REMARK    6  A    between atoms: C_9  and  O_10
REMARK    7  A    between atoms: C_11  and  O_12
REMARK                            x       y       z     vdW  Elec       q    Type
REMARK                         _______ _______ _______ _____ _____    ______ ____
ROOT
ATOM      1  C   UNL     1       7.074  -2.015  22.593  0.00  0.00    +0.201 A 
ATOM      2  N   UNL     1       8.399  -2.275  22.842  0.00  0.00    -0.315 N 
ATOM      3  C   UNL     1       8.443  -3.292  23.754  0.00  0.00    +0.169 A 
ATOM      4  N   UNL     1       9.552  -3.866  24.283  0.00  0.00    -0.196 NA
ATOM      5  C   UNL     1       9.284  -4.826  25.126  0.00  0.00    +0.195 A 
ATOM      6  N   UNL     1      10.296  -5.482  25.751  0.00  0.00    -0.329 N 
ATOM      7  H   UNL     1      10.141  -6.436  26.046  0.00  0.00    +0.145 HD
ATOM      8  H   UNL     1      11.202  -5.326  25.322  0.00  0.00    +0.145 HD
ATOM      9  N   UNL     1       8.006  -5.241  25.442  0.00  0.00    -0.293 N 
ATOM     10  H   UNL     1       7.860  -5.970  26.117  0.00  0.00    +0.172 HD
ATOM     11  C   UNL     1       6.843  -4.672  24.934  0.00  0.00    +0.280 A 
ATOM     12  O   UNL     1       5.733  -5.068  25.268  0.00  0.00    -0.265 OA
ATOM     13  C   UNL     1       7.124  -3.599  24.005  0.00  0.00    +0.172 A 
ATOM     14  N   UNL     1       6.273  -2.797  23.290  0.00  0.00    -0.229 NA
ENDROOT
BRANCH   2  15
ATOM     15  C   UNL     1       9.521  -1.651  22.180  0.00  0.00    +0.125 C 
BRANCH  15  16
ATOM     16  C   UNL     1       9.401  -0.134  21.999  0.00  0.00    +0.029 C 
BRANCH  16  17
ATOM     17  C   UNL     1       9.599   0.711  23.277  0.00  0.00    +0.042 C 
BRANCH  17  18
ATOM     18  C   UNL     1      10.023   2.142  22.892  0.00  0.00    +0.161 C 
BRANCH  18  19
ATOM     19  O   UNL     1      10.216   2.277  21.488  0.00  0.00    -0.395 OA
ATOM     20  H   UNL     1      10.953   1.676  21.253  0.00  0.00    +0.209 HD
ENDBRANCH  18  19
ENDBRANCH  17  18
BRANCH  17  21
ATOM     21  C   UNL     1      10.612   0.105  24.259  0.00  0.00    +0.161 C 
BRANCH  21  22
ATOM     22  O   UNL     1      10.335   0.494  25.601  0.00  0.00    -0.395 OA
ATOM     23  H   UNL     1      11.127   0.938  25.950  0.00  0.00    +0.209 HD
ENDBRANCH  21  22
ENDBRANCH  17  21
ENDBRANCH  16  17
ENDBRANCH  15  16
ENDBRANCH   2  15
TORSDOF 7
ENDMDL
MODEL 2
REMARK VINA RESULT:      -6.0      1.008      1.638
REMARK  Name = 
REMARK  7 active torsions:
REMARK  status: ('A' for Active; 'I' for Inactive)
REMARK    1  A    between atoms: N_5  and  C_6
REMARK    2  A    between atoms: C_6  and  C_7
REMARK    3  A    between atoms: C_7  and  C_8
REMARK    4  A    between atoms: C_8  and  C_9
REMARK    5  A    between atoms: C_8  and  C_11
REMARK    6  A    between atoms: C_9  and  O_10
REMARK    7  A    between atoms: C_11  and  O_12
REMARK                            x       y       z     vdW  Elec       q    Type
REMARK                         _______ _______ _______ _____ _____    ______ ____
ROOT
ATOM      1  C   UNL     1       7.398  -1.592  22.832  0.00  0.00    +0.201 A 
ATOM      2  N   UNL     1       8.692  -1.967  23.094  0.00  0.00    -0.315 N 
ATOM      3  C   UNL     1       8.635  -3.077  23.889  0.00  0.00    +0.169 A 
ATOM      4  N   UNL     1       9.684  -3.778  24.387  0.00  0.00    -0.196 NA
ATOM      5  C   UNL     1       9.322  -4.804  25.110  0.00  0.00    +0.195 A 
ATOM      6  N   UNL     1      10.264  -5.590  25.691  0.00  0.00    -0.329 N 
ATOM      7  H   UNL     1      10.037  -6.558  25.873  0.00  0.00    +0.145 HD
ATOM      8  H   UNL     1      11.195  -5.450  25.312  0.00  0.00    +0.145 HD
ATOM      9  N   UNL     1       8.008  -5.163  25.336  0.00  0.00    -0.293 N 
ATOM     10  H   UNL     1       7.790  -5.949  25.921  0.00  0.00    +0.172 HD
ATOM     11  C   UNL     1       6.905  -4.465  24.856  0.00  0.00    +0.280 A 
ATOM     12  O   UNL     1       5.760  -4.819  25.107  0.00  0.00    -0.265 OA
ATOM     13  C   UNL     1       7.291  -3.320  24.061  0.00  0.00    +0.172 A 
ATOM     14  N   UNL     1       6.522  -2.389  23.412  0.00  0.00    -0.229 NA
ENDROOT
BRANCH   2  15
ATOM     15  C   UNL     1       9.878  -1.352  22.542  0.00  0.00    +0.125 C 
BRANCH  15  16
ATOM     16  C   UNL     1       9.615  -0.305  21.455  0.00  0.00    +0.029 C 
BRANCH  16  17
ATOM     17  C   UNL     1       9.720   1.170  21.905  0.00  0.00    +0.042 C 
BRANCH  17  18
ATOM     18  C   UNL     1      10.275   1.236  23.341  0.00  0.00    +0.161 C 
BRANCH  18  19
ATOM     19  O   UNL     1      10.782   2.529  23.653  0.00  0.00    -0.395 OA
ATOM     20  H   UNL     1      11.712   2.400  23.930  0.00  0.00    +0.209 HD
ENDBRANCH  18  19
ENDBRANCH  17  18
BRANCH  17  21
ATOM     21  C   UNL     1       8.388   1.931  21.817  0.00  0.00    +0.161 C 
BRANCH  21  22
ATOM     22  O   UNL     1       8.569   3.326  22.039  0.00  0.00    -0.395 OA
ATOM     23  H   UNL     1       8.259   3.795  21.245  0.00  0.00    +0.209 HD
ENDBRANCH  21  22
ENDBRANCH  17  21
ENDBRANCH  16  17
ENDBRANCH  15  16
ENDBRANCH   2  15
TORSDOF 7
ENDMDL
MODEL 3
REMARK VINA RESULT:      -5.9      1.557      1.905
REMARK  Name = 
REMARK  7 active torsions:
REMARK  status: ('A' for Active; 'I' for Inactive)
REMARK    1  A    between atoms: N_5  and  C_6
REMARK    2  A    between atoms: C_6  and  C_7
REMARK    3  A    between atoms: C_7  and  C_8
REMARK    4  A    between atoms: C_8  and  C_9
REMARK    5  A    between atoms: C_8  and  C_11
REMARK    6  A    between atoms: C_9  and  O_10
REMARK    7  A    between atoms: C_11  and  O_12
REMARK                            x       y       z     vdW  Elec       q    Type
REMARK                         _______ _______ _______ _____ _____    ______ ____
ROOT
ATOM      1  C   UNL     1       7.985  -1.214  22.661  0.00  0.00    +0.201 A 
ATOM      2  N   UNL     1       9.100  -1.548  23.389  0.00  0.00    -0.315 N 
ATOM      3  C   UNL     1       8.930  -2.835  23.816  0.00  0.00    +0.169 A 
ATOM      4  N   UNL     1       9.790  -3.565  24.568  0.00  0.00    -0.196 NA
ATOM      5  C   UNL     1       9.361  -4.775  24.814  0.00  0.00    +0.195 A 
ATOM      6  N   UNL     1      10.109  -5.617  25.573  0.00  0.00    -0.329 N 
ATOM      7  H   UNL     1      10.013  -6.612  25.423  0.00  0.00    +0.145 HD
ATOM      8  H   UNL     1      11.069  -5.309  25.691  0.00  0.00    +0.145 HD
ATOM      9  N   UNL     1       8.165  -5.280  24.346  0.00  0.00    -0.293 N 
ATOM     10  H   UNL     1       7.877  -6.210  24.587  0.00  0.00    +0.172 HD
ATOM     11  C   UNL     1       7.250  -4.561  23.584  0.00  0.00    +0.280 A 
ATOM     12  O   UNL     1       6.192  -5.055  23.213  0.00  0.00    -0.265 OA
ATOM     13  C   UNL     1       7.706  -3.216  23.311  0.00  0.00    +0.172 A 
ATOM     14  N   UNL     1       7.115  -2.203  22.602  0.00  0.00    -0.229 NA
ENDROOT
BRANCH   2  15
ATOM     15  C   UNL     1      10.269  -0.718  23.572  0.00  0.00    +0.125 C 
BRANCH  15  16
ATOM     16  C   UNL     1      10.014   0.600  24.310  0.00  0.00    +0.029 C 
BRANCH  16  17
ATOM     17  C   UNL     1      10.328   1.886  23.512  0.00  0.00    +0.042 C 
BRANCH  17  18
ATOM     18  C   UNL     1       9.429   3.036  24.006  0.00  0.00    +0.161 C 
BRANCH  18  19
ATOM     19  O   UNL     1       9.765   4.274  23.388  0.00  0.00    -0.395 OA
ATOM     20  H   UNL     1       8.993   4.862  23.515  0.00  0.00    +0.209 HD
ENDBRANCH  18  19
ENDBRANCH  17  18
BRANCH  17  21
ATOM     21  C   UNL     1      10.180   1.714  21.993  0.00  0.00    +0.161 C 
BRANCH  21  22
ATOM     22  O   UNL     1       8.975   2.304  21.516  0.00  0.00    -0.395 OA
ATOM     23  H   UNL     1       8.858   3.152  21.980  0.00  0.00    +0.209 HD
ENDBRANCH  21  22
ENDBRANCH  17  21
ENDBRANCH  16  17
ENDBRANCH  15  16
ENDBRANCH   2  15
TORSDOF 7
ENDMDL
MODEL 4
REMARK VINA RESULT:      -5.9      1.260      2.140
REMARK  Name = 
REMARK  7 active torsions:
REMARK  status: ('A' for Active; 'I' for Inactive)
REMARK    1  A    between atoms: N_5  and  C_6
REMARK    2  A    between atoms: C_6  and  C_7
REMARK    3  A    between atoms: C_7  and  C_8
REMARK    4  A    between atoms: C_8  and  C_9
REMARK    5  A    between atoms: C_8  and  C_11
REMARK    6  A    between atoms: C_9  and  O_10
REMARK    7  A    between atoms: C_11  and  O_12
REMARK                            x       y       z     vdW  Elec       q    Type
REMARK                         _______ _______ _______ _____ _____    ______ ____
ROOT
ATOM      1  C   UNL     1       7.759  -2.787  22.346  0.00  0.00    +0.201 A 
ATOM      2  N   UNL     1       8.576  -2.980  23.431  0.00  0.00    -0.315 N 
ATOM      3  C   UNL     1       7.960  -3.892  24.241  0.00  0.00    +0.169 A 
ATOM      4  N   UNL     1       8.417  -4.373  25.424  0.00  0.00    -0.196 NA
ATOM      5  C   UNL     1       7.613  -5.245  25.971  0.00  0.00    +0.195 A 
ATOM      6  N   UNL     1       7.930  -5.800  27.169  0.00  0.00    -0.329 N 
ATOM      7  H   UNL     1       7.573  -6.721  27.382  0.00  0.00    +0.145 HD
ATOM      8  H   UNL     1       8.901  -5.665  27.432  0.00  0.00    +0.145 HD
ATOM      9  N   UNL     1       6.425  -5.661  25.405  0.00  0.00    -0.293 N 
ATOM     10  H   UNL     1       5.836  -6.317  25.884  0.00  0.00    +0.172 HD
ATOM     11  C   UNL     1       5.914  -5.184  24.202  0.00  0.00    +0.280 A 
ATOM     12  O   UNL     1       4.841  -5.574  23.758  0.00  0.00    -0.265 OA
ATOM     13  C   UNL     1       6.789  -4.209  23.589  0.00  0.00    +0.172 A 
ATOM     14  N   UNL     1       6.660  -3.513  22.415  0.00  0.00    -0.229 NA
ENDROOT
BRANCH   2  15
ATOM     15  C   UNL     1       9.886  -2.398  23.616  0.00  0.00    +0.125 C 
BRANCH  15  16
ATOM     16  C   UNL     1      10.316  -1.417  22.521  0.00  0.00    +0.029 C 
BRANCH  16  17
ATOM     17  C   UNL     1      10.251   0.081  22.898  0.00  0.00    +0.042 C 
BRANCH  17  18
ATOM     18  C   UNL     1       9.572   0.240  24.272  0.00  0.00    +0.161 C 
BRANCH  18  19
ATOM     19  O   UNL     1      10.492   0.670  25.270  0.00  0.00    -0.395 OA
ATOM     20  H   UNL     1      10.851  -0.143  25.682  0.00  0.00    +0.209 HD
ENDBRANCH  18  19
ENDBRANCH  17  18
BRANCH  17  21
ATOM     21  C   UNL     1       9.532   0.943  21.850  0.00  0.00    +0.161 C 
BRANCH  21  22
ATOM     22  O   UNL     1      10.238   2.155  21.600  0.00  0.00    -0.395 OA
ATOM     23  H   UNL     1       9.767   2.872  22.061  0.00  0.00    +0.209 HD
ENDBRANCH  21  22
ENDBRANCH  17  21
ENDBRANCH  16  17
ENDBRANCH  15  16
ENDBRANCH   2  15
TORSDOF 7
ENDMDL
MODEL 5
REMARK VINA RESULT:      -5.8      1.561      2.461
REMARK  Name = 
REMARK  7 active torsions:
REMARK  status: ('A' for Active; 'I' for Inactive)
REMARK    1  A    between atoms: N_5  and  C_6
REMARK    2  A    between atoms: C_6  and  C_7
REMARK    3  A    between atoms: C_7  and  C_8
REMARK    4  A    between atoms: C_8  and  C_9
REMARK    5  A    between atoms: C_8  and  C_11
REMARK    6  A    between atoms: C_9  and  O_10
REMARK    7  A    between atoms: C_11  and  O_12
REMARK                            x       y       z     vdW  Elec       q    Type
REMARK                         _______ _______ _______ _____ _____    ______ ____
ROOT
ATOM      1  C   UNL     1       5.412  -3.682  23.822  0.00  0.00    +0.201 A 
ATOM      2  N   UNL     1       6.738  -3.601  23.474  0.00  0.00    -0.315 N 
ATOM      3  C   UNL     1       7.441  -4.316  24.402  0.00  0.00    +0.169 A 
ATOM      4  N   UNL     1       8.784  -4.500  24.443  0.00  0.00    -0.196 NA
ATOM      5  C   UNL     1       9.172  -5.242  25.446  0.00  0.00    +0.195 A 
ATOM      6  N   UNL     1      10.493  -5.498  25.628  0.00  0.00    -0.329 N 
ATOM      7  H   UNL     1      10.757  -6.354  26.096  0.00  0.00    +0.145 HD
ATOM      8  H   UNL     1      11.061  -5.282  24.815  0.00  0.00    +0.145 HD
ATOM      9  N   UNL     1       8.313  -5.805  26.367  0.00  0.00    -0.293 N 
ATOM     10  H   UNL     1       8.671  -6.347  27.132  0.00  0.00    +0.172 HD
ATOM     11  C   UNL     1       6.933  -5.630  26.369  0.00  0.00    +0.280 A 
ATOM     12  O   UNL     1       6.220  -6.138  27.226  0.00  0.00    -0.265 OA
ATOM     13  C   UNL     1       6.488  -4.803  25.269  0.00  0.00    +0.172 A 
ATOM     14  N   UNL     1       5.227  -4.399  24.913  0.00  0.00    -0.229 NA
ENDROOT
BRANCH   2  15
ATOM     15  C   UNL     1       7.262  -2.960  22.290  0.00  0.00    +0.125 C 
BRANCH  15  16
ATOM     16  C   UNL     1       7.820  -1.550  22.512  0.00  0.00    +0.029 C 
BRANCH  16  17
ATOM     17  C   UNL     1       9.206  -1.272  21.889  0.00  0.00    +0.042 C 
BRANCH  17  18
ATOM     18  C   UNL     1      10.311  -1.788  22.830  0.00  0.00    +0.161 C 
BRANCH  18  19
ATOM     19  O   UNL     1       9.949  -1.645  24.200  0.00  0.00    -0.395 OA
ATOM     20  H   UNL     1      10.649  -1.100  24.614  0.00  0.00    +0.209 HD
ENDBRANCH  18  19
ENDBRANCH  17  18
BRANCH  17  21
ATOM     21  C   UNL     1       9.441   0.210  21.560  0.00  0.00    +0.161 C 
BRANCH  21  22
ATOM     22  O   UNL     1       9.408   1.017  22.733  0.00  0.00    -0.395 OA
ATOM     23  H   UNL     1       9.896   1.837  22.542  0.00  0.00    +0.209 HD
ENDBRANCH  21  22
ENDBRANCH  17  21
ENDBRANCH  16  17
ENDBRANCH  15  16
ENDBRANCH   2  15
TORSDOF 7
ENDMDL
MODEL 6
REMARK VINA RESULT:      -5.7      2.383      6.243
REMARK  Name = 
REMARK  7 active torsions:
REMARK  status: ('A' for Active; 'I' for Inactive)
REMARK    1  A    between atoms: N_5  and  C_6
REMARK    2  A    between atoms: C_6  and  C_7
REMARK    3  A    between atoms: C_7  and  C_8
REMARK    4  A    between atoms: C_8  and  C_9
REMARK    5  A    between atoms: C_8  and  C_11
REMARK    6  A    between atoms: C_9  and  O_10
REMARK    7  A    between atoms: C_11  and  O_12
REMARK                            x       y       z     vdW  Elec       q    Type
REMARK                         _______ _______ _______ _____ _____    ______ ____
ROOT
ATOM      1  C   UNL     1       9.910  -2.115  23.040  0.00  0.00    +0.201 A 
ATOM      2  N   UNL     1       8.551  -2.008  23.205  0.00  0.00    -0.315 N 
ATOM      3  C   UNL     1       8.215  -0.712  22.932  0.00  0.00    +0.169 A 
ATOM      4  N   UNL     1       6.974  -0.166  22.973  0.00  0.00    -0.196 NA
ATOM      5  C   UNL     1       6.958   1.100  22.651  0.00  0.00    +0.195 A 
ATOM      6  N   UNL     1       5.787   1.787  22.665  0.00  0.00    -0.329 N 
ATOM      7  H   UNL     1       5.688   2.583  22.049  0.00  0.00    +0.145 HD
ATOM      8  H   UNL     1       4.968   1.189  22.697  0.00  0.00    +0.145 HD
ATOM      9  N   UNL     1       8.078   1.818  22.284  0.00  0.00    -0.293 N 
ATOM     10  H   UNL     1       8.008   2.796  22.069  0.00  0.00    +0.172 HD
ATOM     11  C   UNL     1       9.368   1.300  22.242  0.00  0.00    +0.280 A 
ATOM     12  O   UNL     1      10.330   1.991  21.929  0.00  0.00    -0.265 OA
ATOM     13  C   UNL     1       9.404  -0.100  22.606  0.00  0.00    +0.172 A 
ATOM     14  N   UNL     1      10.460  -0.971  22.684  0.00  0.00    -0.229 NA
ENDROOT
BRANCH   2  15
ATOM     15  C   UNL     1       7.650  -3.095  23.512  0.00  0.00    +0.125 C 
BRANCH  15  16
ATOM     16  C   UNL     1       7.298  -3.242  24.996  0.00  0.00    +0.029 C 
BRANCH  16  17
ATOM     17  C   UNL     1       8.062  -4.347  25.760  0.00  0.00    +0.042 C 
BRANCH  17  18
ATOM     18  C   UNL     1       8.820  -5.240  24.759  0.00  0.00    +0.161 C 
BRANCH  18  19
ATOM     19  O   UNL     1       9.966  -5.844  25.350  0.00  0.00    -0.395 OA
ATOM     20  H   UNL     1       9.831  -6.811  25.285  0.00  0.00    +0.209 HD
ENDBRANCH  18  19
ENDBRANCH  17  18
BRANCH  17  21
ATOM     21  C   UNL     1       7.158  -5.206  26.657  0.00  0.00    +0.161 C 
BRANCH  21  22
ATOM     22  O   UNL     1       7.922  -5.988  27.570  0.00  0.00    -0.395 OA
ATOM     23  H   UNL     1       7.787  -6.925  27.341  0.00  0.00    +0.209 HD
ENDBRANCH  21  22
ENDBRANCH  17  21
ENDBRANCH  16  17
ENDBRANCH  15  16
ENDBRANCH   2  15
TORSDOF 7
ENDMDL
MODEL 7
REMARK VINA RESULT:      -5.7      2.455      5.613
REMARK  Name = 
REMARK  7 active torsions:
REMARK  status: ('A' for Active; 'I' for Inactive)
REMARK    1  A    between atoms: N_5  and  C_6
REMARK    2  A    between atoms: C_6  and  C_7
REMARK    3  A    between atoms: C_7  and  C_8
REMARK    4  A    between atoms: C_8  and  C_9
REMARK    5  A    between atoms: C_8  and  C_11
REMARK    6  A    between atoms: C_9  and  O_10
REMARK    7  A    between atoms: C_11  and  O_12
REMARK                            x       y       z     vdW  Elec       q    Type
REMARK                         _______ _______ _______ _____ _____    ______ ____
ROOT
ATOM      1  C   UNL     1       9.101  -1.936  22.125  0.00  0.00    +0.201 A 
ATOM      2  N   UNL     1       8.315  -2.192  23.221  0.00  0.00    -0.315 N 
ATOM      3  C   UNL     1       8.653  -1.277  24.179  0.00  0.00    +0.169 A 
ATOM      4  N   UNL     1       8.123  -1.166  25.423  0.00  0.00    -0.196 NA
ATOM      5  C   UNL     1       8.638  -0.186  26.117  0.00  0.00    +0.195 A 
ATOM      6  N   UNL     1       8.220   0.036  27.389  0.00  0.00    -0.329 N 
ATOM      7  H   UNL     1       8.280   0.975  27.758  0.00  0.00    +0.145 HD
ATOM      8  H   UNL     1       7.353  -0.440  27.618  0.00  0.00    +0.145 HD
ATOM      9  N   UNL     1       9.609   0.671  25.639  0.00  0.00    -0.293 N 
ATOM     10  H   UNL     1       9.985   1.392  26.227  0.00  0.00    +0.172 HD
ATOM     11  C   UNL     1      10.187   0.583  24.377  0.00  0.00    +0.280 A 
ATOM     12  O   UNL     1      11.063   1.359  24.014  0.00  0.00    -0.265 OA
ATOM     13  C   UNL     1       9.634  -0.504  23.599  0.00  0.00    +0.172 A 
ATOM     14  N   UNL     1       9.920  -0.922  22.326  0.00  0.00    -0.229 NA
ENDROOT
BRANCH   2  15
ATOM     15  C   UNL     1       7.263  -3.180  23.294  0.00  0.00    +0.125 C 
BRANCH  15  16
ATOM     16  C   UNL     1       7.681  -4.522  23.905  0.00  0.00    +0.029 C 
BRANCH  16  17
ATOM     17  C   UNL     1       8.004  -4.499  25.416  0.00  0.00    +0.042 C 
BRANCH  17  18
ATOM     18  C   UNL     1       9.505  -4.773  25.630  0.00  0.00    +0.161 C 
BRANCH  18  19
ATOM     19  O   UNL     1       9.869  -6.083  25.207  0.00  0.00    -0.395 OA
ATOM     20  H   UNL     1       9.756  -6.665  25.987  0.00  0.00    +0.209 HD
ENDBRANCH  18  19
ENDBRANCH  17  18
BRANCH  17  21
ATOM     21  C   UNL     1       7.163  -5.490  26.235  0.00  0.00    +0.161 C 
BRANCH  21  22
ATOM     22  O   UNL     1       7.831  -5.876  27.432  0.00  0.00    -0.395 OA
ATOM     23  H   UNL     1       8.305  -5.096  27.771  0.00  0.00    +0.209 HD
ENDBRANCH  21  22
ENDBRANCH  17  21
ENDBRANCH  16  17
ENDBRANCH  15  16
ENDBRANCH   2  15
TORSDOF 7
ENDMDL
MODEL 8
REMARK VINA RESULT:      -5.5      2.214      2.998
REMARK  Name = 
REMARK  7 active torsions:
REMARK  status: ('A' for Active; 'I' for Inactive)
REMARK    1  A    between atoms: N_5  and  C_6
REMARK    2  A    between atoms: C_6  and  C_7
REMARK    3  A    between atoms: C_7  and  C_8
REMARK    4  A    between atoms: C_8  and  C_9
REMARK    5  A    between atoms: C_8  and  C_11
REMARK    6  A    between atoms: C_9  and  O_10
REMARK    7  A    between atoms: C_11  and  O_12
REMARK                            x       y       z     vdW  Elec       q    Type
REMARK                         _______ _______ _______ _____ _____    ______ ____
ROOT
ATOM      1  C   UNL     1      10.021  -1.521  23.827  0.00  0.00    +0.201 A 
ATOM      2  N   UNL     1       9.102  -1.170  24.784  0.00  0.00    -0.315 N 
ATOM      3  C   UNL     1       8.565  -2.329  25.269  0.00  0.00    +0.169 A 
ATOM      4  N   UNL     1       7.616  -2.448  26.230  0.00  0.00    -0.196 NA
ATOM      5  C   UNL     1       7.305  -3.689  26.496  0.00  0.00    +0.195 A 
ATOM      6  N   UNL     1       6.354  -3.964  27.425  0.00  0.00    -0.329 N 
ATOM      7  H   UNL     1       6.405  -4.844  27.920  0.00  0.00    +0.145 HD
ATOM      8  H   UNL     1       6.127  -3.173  28.018  0.00  0.00    +0.145 HD
ATOM      9  N   UNL     1       7.889  -4.779  25.884  0.00  0.00    -0.293 N 
ATOM     10  H   UNL     1       7.592  -5.710  26.112  0.00  0.00    +0.172 HD
ATOM     11  C   UNL     1       8.855  -4.700  24.886  0.00  0.00    +0.280 A 
ATOM     12  O   UNL     1       9.323  -5.704  24.362  0.00  0.00    -0.265 OA
ATOM     13  C   UNL     1       9.203  -3.332  24.573  0.00  0.00    +0.172 A 
ATOM     14  N   UNL     1      10.100  -2.828  23.669  0.00  0.00    -0.229 NA
ENDROOT
BRANCH   2  15
ATOM     15  C   UNL     1       8.838   0.173  25.249  0.00  0.00    +0.125 C 
BRANCH  15  16
ATOM     16  C   UNL     1       9.706   1.260  24.607  0.00  0.00    +0.029 C 
BRANCH  16  17
ATOM     17  C   UNL     1       8.955   2.283  23.724  0.00  0.00    +0.042 C 
BRANCH  17  18
ATOM     18  C   UNL     1       9.027   1.845  22.249  0.00  0.00    +0.161 C 
BRANCH  18  19
ATOM     19  O   UNL     1      10.239   2.264  21.630  0.00  0.00    -0.395 OA
ATOM     20  H   UNL     1      10.227   3.243  21.637  0.00  0.00    +0.209 HD
ENDBRANCH  18  19
ENDBRANCH  17  18
BRANCH  17  21
ATOM     21  C   UNL     1       9.478   3.720  23.876  0.00  0.00    +0.161 C 
BRANCH  21  22
ATOM     22  O   UNL     1       8.911   4.587  22.899  0.00  0.00    -0.395 OA
ATOM     23  H   UNL     1       9.185   5.496  23.116  0.00  0.00    +0.209 HD
ENDBRANCH  21  22
ENDBRANCH  17  21
ENDBRANCH  16  17
ENDBRANCH  15  16
ENDBRANCH   2  15
TORSDOF 7
ENDMDL
MODEL 9
REMARK VINA RESULT:      -5.4      4.536      7.625
REMARK  Name = 
REMARK  7 active torsions:
REMARK  status: ('A' for Active; 'I' for Inactive)
REMARK    1  A    between atoms: N_5  and  C_6
REMARK    2  A    between atoms: C_6  and  C_7
REMARK    3  A    between atoms: C_7  and  C_8
REMARK    4  A    between atoms: C_8  and  C_9
REMARK    5  A    between atoms: C_8  and  C_11
REMARK    6  A    between atoms: C_9  and  O_10
REMARK    7  A    between atoms: C_11  and  O_12
REMARK                            x       y       z     vdW  Elec       q    Type
REMARK                         _______ _______ _______ _____ _____    ______ ____
ROOT
ATOM      1  C   UNL     1       8.498   2.555  24.037  0.00  0.00    +0.201 A 
ATOM      2  N   UNL     1       9.833   2.282  23.870  0.00  0.00    -0.315 N 
ATOM      3  C   UNL     1      10.464   3.476  23.664  0.00  0.00    +0.169 A 
ATOM      4  N   UNL     1      11.789   3.672  23.452  0.00  0.00    -0.196 NA
ATOM      5  C   UNL     1      12.106   4.930  23.296  0.00  0.00    +0.195 A 
ATOM      6  N   UNL     1      13.396   5.278  23.056  0.00  0.00    -0.329 N 
ATOM      7  H   UNL     1      13.708   6.195  23.345  0.00  0.00    +0.145 HD
ATOM      8  H   UNL     1      14.059   4.537  23.258  0.00  0.00    +0.145 HD
ATOM      9  N   UNL     1      11.199   5.967  23.358  0.00  0.00    -0.293 N 
ATOM     10  H   UNL     1      11.497   6.914  23.206  0.00  0.00    +0.172 HD
ATOM     11  C   UNL     1       9.831   5.809  23.560  0.00  0.00    +0.280 A 
ATOM     12  O   UNL     1       9.068   6.767  23.584  0.00  0.00    -0.265 OA
ATOM     13  C   UNL     1       9.463   4.420  23.725  0.00  0.00    +0.172 A 
ATOM     14  N   UNL     1       8.239   3.845  23.946  0.00  0.00    -0.229 NA
ENDROOT
BRANCH   2  15
ATOM     15  C   UNL     1      10.451   0.981  23.993  0.00  0.00    +0.125 C 
BRANCH  15  16
ATOM     16  C   UNL     1       9.548  -0.109  24.581  0.00  0.00    +0.029 C 
BRANCH  16  17
ATOM     17  C   UNL     1       9.116  -1.223  23.601  0.00  0.00    +0.042 C 
BRANCH  17  18
ATOM     18  C   UNL     1      10.220  -2.295  23.517  0.00  0.00    +0.161 C 
BRANCH  18  19
ATOM     19  O   UNL     1       9.854  -3.486  24.207  0.00  0.00    -0.395 OA
ATOM     20  H   UNL     1      10.342  -4.216  23.773  0.00  0.00    +0.209 HD
ENDBRANCH  18  19
ENDBRANCH  17  18
BRANCH  17  21
ATOM     21  C   UNL     1       8.777  -0.702  22.196  0.00  0.00    +0.161 C 
BRANCH  21  22
ATOM     22  O   UNL     1       9.748  -1.111  21.239  0.00  0.00    -0.395 OA
ATOM     23  H   UNL     1       9.306  -1.697  20.600  0.00  0.00    +0.209 HD
ENDBRANCH  21  22
ENDBRANCH  17  21
ENDBRANCH  16  17
ENDBRANCH  15  16
ENDBRANCH   2  15
TORSDOF 7
ENDMDL
