MODEL 1
REMARK VINA RESULT:      -5.9      0.000      0.000
REMARK  Name = 
REMARK  4 active torsions:
REMARK  status: ('A' for Active; 'I' for Inactive)
REMARK    1  A    between atoms: C3*_2  and  O3*_20
REMARK    2  A    between atoms: C4*_4  and  C5*_18
REMARK    3  A    between atoms: C1*_7  and  N_9
REMARK    4  A    between atoms: C5*_18  and  O5*_19
REMARK                            x       y       z     vdW  Elec       q    Type
REMARK                         _______ _______ _______ _____ _____    ______ ____
ROOT
ATOM      1  C2* UNL     1       8.687  -4.053  24.507  0.00  0.00    +0.088 C 
ATOM      2  C1* UNL     1       8.002  -4.678  23.294  0.00  0.00    +0.226 C 
ATOM      3  O4* UNL     1       7.758  -3.618  22.343  0.00  0.00    -0.348 OA
ATOM      4  C4* UNL     1       8.243  -2.391  22.927  0.00  0.00    +0.175 C 
ATOM      5  C3* UNL     1       9.308  -2.806  23.925  0.00  0.00    +0.150 C 
ENDROOT
BRANCH   2   6
ATOM      6  N   UNL     1       6.751  -5.339  23.652  0.00  0.00    -0.273 N 
ATOM      7  C   UNL     1       6.113  -6.067  22.656  0.00  0.00    +0.331 A 
ATOM      8  O   UNL     1       6.522  -6.152  21.501  0.00  0.00    -0.246 OA
ATOM      9  N   UNL     1       4.983  -6.735  23.045  0.00  0.00    -0.274 N 
ATOM     10  H   UNL     1       4.537  -7.308  22.345  0.00  0.00    +0.173 HD
ATOM     11  C   UNL     1       4.542  -6.891  24.332  0.00  0.00    +0.267 A 
ATOM     12  O   UNL     1       3.644  -7.681  24.600  0.00  0.00    -0.267 OA
ATOM     13  C   UNL     1       5.245  -6.076  25.360  0.00  0.00    +0.094 A 
ATOM     14  I   UNL     1       4.633  -6.120  27.308  0.00  0.00    -0.037 I 
ATOM     15  C   UNL     1       6.302  -5.357  24.962  0.00  0.00    +0.113 A 
ENDBRANCH   2   6
BRANCH   5  16
ATOM     16  O3* UNL     1       9.567  -1.822  24.910  0.00  0.00    -0.389 OA
ATOM     17  H3* UNL     1       9.257  -2.143  25.775  0.00  0.00    +0.210 HD
ENDBRANCH   5  16
BRANCH   4  18
ATOM     18  C5* UNL     1       8.736  -1.457  21.832  0.00  0.00    +0.190 C 
BRANCH  18  19
ATOM     19  O5* UNL     1      10.152  -1.609  21.694  0.00  0.00    -0.392 OA
ATOM     20  H5* UNL     1      10.442  -2.145  22.458  0.00  0.00    +0.210 HD
ENDBRANCH  18  19
ENDBRANCH   4  18
TORSDOF 4
ENDMDL
MODEL 2
REMARK VINA RESULT:      -5.9      3.030      3.417
REMARK  Name = 
REMARK  4 active torsions:
REMARK  status: ('A' for Active; 'I' for Inactive)
REMARK    1  A    between atoms: C3*_2  and  O3*_20
REMARK    2  A    between atoms: C4*_4  and  C5*_18
REMARK    3  A    between atoms: C1*_7  and  N_9
REMARK    4  A    between atoms: C5*_18  and  O5*_19
REMARK                            x       y       z     vdW  Elec       q    Type
REMARK                         _______ _______ _______ _____ _____    ______ ____
ROOT
ATOM      1  C2* UNL     1       9.482  -0.959  25.005  0.00  0.00    +0.088 C 
ATOM      2  C1* UNL     1       9.652  -2.352  24.401  0.00  0.00    +0.226 C 
ATOM      3  O4* UNL     1       9.295  -2.261  23.004  0.00  0.00    -0.348 OA
ATOM      4  C4* UNL     1       8.905  -0.897  22.743  0.00  0.00    +0.175 C 
ATOM      5  C3* UNL     1       9.606  -0.062  23.798  0.00  0.00    +0.150 C 
ENDROOT
BRANCH   2   6
ATOM      6  N   UNL     1       8.823  -3.345  25.076  0.00  0.00    -0.273 N 
ATOM      7  C   UNL     1       9.376  -4.605  25.265  0.00  0.00    +0.331 A 
ATOM      8  O   UNL     1      10.492  -4.930  24.869  0.00  0.00    -0.246 OA
ATOM      9  N   UNL     1       8.602  -5.491  25.966  0.00  0.00    -0.274 N 
ATOM     10  H   UNL     1       9.010  -6.394  26.154  0.00  0.00    +0.173 HD
ATOM     11  C   UNL     1       7.443  -5.194  26.633  0.00  0.00    +0.267 A 
ATOM     12  O   UNL     1       6.936  -6.000  27.406  0.00  0.00    -0.267 OA
ATOM     13  C   UNL     1       6.881  -3.840  26.383  0.00  0.00    +0.094 A 
ATOM     14  I   UNL     1       5.102  -3.289  27.223  0.00  0.00    -0.037 I 
ATOM     15  C   UNL     1       7.601  -3.001  25.627  0.00  0.00    +0.113 A 
ENDBRANCH   2   6
BRANCH   5  16
ATOM     16  O3* UNL     1       9.004   1.203  24.002  0.00  0.00    -0.389 OA
ATOM     17  H3* UNL     1       9.352   1.598  24.821  0.00  0.00    +0.210 HD
ENDBRANCH   5  16
BRANCH   4  18
ATOM     18  C5* UNL     1       9.255  -0.524  21.310  0.00  0.00    +0.190 C 
BRANCH  18  19
ATOM     19  O5* UNL     1       9.164   0.896  21.163  0.00  0.00    -0.392 OA
ATOM     20  H5* UNL     1       8.536   1.053  20.432  0.00  0.00    +0.210 HD
ENDBRANCH  18  19
ENDBRANCH   4  18
TORSDOF 4
ENDMDL
MODEL 3
REMARK VINA RESULT:      -5.8      3.031      6.079
REMARK  Name = 
REMARK  4 active torsions:
REMARK  status: ('A' for Active; 'I' for Inactive)
REMARK    1  A    between atoms: C3*_2  and  O3*_20
REMARK    2  A    between atoms: C4*_4  and  C5*_18
REMARK    3  A    between atoms: C1*_7  and  N_9
REMARK    4  A    between atoms: C5*_18  and  O5*_19
REMARK                            x       y       z     vdW  Elec       q    Type
REMARK                         _______ _______ _______ _____ _____    ______ ____
ROOT
ATOM      1  C2* UNL     1       7.418  -5.162  22.603  0.00  0.00    +0.088 C 
ATOM      2  C1* UNL     1       7.489  -4.815  24.089  0.00  0.00    +0.226 C 
ATOM      3  O4* UNL     1       6.151  -4.923  24.621  0.00  0.00    -0.348 OA
ATOM      4  C4* UNL     1       5.280  -5.299  23.534  0.00  0.00    +0.175 C 
ATOM      5  C3* UNL     1       6.167  -6.003  22.524  0.00  0.00    +0.150 C 
ENDROOT
BRANCH   2   6
ATOM      6  N   UNL     1       8.020  -3.474  24.312  0.00  0.00    -0.273 N 
ATOM      7  C   UNL     1       8.343  -3.132  25.619  0.00  0.00    +0.331 A 
ATOM      8  O   UNL     1       8.175  -3.874  26.583  0.00  0.00    -0.246 OA
ATOM      9  N   UNL     1       8.907  -1.896  25.784  0.00  0.00    -0.274 N 
ATOM     10  H   UNL     1       9.192  -1.653  26.720  0.00  0.00    +0.173 HD
ATOM     11  C   UNL     1       9.334  -1.065  24.781  0.00  0.00    +0.267 A 
ATOM     12  O   UNL     1      10.018  -0.078  25.028  0.00  0.00    -0.267 OA
ATOM     13  C   UNL     1       8.948  -1.465  23.401  0.00  0.00    +0.094 A 
ATOM     14  I   UNL     1       9.421  -0.274  21.811  0.00  0.00    -0.037 I 
ATOM     15  C   UNL     1       8.321  -2.638  23.250  0.00  0.00    +0.113 A 
ENDBRANCH   2   6
BRANCH   5  16
ATOM     16  O3* UNL     1       5.618  -6.032  21.220  0.00  0.00    -0.389 OA
ATOM     17  H3* UNL     1       4.728  -5.637  21.236  0.00  0.00    +0.210 HD
ENDBRANCH   5  16
BRANCH   4  18
ATOM     18  C5* UNL     1       4.130  -6.145  24.061  0.00  0.00    +0.190 C 
BRANCH  18  19
ATOM     19  O5* UNL     1       4.400  -7.521  23.780  0.00  0.00    -0.392 OA
ATOM     20  H5* UNL     1       4.330  -7.991  24.633  0.00  0.00    +0.210 HD
ENDBRANCH  18  19
ENDBRANCH   4  18
TORSDOF 4
ENDMDL
MODEL 4
REMARK VINA RESULT:      -5.7      2.926      6.048
REMARK  Name = 
REMARK  4 active torsions:
REMARK  status: ('A' for Active; 'I' for Inactive)
REMARK    1  A    between atoms: C3*_2  and  O3*_20
REMARK    2  A    between atoms: C4*_4  and  C5*_18
REMARK    3  A    between atoms: C1*_7  and  N_9
REMARK    4  A    between atoms: C5*_18  and  O5*_19
REMARK                            x       y       z     vdW  Elec       q    Type
REMARK                         _______ _______ _______ _____ _____    ______ ____
ROOT
ATOM      1  C2* UNL     1       6.002  -4.291  22.501  0.00  0.00    +0.088 C 
ATOM      2  C1* UNL     1       7.218  -4.532  23.393  0.00  0.00    +0.226 C 
ATOM      3  O4* UNL     1       6.750  -5.194  24.589  0.00  0.00    -0.348 OA
ATOM      4  C4* UNL     1       5.320  -5.347  24.470  0.00  0.00    +0.175 C 
ATOM      5  C3* UNL     1       5.032  -5.343  22.980  0.00  0.00    +0.150 C 
ENDROOT
BRANCH   2   6
ATOM      6  N   UNL     1       7.902  -3.289  23.733  0.00  0.00    -0.273 N 
ATOM      7  C   UNL     1       9.187  -3.396  24.249  0.00  0.00    +0.331 A 
ATOM      8  O   UNL     1       9.754  -4.465  24.462  0.00  0.00    -0.246 OA
ATOM      9  N   UNL     1       9.829  -2.210  24.487  0.00  0.00    -0.274 N 
ATOM     10  H   UNL     1      10.780  -2.272  24.815  0.00  0.00    +0.173 HD
ATOM     11  C   UNL     1       9.395  -0.968  24.103  0.00  0.00    +0.267 A 
ATOM     12  O   UNL     1      10.134   0.007  24.171  0.00  0.00    -0.267 OA
ATOM     13  C   UNL     1       8.005  -0.903  23.575  0.00  0.00    +0.094 A 
ATOM     14  I   UNL     1       7.180   0.893  23.060  0.00  0.00    -0.037 I 
ATOM     15  C   UNL     1       7.348  -2.059  23.419  0.00  0.00    +0.113 A 
ENDBRANCH   2   6
BRANCH   5  16
ATOM     16  O3* UNL     1       3.689  -5.019  22.670  0.00  0.00    -0.389 OA
ATOM     17  H3* UNL     1       3.490  -4.124  22.998  0.00  0.00    +0.210 HD
ENDBRANCH   5  16
BRANCH   4  18
ATOM     18  C5* UNL     1       4.872  -6.608  25.194  0.00  0.00    +0.190 C 
BRANCH  18  19
ATOM     19  O5* UNL     1       4.376  -7.544  24.234  0.00  0.00    -0.392 OA
ATOM     20  H5* UNL     1       3.490  -7.809  24.547  0.00  0.00    +0.210 HD
ENDBRANCH  18  19
ENDBRANCH   4  18
TORSDOF 4
ENDMDL
MODEL 5
REMARK VINA RESULT:      -5.6      5.523      8.337
REMARK  Name = 
REMARK  4 active torsions:
REMARK  status: ('A' for Active; 'I' for Inactive)
REMARK    1  A    between atoms: C3*_2  and  O3*_20
REMARK    2  A    between atoms: C4*_4  and  C5*_18
REMARK    3  A    between atoms: C1*_7  and  N_9
REMARK    4  A    between atoms: C5*_18  and  O5*_19
REMARK                            x       y       z     vdW  Elec       q    Type
REMARK                         _______ _______ _______ _____ _____    ______ ____
ROOT
ATOM      1  C2* UNL     1      10.179   0.381  22.211  0.00  0.00    +0.088 C 
ATOM      2  C1* UNL     1      10.072   1.038  23.587  0.00  0.00    +0.226 C 
ATOM      3  O4* UNL     1       9.417   0.096  24.463  0.00  0.00    -0.348 OA
ATOM      4  C4* UNL     1       9.110  -1.080  23.686  0.00  0.00    +0.175 C 
ATOM      5  C3* UNL     1      10.110  -1.089  22.545  0.00  0.00    +0.150 C 
ENDROOT
BRANCH   2   6
ATOM      6  N   UNL     1       9.328   2.292  23.537  0.00  0.00    -0.273 N 
ATOM      7  C   UNL     1      10.070   3.465  23.485  0.00  0.00    +0.331 A 
ATOM      8  O   UNL     1      11.297   3.502  23.513  0.00  0.00    -0.246 OA
ATOM      9  N   UNL     1       9.343   4.619  23.364  0.00  0.00    -0.274 N 
ATOM     10  H   UNL     1       9.869   5.475  23.275  0.00  0.00    +0.173 HD
ATOM     11  C   UNL     1       7.998   4.701  23.116  0.00  0.00    +0.267 A 
ATOM     12  O   UNL     1       7.477   5.769  22.813  0.00  0.00    -0.267 OA
ATOM     13  C   UNL     1       7.245   3.421  23.203  0.00  0.00    +0.094 A 
ATOM     14  I   UNL     1       5.216   3.399  22.962  0.00  0.00    -0.037 I 
ATOM     15  C   UNL     1       7.950   2.301  23.404  0.00  0.00    +0.113 A 
ENDBRANCH   2   6
BRANCH   5  16
ATOM     16  O3* UNL     1       9.695  -1.873  21.442  0.00  0.00    -0.389 OA
ATOM     17  H3* UNL     1       9.447  -1.288  20.705  0.00  0.00    +0.210 HD
ENDBRANCH   5  16
BRANCH   4  18
ATOM     18  C5* UNL     1       9.157  -2.315  24.575  0.00  0.00    +0.190 C 
BRANCH  18  19
ATOM     19  O5* UNL     1      10.110  -3.237  24.038  0.00  0.00    -0.392 OA
ATOM     20  H5* UNL     1      10.485  -2.808  23.244  0.00  0.00    +0.210 HD
ENDBRANCH  18  19
ENDBRANCH   4  18
TORSDOF 4
ENDMDL
MODEL 6
REMARK VINA RESULT:      -5.6      3.579      6.306
REMARK  Name = 
REMARK  4 active torsions:
REMARK  status: ('A' for Active; 'I' for Inactive)
REMARK    1  A    between atoms: C3*_2  and  O3*_20
REMARK    2  A    between atoms: C4*_4  and  C5*_18
REMARK    3  A    between atoms: C1*_7  and  N_9
REMARK    4  A    between atoms: C5*_18  and  O5*_19
REMARK                            x       y       z     vdW  Elec       q    Type
REMARK                         _______ _______ _______ _____ _____    ______ ____
ROOT
ATOM      1  C2* UNL     1       7.993  -3.758  23.316  0.00  0.00    +0.088 C 
ATOM      2  C1* UNL     1       9.014  -2.886  24.046  0.00  0.00    +0.226 C 
ATOM      3  O4* UNL     1       8.733  -2.987  25.459  0.00  0.00    -0.348 OA
ATOM      4  C4* UNL     1       7.591  -3.855  25.615  0.00  0.00    +0.175 C 
ATOM      5  C3* UNL     1       7.581  -4.742  24.383  0.00  0.00    +0.150 C 
ENDROOT
BRANCH   2   6
ATOM      6  N   UNL     1       8.954  -1.494  23.612  0.00  0.00    -0.273 N 
ATOM      7  C   UNL     1       9.891  -1.085  22.673  0.00  0.00    +0.331 A 
ATOM      8  O   UNL     1      10.774  -1.812  22.223  0.00  0.00    -0.246 OA
ATOM      9  N   UNL     1       9.762   0.205  22.232  0.00  0.00    -0.274 N 
ATOM     10  H   UNL     1      10.405   0.501  21.513  0.00  0.00    +0.173 HD
ATOM     11  C   UNL     1       8.710   1.043  22.493  0.00  0.00    +0.267 A 
ATOM     12  O   UNL     1       8.579   2.099  21.884  0.00  0.00    -0.267 OA
ATOM     13  C   UNL     1       7.743   0.568  23.519  0.00  0.00    +0.094 A 
ATOM     14  I   UNL     1       6.182   1.753  24.093  0.00  0.00    -0.037 I 
ATOM     15  C   UNL     1       7.920  -0.665  24.012  0.00  0.00    +0.113 A 
ENDBRANCH   2   6
BRANCH   5  16
ATOM     16  O3* UNL     1       6.317  -5.324  24.122  0.00  0.00    -0.389 OA
ATOM     17  H3* UNL     1       5.668  -4.986  24.765  0.00  0.00    +0.210 HD
ENDBRANCH   5  16
BRANCH   4  18
ATOM     18  C5* UNL     1       7.691  -4.610  26.933  0.00  0.00    +0.190 C 
BRANCH  18  19
ATOM     19  O5* UNL     1       8.086  -5.958  26.667  0.00  0.00    -0.392 OA
ATOM     20  H5* UNL     1       8.496  -5.951  25.781  0.00  0.00    +0.210 HD
ENDBRANCH  18  19
ENDBRANCH   4  18
TORSDOF 4
ENDMDL
MODEL 7
REMARK VINA RESULT:      -5.5      3.025      5.845
REMARK  Name = 
REMARK  4 active torsions:
REMARK  status: ('A' for Active; 'I' for Inactive)
REMARK    1  A    between atoms: C3*_2  and  O3*_20
REMARK    2  A    between atoms: C4*_4  and  C5*_18
REMARK    3  A    between atoms: C1*_7  and  N_9
REMARK    4  A    between atoms: C5*_18  and  O5*_19
REMARK                            x       y       z     vdW  Elec       q    Type
REMARK                         _______ _______ _______ _____ _____    ______ ____
ROOT
ATOM      1  C2* UNL     1       5.897  -2.631  22.619  0.00  0.00    +0.088 C 
ATOM      2  C1* UNL     1       7.381  -2.749  22.276  0.00  0.00    +0.226 C 
ATOM      3  O4* UNL     1       7.719  -4.153  22.311  0.00  0.00    -0.348 OA
ATOM      4  C4* UNL     1       6.527  -4.879  22.671  0.00  0.00    +0.175 C 
ATOM      5  C3* UNL     1       5.367  -3.995  22.251  0.00  0.00    +0.150 C 
ENDROOT
BRANCH   2   6
ATOM      6  N   UNL     1       8.218  -1.999  23.207  0.00  0.00    -0.273 N 
ATOM      7  C   UNL     1       9.467  -1.598  22.750  0.00  0.00    +0.331 A 
ATOM      8  O   UNL     1       9.908  -1.867  21.636  0.00  0.00    -0.246 OA
ATOM      9  N   UNL     1      10.197  -0.834  23.621  0.00  0.00    -0.274 N 
ATOM     10  H   UNL     1      11.085  -0.494  23.284  0.00  0.00    +0.173 HD
ATOM     11  C   UNL     1       9.742  -0.295  24.795  0.00  0.00    +0.267 A 
ATOM     12  O   UNL     1      10.398   0.548  25.398  0.00  0.00    -0.267 OA
ATOM     13  C   UNL     1       8.408  -0.770  25.251  0.00  0.00    +0.094 A 
ATOM     14  I   UNL     1       7.642  -0.137  27.036  0.00  0.00    -0.037 I 
ATOM     15  C   UNL     1       7.729  -1.585  24.434  0.00  0.00    +0.113 A 
ENDBRANCH   2   6
BRANCH   5  16
ATOM     16  O3* UNL     1       4.157  -4.302  22.920  0.00  0.00    -0.389 OA
ATOM     17  H3* UNL     1       4.334  -4.408  23.872  0.00  0.00    +0.210 HD
ENDBRANCH   5  16
BRANCH   4  18
ATOM     18  C5* UNL     1       6.540  -6.253  22.017  0.00  0.00    +0.190 C 
BRANCH  18  19
ATOM     19  O5* UNL     1       5.467  -6.329  21.074  0.00  0.00    -0.392 OA
ATOM     20  H5* UNL     1       5.353  -5.425  20.720  0.00  0.00    +0.210 HD
ENDBRANCH  18  19
ENDBRANCH   4  18
TORSDOF 4
ENDMDL
MODEL 8
REMARK VINA RESULT:      -5.5      3.256      4.083
REMARK  Name = 
REMARK  4 active torsions:
REMARK  status: ('A' for Active; 'I' for Inactive)
REMARK    1  A    between atoms: C3*_2  and  O3*_20
REMARK    2  A    between atoms: C4*_4  and  C5*_18
REMARK    3  A    between atoms: C1*_7  and  N_9
REMARK    4  A    between atoms: C5*_18  and  O5*_19
REMARK                            x       y       z     vdW  Elec       q    Type
REMARK                         _______ _______ _______ _____ _____    ______ ____
ROOT
ATOM      1  C2* UNL     1       9.609   0.121  25.053  0.00  0.00    +0.088 C 
ATOM      2  C1* UNL     1       9.417  -1.118  24.181  0.00  0.00    +0.226 C 
ATOM      3  O4* UNL     1       8.858  -0.678  22.924  0.00  0.00    -0.348 OA
ATOM      4  C4* UNL     1       8.687   0.753  23.002  0.00  0.00    +0.175 C 
ATOM      5  C3* UNL     1       9.695   1.229  24.032  0.00  0.00    +0.150 C 
ENDROOT
BRANCH   2   6
ATOM      6  N   UNL     1       8.542  -2.101  24.812  0.00  0.00    -0.273 N 
ATOM      7  C   UNL     1       8.986  -3.417  24.839  0.00  0.00    +0.331 A 
ATOM      8  O   UNL     1      10.042  -3.795  24.336  0.00  0.00    -0.246 OA
ATOM      9  N   UNL     1       8.178  -4.300  25.503  0.00  0.00    -0.274 N 
ATOM     10  H   UNL     1       8.511  -5.249  25.573  0.00  0.00    +0.173 HD
ATOM     11  C   UNL     1       7.094  -3.975  26.275  0.00  0.00    +0.267 A 
ATOM     12  O   UNL     1       6.563  -4.809  27.000  0.00  0.00    -0.267 OA
ATOM     13  C   UNL     1       6.646  -2.558  26.198  0.00  0.00    +0.094 A 
ATOM     14  I   UNL     1       4.981  -1.946  27.210  0.00  0.00    -0.037 I 
ATOM     15  C   UNL     1       7.393  -1.712  25.479  0.00  0.00    +0.113 A 
ENDBRANCH   2   6
BRANCH   5  16
ATOM     16  O3* UNL     1       9.379   2.495  24.581  0.00  0.00    -0.389 OA
ATOM     17  H3* UNL     1       9.318   2.419  25.550  0.00  0.00    +0.210 HD
ENDBRANCH   5  16
BRANCH   4  18
ATOM     18  C5* UNL     1       8.859   1.370  21.622  0.00  0.00    +0.190 C 
BRANCH  18  19
ATOM     19  O5* UNL     1      10.072   2.127  21.599  0.00  0.00    -0.392 OA
ATOM     20  H5* UNL     1      10.792   1.491  21.773  0.00  0.00    +0.210 HD
ENDBRANCH  18  19
ENDBRANCH   4  18
TORSDOF 4
ENDMDL
MODEL 9
REMARK VINA RESULT:      -5.5      2.221      2.700
REMARK  Name = 
REMARK  4 active torsions:
REMARK  status: ('A' for Active; 'I' for Inactive)
REMARK    1  A    between atoms: C3*_2  and  O3*_20
REMARK    2  A    between atoms: C4*_4  and  C5*_18
REMARK    3  A    between atoms: C1*_7  and  N_9
REMARK    4  A    between atoms: C5*_18  and  O5*_19
REMARK                            x       y       z     vdW  Elec       q    Type
REMARK                         _______ _______ _______ _____ _____    ______ ____
ROOT
ATOM      1  C2* UNL     1       9.325  -1.957  22.707  0.00  0.00    +0.088 C 
ATOM      2  C1* UNL     1       7.887  -2.067  22.201  0.00  0.00    +0.226 C 
ATOM      3  O4* UNL     1       7.292  -0.755  22.308  0.00  0.00    -0.348 OA
ATOM      4  C4* UNL     1       8.287   0.129  22.865  0.00  0.00    +0.175 C 
ATOM      5  C3* UNL     1       9.627  -0.491  22.515  0.00  0.00    +0.150 C 
ENDROOT
BRANCH   2   6
ATOM      6  N   UNL     1       7.113  -3.042  22.963  0.00  0.00    -0.273 N 
ATOM      7  C   UNL     1       6.047  -3.648  22.312  0.00  0.00    +0.331 A 
ATOM      8  O   UNL     1       5.706  -3.385  21.161  0.00  0.00    -0.246 OA
ATOM      9  N   UNL     1       5.387  -4.611  23.028  0.00  0.00    -0.274 N 
ATOM     10  H   UNL     1       4.642  -5.095  22.551  0.00  0.00    +0.173 HD
ATOM     11  C   UNL     1       5.789  -5.139  24.227  0.00  0.00    +0.267 A 
ATOM     12  O   UNL     1       5.253  -6.142  24.686  0.00  0.00    -0.267 OA
ATOM     13  C   UNL     1       6.923  -4.443  24.893  0.00  0.00    +0.094 A 
ATOM     14  I   UNL     1       7.567  -5.049  26.735  0.00  0.00    -0.037 I 
ATOM     15  C   UNL     1       7.515  -3.445  24.225  0.00  0.00    +0.113 A 
ENDBRANCH   2   6
BRANCH   5  16
ATOM     16  O3* UNL     1      10.684  -0.046  23.345  0.00  0.00    -0.389 OA
ATOM     17  H3* UNL     1      10.327   0.204  24.216  0.00  0.00    +0.210 HD
ENDBRANCH   5  16
BRANCH   4  18
ATOM     18  C5* UNL     1       8.086   1.538  22.327  0.00  0.00    +0.190 C 
BRANCH  18  19
ATOM     19  O5* UNL     1       9.191   1.876  21.485  0.00  0.00    -0.392 OA
ATOM     20  H5* UNL     1       9.996   1.627  21.980  0.00  0.00    +0.210 HD
ENDBRANCH  18  19
ENDBRANCH   4  18
TORSDOF 4
ENDMDL
