MODEL 1
REMARK VINA RESULT:      -6.1      0.000      0.000
REMARK  Name = 
REMARK  6 active torsions:
REMARK  status: ('A' for Active; 'I' for Inactive)
REMARK    1  A    between atoms: C_3  and  C_19
REMARK    2  A    between atoms: N_5  and  C1*_6
REMARK    3  A    between atoms: C2*_8  and  O2*_18
REMARK    4  A    between atoms: C3*_10  and  O3*_17
REMARK    5  A    between atoms: C4*_12  and  C5*_15
REMARK    6  A    between atoms: C5*_15  and  O5*_16
REMARK                            x       y       z     vdW  Elec       q    Type
REMARK                         _______ _______ _______ _____ _____    ______ ____
ROOT
ATOM      1  C1* UNL     1       9.829  -1.282  22.857  0.00  0.00    +0.270 C 
ATOM      2  O4* UNL     1       9.044  -0.620  21.831  0.00  0.00    -0.344 OA
ATOM      3  C4* UNL     1       8.335   0.487  22.441  0.00  0.00    +0.177 C 
ATOM      4  C3* UNL     1       8.687   0.479  23.931  0.00  0.00    +0.178 C 
ATOM      5  C2* UNL     1       9.999  -0.286  24.001  0.00  0.00    +0.196 C 
ENDROOT
BRANCH   1   7
ATOM      6  C   UNL     1       7.999  -3.053  22.863  0.00  0.00    +0.223 A 
ATOM      7  N   UNL     1       9.170  -2.511  23.285  0.00  0.00    -0.220 N 
ATOM      8  N   UNL     1       9.705  -3.245  24.286  0.00  0.00    -0.142 NA
ATOM      9  C   UNL     1       8.792  -4.223  24.448  0.00  0.00    +0.236 A 
ATOM     10  N   UNL     1       7.715  -4.119  23.577  0.00  0.00    -0.211 NA
BRANCH   9  11
ATOM     11  C   UNL     1       8.891  -5.294  25.461  0.00  0.00    +0.281 C 
ATOM     12  N   UNL     1      10.164  -5.780  25.635  0.00  0.00    -0.323 N 
ATOM     13  H   UNL     1      10.316  -6.527  26.295  0.00  0.00    +0.145 HD
ATOM     14  H   UNL     1      10.926  -5.408  25.082  0.00  0.00    +0.145 HD
ATOM     15  O   UNL     1       7.951  -5.748  26.107  0.00  0.00    -0.267 OA
ENDBRANCH   9  11
ENDBRANCH   1   7
BRANCH   4  16
ATOM     16  O3* UNL     1       8.756   1.759  24.533  0.00  0.00    -0.386 OA
ATOM     17  H3* UNL     1       9.133   2.350  23.846  0.00  0.00    +0.210 HD
ENDBRANCH   4  16
BRANCH   5  18
ATOM     18  O2* UNL     1      11.098   0.605  23.758  0.00  0.00    -0.385 OA
ATOM     19  H2* UNL     1      11.368   0.980  24.616  0.00  0.00    +0.210 HD
ENDBRANCH   5  18
BRANCH   3  20
ATOM     20  C5* UNL     1       8.596   1.794  21.679  0.00  0.00    +0.190 C 
BRANCH  20  21
ATOM     21  O5* UNL     1       9.974   2.131  21.587  0.00  0.00    -0.392 OA
ATOM     22  H5* UNL     1      10.467   1.481  22.118  0.00  0.00    +0.210 HD
ENDBRANCH  20  21
ENDBRANCH   3  20
TORSDOF 6
ENDMDL
MODEL 2
REMARK VINA RESULT:      -5.8      1.309      1.775
REMARK  Name = 
REMARK  6 active torsions:
REMARK  status: ('A' for Active; 'I' for Inactive)
REMARK    1  A    between atoms: C_3  and  C_19
REMARK    2  A    between atoms: N_5  and  C1*_6
REMARK    3  A    between atoms: C2*_8  and  O2*_18
REMARK    4  A    between atoms: C3*_10  and  O3*_17
REMARK    5  A    between atoms: C4*_12  and  C5*_15
REMARK    6  A    between atoms: C5*_15  and  O5*_16
REMARK                            x       y       z     vdW  Elec       q    Type
REMARK                         _______ _______ _______ _____ _____    ______ ____
ROOT
ATOM      1  C1* UNL     1       8.134  -2.152  22.578  0.00  0.00    +0.270 C 
ATOM      2  O4* UNL     1       7.402  -0.899  22.551  0.00  0.00    -0.344 OA
ATOM      3  C4* UNL     1       8.237   0.130  23.138  0.00  0.00    +0.177 C 
ATOM      4  C3* UNL     1       9.541  -0.544  23.574  0.00  0.00    +0.178 C 
ATOM      5  C2* UNL     1       9.613  -1.802  22.724  0.00  0.00    +0.196 C 
ENDROOT
BRANCH   1   7
ATOM      6  C   UNL     1       6.387  -3.185  24.115  0.00  0.00    +0.223 A 
ATOM      7  N   UNL     1       7.654  -2.998  23.665  0.00  0.00    -0.220 N 
ATOM      8  N   UNL     1       8.539  -3.681  24.425  0.00  0.00    -0.142 NA
ATOM      9  C   UNL     1       7.744  -4.255  25.349  0.00  0.00    +0.236 A 
ATOM     10  N   UNL     1       6.398  -3.954  25.181  0.00  0.00    -0.211 NA
BRANCH   9  11
ATOM     11  C   UNL     1       8.233  -5.104  26.455  0.00  0.00    +0.281 C 
ATOM     12  N   UNL     1       9.580  -4.989  26.691  0.00  0.00    -0.323 N 
ATOM     13  H   UNL     1      10.000  -5.550  27.418  0.00  0.00    +0.145 HD
ATOM     14  H   UNL     1      10.143  -4.372  26.119  0.00  0.00    +0.145 HD
ATOM     15  O   UNL     1       7.540  -5.864  27.125  0.00  0.00    -0.267 OA
ENDBRANCH   9  11
ENDBRANCH   1   7
BRANCH   4  16
ATOM     16  O3* UNL     1      10.696   0.269  23.464  0.00  0.00    -0.386 OA
ATOM     17  H3* UNL     1      11.245  -0.153  22.768  0.00  0.00    +0.210 HD
ENDBRANCH   4  16
BRANCH   5  18
ATOM     18  O2* UNL     1      10.207  -1.501  21.452  0.00  0.00    -0.385 OA
ATOM     19  H2* UNL     1      10.927  -2.142  21.305  0.00  0.00    +0.210 HD
ENDBRANCH   5  18
BRANCH   3  20
ATOM     20  C5* UNL     1       8.365   1.337  22.198  0.00  0.00    +0.190 C 
BRANCH  20  21
ATOM     21  O5* UNL     1       9.078   1.049  21.002  0.00  0.00    -0.392 OA
ATOM     22  H5* UNL     1       9.306   1.901  20.589  0.00  0.00    +0.210 HD
ENDBRANCH  20  21
ENDBRANCH   3  20
TORSDOF 6
ENDMDL
MODEL 3
REMARK VINA RESULT:      -5.8      1.651      2.336
REMARK  Name = 
REMARK  6 active torsions:
REMARK  status: ('A' for Active; 'I' for Inactive)
REMARK    1  A    between atoms: C_3  and  C_19
REMARK    2  A    between atoms: N_5  and  C1*_6
REMARK    3  A    between atoms: C2*_8  and  O2*_18
REMARK    4  A    between atoms: C3*_10  and  O3*_17
REMARK    5  A    between atoms: C4*_12  and  C5*_15
REMARK    6  A    between atoms: C5*_15  and  O5*_16
REMARK                            x       y       z     vdW  Elec       q    Type
REMARK                         _______ _______ _______ _____ _____    ______ ____
ROOT
ATOM      1  C1* UNL     1       8.305  -0.119  22.761  0.00  0.00    +0.270 C 
ATOM      2  O4* UNL     1       8.019   0.919  23.734  0.00  0.00    -0.344 OA
ATOM      3  C4* UNL     1       9.049   1.934  23.635  0.00  0.00    +0.177 C 
ATOM      4  C3* UNL     1      10.035   1.470  22.559  0.00  0.00    +0.178 C 
ATOM      5  C2* UNL     1       9.233   0.493  21.714  0.00  0.00    +0.196 C 
ENDROOT
BRANCH   1   7
ATOM      6  C   UNL     1      10.002  -1.992  23.074  0.00  0.00    +0.223 A 
ATOM      7  N   UNL     1       8.897  -1.280  23.416  0.00  0.00    -0.220 N 
ATOM      8  N   UNL     1       8.288  -1.828  24.491  0.00  0.00    -0.142 NA
ATOM      9  C   UNL     1       9.064  -2.899  24.749  0.00  0.00    +0.236 A 
ATOM     10  N   UNL     1      10.134  -3.026  23.873  0.00  0.00    -0.211 NA
BRANCH   9  11
ATOM     11  C   UNL     1       8.809  -3.869  25.834  0.00  0.00    +0.281 C 
ATOM     12  N   UNL     1       9.624  -4.973  25.798  0.00  0.00    -0.323 N 
ATOM     13  H   UNL     1       9.503  -5.694  26.493  0.00  0.00    +0.145 HD
ATOM     14  H   UNL     1      10.313  -5.068  25.063  0.00  0.00    +0.145 HD
ATOM     15  O   UNL     1       7.953  -3.748  26.706  0.00  0.00    -0.267 OA
ENDBRANCH   9  11
ENDBRANCH   1   7
BRANCH   4  16
ATOM     16  O3* UNL     1      10.620   2.512  21.800  0.00  0.00    -0.386 OA
ATOM     17  H3* UNL     1      10.547   2.224  20.864  0.00  0.00    +0.210 HD
ENDBRANCH   4  16
BRANCH   5  18
ATOM     18  O2* UNL     1       8.491   1.205  20.713  0.00  0.00    -0.385 OA
ATOM     19  H2* UNL     1       7.957   1.882  21.168  0.00  0.00    +0.210 HD
ENDBRANCH   5  18
BRANCH   3  20
ATOM     20  C5* UNL     1       8.432   3.327  23.450  0.00  0.00    +0.190 C 
BRANCH  20  21
ATOM     21  O5* UNL     1       8.090   3.621  22.102  0.00  0.00    -0.392 OA
ATOM     22  H5* UNL     1       8.363   2.858  21.561  0.00  0.00    +0.210 HD
ENDBRANCH  20  21
ENDBRANCH   3  20
TORSDOF 6
ENDMDL
MODEL 4
REMARK VINA RESULT:      -5.7      2.174      5.907
REMARK  Name = 
REMARK  6 active torsions:
REMARK  status: ('A' for Active; 'I' for Inactive)
REMARK    1  A    between atoms: C_3  and  C_19
REMARK    2  A    between atoms: N_5  and  C1*_6
REMARK    3  A    between atoms: C2*_8  and  O2*_18
REMARK    4  A    between atoms: C3*_10  and  O3*_17
REMARK    5  A    between atoms: C4*_12  and  C5*_15
REMARK    6  A    between atoms: C5*_15  and  O5*_16
REMARK                            x       y       z     vdW  Elec       q    Type
REMARK                         _______ _______ _______ _____ _____    ______ ____
ROOT
ATOM      1  C1* UNL     1       9.387  -3.098  24.412  0.00  0.00    +0.270 C 
ATOM      2  O4* UNL     1       8.827  -2.758  25.708  0.00  0.00    -0.344 OA
ATOM      3  C4* UNL     1       7.471  -3.266  25.767  0.00  0.00    +0.177 C 
ATOM      4  C3* UNL     1       7.180  -3.928  24.418  0.00  0.00    +0.178 C 
ATOM      5  C2* UNL     1       8.555  -4.251  23.855  0.00  0.00    +0.196 C 
ENDROOT
BRANCH   1   7
ATOM      6  C   UNL     1       9.056  -1.850  22.218  0.00  0.00    +0.223 A 
ATOM      7  N   UNL     1       9.379  -1.934  23.534  0.00  0.00    -0.220 N 
ATOM      8  N   UNL     1       9.797  -0.737  24.002  0.00  0.00    -0.142 NA
ATOM      9  C   UNL     1       9.730   0.043  22.905  0.00  0.00    +0.236 A 
ATOM     10  N   UNL     1       9.278  -0.632  21.778  0.00  0.00    -0.211 NA
BRANCH   9  11
ATOM     11  C   UNL     1      10.115   1.469  22.874  0.00  0.00    +0.281 C 
ATOM     12  N   UNL     1       9.937   2.067  21.651  0.00  0.00    -0.323 N 
ATOM     13  H   UNL     1      10.193   3.036  21.538  0.00  0.00    +0.145 HD
ATOM     14  H   UNL     1       9.582   1.528  20.871  0.00  0.00    +0.145 HD
ATOM     15  O   UNL     1      10.565   2.102  23.824  0.00  0.00    -0.267 OA
ENDBRANCH   9  11
ENDBRANCH   1   7
BRANCH   4  16
ATOM     16  O3* UNL     1       6.325  -5.055  24.480  0.00  0.00    -0.386 OA
ATOM     17  H3* UNL     1       6.055  -5.125  25.421  0.00  0.00    +0.210 HD
ENDBRANCH   4  16
BRANCH   5  18
ATOM     18  O2* UNL     1       9.008  -5.515  24.364  0.00  0.00    -0.385 OA
ATOM     19  H2* UNL     1       9.704  -5.841  23.765  0.00  0.00    +0.210 HD
ENDBRANCH   5  18
BRANCH   3  20
ATOM     20  C5* UNL     1       7.262  -4.131  27.018  0.00  0.00    +0.190 C 
BRANCH  20  21
ATOM     21  O5* UNL     1       8.171  -5.220  27.112  0.00  0.00    -0.392 OA
ATOM     22  H5* UNL     1       9.055  -4.880  26.882  0.00  0.00    +0.210 HD
ENDBRANCH  20  21
ENDBRANCH   3  20
TORSDOF 6
ENDMDL
MODEL 5
REMARK VINA RESULT:      -5.6      1.653      2.213
REMARK  Name = 
REMARK  6 active torsions:
REMARK  status: ('A' for Active; 'I' for Inactive)
REMARK    1  A    between atoms: C_3  and  C_19
REMARK    2  A    between atoms: N_5  and  C1*_6
REMARK    3  A    between atoms: C2*_8  and  O2*_18
REMARK    4  A    between atoms: C3*_10  and  O3*_17
REMARK    5  A    between atoms: C4*_12  and  C5*_15
REMARK    6  A    between atoms: C5*_15  and  O5*_16
REMARK                            x       y       z     vdW  Elec       q    Type
REMARK                         _______ _______ _______ _____ _____    ______ ____
ROOT
ATOM      1  C1* UNL     1       9.681  -1.270  22.794  0.00  0.00    +0.270 C 
ATOM      2  O4* UNL     1       9.025  -0.469  21.777  0.00  0.00    -0.344 OA
ATOM      3  C4* UNL     1       8.359   0.641  22.429  0.00  0.00    +0.177 C 
ATOM      4  C3* UNL     1       8.600   0.489  23.933  0.00  0.00    +0.178 C 
ATOM      5  C2* UNL     1       9.843  -0.383  24.026  0.00  0.00    +0.196 C 
ENDROOT
BRANCH   1   7
ATOM      6  C   UNL     1       9.030  -3.362  24.093  0.00  0.00    +0.223 A 
ATOM      7  N   UNL     1       8.903  -2.472  23.075  0.00  0.00    -0.220 N 
ATOM      8  N   UNL     1       7.937  -2.862  22.214  0.00  0.00    -0.142 NA
ATOM      9  C   UNL     1       7.520  -4.024  22.755  0.00  0.00    +0.236 A 
ATOM     10  N   UNL     1       8.193  -4.360  23.922  0.00  0.00    -0.211 NA
BRANCH   9  11
ATOM     11  C   UNL     1       6.471  -4.884  22.169  0.00  0.00    +0.281 C 
ATOM     12  N   UNL     1       6.865  -6.184  21.967  0.00  0.00    -0.323 N 
ATOM     13  H   UNL     1       6.214  -6.834  21.552  0.00  0.00    +0.145 HD
ATOM     14  H   UNL     1       7.807  -6.469  22.203  0.00  0.00    +0.145 HD
ATOM     15  O   UNL     1       5.339  -4.516  21.868  0.00  0.00    -0.267 OA
ENDBRANCH   9  11
ENDBRANCH   1   7
BRANCH   4  16
ATOM     16  O3* UNL     1       8.722   1.708  24.643  0.00  0.00    -0.386 OA
ATOM     17  H3* UNL     1       8.434   2.405  24.014  0.00  0.00    +0.210 HD
ENDBRANCH   4  16
BRANCH   5  18
ATOM     18  O2* UNL     1      11.021   0.432  23.930  0.00  0.00    -0.385 OA
ATOM     19  H2* UNL     1      11.753  -0.142  23.642  0.00  0.00    +0.210 HD
ENDBRANCH   5  18
BRANCH   3  20
ATOM     20  C5* UNL     1       8.771   1.977  21.797  0.00  0.00    +0.190 C 
BRANCH  20  21
ATOM     21  O5* UNL     1      10.179   2.149  21.704  0.00  0.00    -0.392 OA
ATOM     22  H5* UNL     1      10.404   2.962  22.191  0.00  0.00    +0.210 HD
ENDBRANCH  20  21
ENDBRANCH   3  20
TORSDOF 6
ENDMDL
MODEL 6
REMARK VINA RESULT:      -5.6      2.226      3.336
REMARK  Name = 
REMARK  6 active torsions:
REMARK  status: ('A' for Active; 'I' for Inactive)
REMARK    1  A    between atoms: C_3  and  C_19
REMARK    2  A    between atoms: N_5  and  C1*_6
REMARK    3  A    between atoms: C2*_8  and  O2*_18
REMARK    4  A    between atoms: C3*_10  and  O3*_17
REMARK    5  A    between atoms: C4*_12  and  C5*_15
REMARK    6  A    between atoms: C5*_15  and  O5*_16
REMARK                            x       y       z     vdW  Elec       q    Type
REMARK                         _______ _______ _______ _____ _____    ______ ____
ROOT
ATOM      1  C1* UNL     1       7.945  -1.546  24.127  0.00  0.00    +0.270 C 
ATOM      2  O4* UNL     1       9.183  -1.367  24.864  0.00  0.00    -0.344 OA
ATOM      3  C4* UNL     1      10.155  -0.753  23.982  0.00  0.00    +0.177 C 
ATOM      4  C3* UNL     1       9.478  -0.575  22.621  0.00  0.00    +0.178 C 
ATOM      5  C2* UNL     1       7.991  -0.588  22.939  0.00  0.00    +0.196 C 
ENDROOT
BRANCH   1   7
ATOM      6  C   UNL     1       8.509  -4.029  24.092  0.00  0.00    +0.223 A 
ATOM      7  N   UNL     1       7.797  -2.937  23.712  0.00  0.00    -0.220 N 
ATOM      8  N   UNL     1       6.885  -3.263  22.770  0.00  0.00    -0.142 NA
ATOM      9  C   UNL     1       7.104  -4.581  22.597  0.00  0.00    +0.236 A 
ATOM     10  N   UNL     1       8.118  -5.080  23.406  0.00  0.00    -0.211 NA
BRANCH   9  11
ATOM     11  C   UNL     1       6.371  -5.427  21.634  0.00  0.00    +0.281 C 
ATOM     12  N   UNL     1       6.139  -6.705  22.079  0.00  0.00    -0.323 N 
ATOM     13  H   UNL     1       5.660  -7.355  21.474  0.00  0.00    +0.145 HD
ATOM     14  H   UNL     1       6.475  -6.992  22.990  0.00  0.00    +0.145 HD
ATOM     15  O   UNL     1       5.989  -5.069  20.523  0.00  0.00    -0.267 OA
ENDBRANCH   9  11
ENDBRANCH   1   7
BRANCH   4  16
ATOM     16  O3* UNL     1       9.882   0.575  21.900  0.00  0.00    -0.386 OA
ATOM     17  H3* UNL     1       9.536   0.448  20.991  0.00  0.00    +0.210 HD
ENDBRANCH   4  16
BRANCH   5  18
ATOM     18  O2* UNL     1       7.559   0.729  23.313  0.00  0.00    -0.385 OA
ATOM     19  H2* UNL     1       6.686   0.879  22.905  0.00  0.00    +0.210 HD
ENDBRANCH   5  18
BRANCH   3  20
ATOM     20  C5* UNL     1      10.759   0.505  24.621  0.00  0.00    +0.190 C 
BRANCH  20  21
ATOM     21  O5* UNL     1       9.789   1.482  24.975  0.00  0.00    -0.392 OA
ATOM     22  H5* UNL     1      10.231   2.349  24.961  0.00  0.00    +0.210 HD
ENDBRANCH  20  21
ENDBRANCH   3  20
TORSDOF 6
ENDMDL
MODEL 7
REMARK VINA RESULT:      -5.6      1.749      2.412
REMARK  Name = 
REMARK  6 active torsions:
REMARK  status: ('A' for Active; 'I' for Inactive)
REMARK    1  A    between atoms: C_3  and  C_19
REMARK    2  A    between atoms: N_5  and  C1*_6
REMARK    3  A    between atoms: C2*_8  and  O2*_18
REMARK    4  A    between atoms: C3*_10  and  O3*_17
REMARK    5  A    between atoms: C4*_12  and  C5*_15
REMARK    6  A    between atoms: C5*_15  and  O5*_16
REMARK                            x       y       z     vdW  Elec       q    Type
REMARK                         _______ _______ _______ _____ _____    ______ ____
ROOT
ATOM      1  C1* UNL     1       8.936   0.245  22.090  0.00  0.00    +0.270 C 
ATOM      2  O4* UNL     1       7.640   0.787  22.454  0.00  0.00    -0.344 OA
ATOM      3  C4* UNL     1       7.839   1.816  23.455  0.00  0.00    +0.177 C 
ATOM      4  C3* UNL     1       9.342   1.882  23.738  0.00  0.00    +0.178 C 
ATOM      5  C2* UNL     1       9.983   1.280  22.498  0.00  0.00    +0.196 C 
ENDROOT
BRANCH   1   7
ATOM      6  C   UNL     1      10.291  -1.575  23.245  0.00  0.00    +0.223 A 
ATOM      7  N   UNL     1       9.148  -1.043  22.740  0.00  0.00    -0.220 N 
ATOM      8  N   UNL     1       8.125  -1.921  22.840  0.00  0.00    -0.142 NA
ATOM      9  C   UNL     1       8.718  -2.994  23.400  0.00  0.00    +0.236 A 
ATOM     10  N   UNL     1      10.070  -2.804  23.655  0.00  0.00    -0.211 NA
BRANCH   9  11
ATOM     11  C   UNL     1       8.026  -4.263  23.702  0.00  0.00    +0.281 C 
ATOM     12  N   UNL     1       6.658  -4.186  23.616  0.00  0.00    -0.323 N 
ATOM     13  H   UNL     1       6.107  -5.005  23.825  0.00  0.00    +0.145 HD
ATOM     14  H   UNL     1       6.215  -3.308  23.376  0.00  0.00    +0.145 HD
ATOM     15  O   UNL     1       8.578  -5.315  24.012  0.00  0.00    -0.267 OA
ENDBRANCH   9  11
ENDBRANCH   1   7
BRANCH   4  16
ATOM     16  O3* UNL     1       9.833   3.174  24.046  0.00  0.00    -0.386 OA
ATOM     17  H3* UNL     1      10.757   3.187  23.716  0.00  0.00    +0.210 HD
ENDBRANCH   4  16
BRANCH   5  18
ATOM     18  O2* UNL     1      10.139   2.289  21.489  0.00  0.00    -0.385 OA
ATOM     19  H2* UNL     1      10.775   1.951  20.832  0.00  0.00    +0.210 HD
ENDBRANCH   5  18
BRANCH   3  20
ATOM     20  C5* UNL     1       7.157   3.127  23.040  0.00  0.00    +0.190 C 
BRANCH  20  21
ATOM     21  O5* UNL     1       7.871   3.845  22.042  0.00  0.00    -0.392 OA
ATOM     22  H5* UNL     1       7.727   4.794  22.208  0.00  0.00    +0.210 HD
ENDBRANCH  20  21
ENDBRANCH   3  20
TORSDOF 6
ENDMDL
MODEL 8
REMARK VINA RESULT:      -5.3      2.691      6.010
REMARK  Name = 
REMARK  6 active torsions:
REMARK  status: ('A' for Active; 'I' for Inactive)
REMARK    1  A    between atoms: C_3  and  C_19
REMARK    2  A    between atoms: N_5  and  C1*_6
REMARK    3  A    between atoms: C2*_8  and  O2*_18
REMARK    4  A    between atoms: C3*_10  and  O3*_17
REMARK    5  A    between atoms: C4*_12  and  C5*_15
REMARK    6  A    between atoms: C5*_15  and  O5*_16
REMARK                            x       y       z     vdW  Elec       q    Type
REMARK                         _______ _______ _______ _____ _____    ______ ____
ROOT
ATOM      1  C1* UNL     1       7.761  -3.407  22.473  0.00  0.00    +0.270 C 
ATOM      2  O4* UNL     1       7.899  -4.308  23.602  0.00  0.00    -0.344 OA
ATOM      3  C4* UNL     1       6.794  -4.077  24.509  0.00  0.00    +0.177 C 
ATOM      4  C3* UNL     1       5.949  -2.949  23.911  0.00  0.00    +0.178 C 
ATOM      5  C2* UNL     1       6.300  -2.964  22.432  0.00  0.00    +0.196 C 
ENDROOT
BRANCH   1   7
ATOM      6  C   UNL     1       9.770  -2.148  23.402  0.00  0.00    +0.223 A 
ATOM      7  N   UNL     1       8.677  -2.280  22.606  0.00  0.00    -0.220 N 
ATOM      8  N   UNL     1       8.443  -1.140  21.920  0.00  0.00    -0.142 NA
ATOM      9  C   UNL     1       9.426  -0.329  22.361  0.00  0.00    +0.236 A 
ATOM     10  N   UNL     1      10.261  -0.934  23.292  0.00  0.00    -0.211 NA
BRANCH   9  11
ATOM     11  C   UNL     1       9.603   1.073  21.931  0.00  0.00    +0.281 C 
ATOM     12  N   UNL     1       8.722   1.473  20.958  0.00  0.00    -0.323 N 
ATOM     13  H   UNL     1       8.787   2.412  20.594  0.00  0.00    +0.145 HD
ATOM     14  H   UNL     1       8.041   0.819  20.593  0.00  0.00    +0.145 HD
ATOM     15  O   UNL     1      10.450   1.847  22.369  0.00  0.00    -0.267 OA
ENDBRANCH   9  11
ENDBRANCH   1   7
BRANCH   4  16
ATOM     16  O3* UNL     1       4.558  -3.053  24.155  0.00  0.00    -0.386 OA
ATOM     17  H3* UNL     1       4.353  -4.010  24.081  0.00  0.00    +0.210 HD
ENDBRANCH   4  16
BRANCH   5  18
ATOM     18  O2* UNL     1       5.483  -3.925  21.745  0.00  0.00    -0.385 OA
ATOM     19  H2* UNL     1       4.758  -4.177  22.346  0.00  0.00    +0.210 HD
ENDBRANCH   5  18
BRANCH   3  20
ATOM     20  C5* UNL     1       6.063  -5.388  24.831  0.00  0.00    +0.190 C 
BRANCH  20  21
ATOM     21  O5* UNL     1       5.382  -5.945  23.715  0.00  0.00    -0.392 OA
ATOM     22  H5* UNL     1       4.449  -6.058  23.971  0.00  0.00    +0.210 HD
ENDBRANCH  20  21
ENDBRANCH   3  20
TORSDOF 6
ENDMDL
MODEL 9
REMARK VINA RESULT:      -5.3      3.582      6.409
REMARK  Name = 
REMARK  6 active torsions:
REMARK  status: ('A' for Active; 'I' for Inactive)
REMARK    1  A    between atoms: C_3  and  C_19
REMARK    2  A    between atoms: N_5  and  C1*_6
REMARK    3  A    between atoms: C2*_8  and  O2*_18
REMARK    4  A    between atoms: C3*_10  and  O3*_17
REMARK    5  A    between atoms: C4*_12  and  C5*_15
REMARK    6  A    between atoms: C5*_15  and  O5*_16
REMARK                            x       y       z     vdW  Elec       q    Type
REMARK                         _______ _______ _______ _____ _____    ______ ____
ROOT
ATOM      1  C1* UNL     1      10.093   0.433  22.927  0.00  0.00    +0.270 C 
ATOM      2  O4* UNL     1       9.985  -0.249  24.205  0.00  0.00    -0.344 OA
ATOM      3  C4* UNL     1       8.863  -1.163  24.141  0.00  0.00    +0.177 C 
ATOM      4  C3* UNL     1       8.234  -1.007  22.755  0.00  0.00    +0.178 C 
ATOM      5  C2* UNL     1       9.348  -0.420  21.903  0.00  0.00    +0.196 C 
ENDROOT
BRANCH   1   7
ATOM      6  C   UNL     1       9.955   2.820  23.803  0.00  0.00    +0.223 A 
ATOM      7  N   UNL     1       9.550   1.783  23.025  0.00  0.00    -0.220 N 
ATOM      8  N   UNL     1       8.448   2.116  22.318  0.00  0.00    -0.142 NA
ATOM      9  C   UNL     1       8.210   3.377  22.729  0.00  0.00    +0.236 A 
ATOM     10  N   UNL     1       9.133   3.835  23.661  0.00  0.00    -0.211 NA
BRANCH   9  11
ATOM     11  C   UNL     1       7.075   4.202  22.267  0.00  0.00    +0.281 C 
ATOM     12  N   UNL     1       7.447   5.400  21.708  0.00  0.00    -0.323 N 
ATOM     13  H   UNL     1       6.731   6.032  21.384  0.00  0.00    +0.145 HD
ATOM     14  H   UNL     1       8.427   5.650  21.655  0.00  0.00    +0.145 HD
ATOM     15  O   UNL     1       5.890   3.893  22.359  0.00  0.00    -0.267 OA
ENDBRANCH   9  11
ENDBRANCH   1   7
BRANCH   4  16
ATOM     16  O3* UNL     1       7.686  -2.195  22.212  0.00  0.00    -0.386 OA
ATOM     17  H3* UNL     1       6.715  -2.107  22.321  0.00  0.00    +0.210 HD
ENDBRANCH   4  16
BRANCH   5  18
ATOM     18  O2* UNL     1      10.181  -1.472  21.394  0.00  0.00    -0.385 OA
ATOM     19  H2* UNL     1      10.460  -2.019  22.151  0.00  0.00    +0.210 HD
ENDBRANCH   5  18
BRANCH   3  20
ATOM     20  C5* UNL     1       9.285  -2.581  24.551  0.00  0.00    +0.190 C 
BRANCH  20  21
ATOM     21  O5* UNL     1      10.321  -3.120  23.740  0.00  0.00    -0.392 OA
ATOM     22  H5* UNL     1      10.765  -3.814  24.260  0.00  0.00    +0.210 HD
ENDBRANCH  20  21
ENDBRANCH   3  20
TORSDOF 6
ENDMDL
