MODEL 1
REMARK VINA RESULT:      -6.6      0.000      0.000
REMARK  Name = 
REMARK  16 active torsions:
REMARK  status: ('A' for Active; 'I' for Inactive)
REMARK    1  A    between atoms: C_1  and  C_2
REMARK    2  A    between atoms: C_2  and  C_3
REMARK    3  A    between atoms: C_2  and  C_4
REMARK    4  A    between atoms: C_4  and  N_5
REMARK    5  A    between atoms: N_5  and  C_6
REMARK    6  A    between atoms: N_5  and  S_34
REMARK    7  A    between atoms: C_6  and  C_7
REMARK    8  A    between atoms: C_7  and  C_9
REMARK    9  A    between atoms: C_7  and  O_33
REMARK   10  A    between atoms: C_9  and  C_11
REMARK   11  A    between atoms: C_9  and  N_18
REMARK   12  A    between atoms: C_11  and  C_12
REMARK   13  A    between atoms: C_19  and  O_21
REMARK   14  A    between atoms: O_21  and  C_22
REMARK   15  A    between atoms: S_34  and  C_37
REMARK   16  A    between atoms: C_40  and  N_43
REMARK                            x       y       z     vdW  Elec       q    Type
REMARK                         _______ _______ _______ _____ _____    ______ ____
ROOT
ATOM      1  C   UNL     1       8.542  -1.065  26.470  0.00  0.00    +0.151 C 
ENDROOT
BRANCH   1   2
ATOM      2  O   UNL     1       9.352  -0.698  27.595  0.00  0.00    -0.389 OA
ATOM      3  H   UNL     1       9.498   0.263  27.548  0.00  0.00    +0.210 HD
ENDBRANCH   1   2
BRANCH   1   4
ATOM      4  C   UNL     1       7.905  -2.442  26.763  0.00  0.00    +0.142 C 
BRANCH   4   5
ATOM      5  N   UNL     1       6.412  -2.501  26.974  0.00  0.00    -0.174 NA
BRANCH   5   6
ATOM      6  S   UNL     1       5.905  -4.065  27.517  0.00  0.00    +0.061 S 
ATOM      7  O   UNL     1       4.977  -3.837  28.609  0.00  0.00    -0.153 OA
ATOM      8  O   UNL     1       7.097  -4.855  27.732  0.00  0.00    -0.153 OA
BRANCH   6   9
ATOM      9  C   UNL     1       5.001  -4.800  26.176  0.00  0.00    +0.106 A 
ATOM     10  C   UNL     1       5.245  -6.135  25.843  0.00  0.00    +0.030 A 
ATOM     11  C   UNL     1       4.621  -6.701  24.728  0.00  0.00    +0.024 A 
ATOM     12  C   UNL     1       3.734  -5.954  23.948  0.00  0.00    +0.025 A 
ATOM     13  C   UNL     1       3.592  -4.589  24.222  0.00  0.00    +0.024 A 
ATOM     14  C   UNL     1       4.209  -4.011  25.339  0.00  0.00    +0.030 A 
BRANCH  12  15
ATOM     15  N   UNL     1       3.197  -6.504  22.779  0.00  0.00    -0.358 N 
ATOM     16  H   UNL     1       3.690  -6.231  21.935  0.00  0.00    +0.142 HD
ATOM     17  H   UNL     1       3.054  -7.508  22.825  0.00  0.00    +0.142 HD
ENDBRANCH  12  15
ENDBRANCH   6   9
ENDBRANCH   5   6
BRANCH   5  18
ATOM     18  C   UNL     1       5.774  -1.320  27.657  0.00  0.00    +0.112 C 
BRANCH  18  20
ATOM     19  C   UNL     1       5.127  -0.580  25.296  0.00  0.00    +0.008 C 
ATOM     20  C   UNL     1       4.812  -0.482  26.782  0.00  0.00    -0.001 C 
ATOM     21  C   UNL     1       3.351  -0.887  27.024  0.00  0.00    +0.008 C 
ENDBRANCH  18  20
ENDBRANCH   5  18
ENDBRANCH   4   5
ENDBRANCH   1   4
BRANCH   1  22
ATOM     22  C   UNL     1       9.387  -0.966  25.168  0.00  0.00    +0.110 C 
BRANCH  22  23
ATOM     23  N   UNL     1       8.764  -1.752  24.116  0.00  0.00    -0.275 N 
ATOM     24  H   UNL     1       7.756  -1.826  24.106  0.00  0.00    +0.152 HD
ATOM     25  C   UNL     1       9.365  -2.228  23.000  0.00  0.00    +0.401 C 
ATOM     26  O   UNL     1      10.555  -2.277  22.749  0.00  0.00    -0.226 OA
BRANCH  25  27
ATOM     27  O   UNL     1       8.393  -2.752  22.224  0.00  0.00    -0.444 OA
BRANCH  27  28
ATOM     28  C   UNL     1       7.170  -2.990  22.924  0.00  0.00    +0.212 C 
ATOM     29  C   UNL     1       6.782  -4.427  22.778  0.00  0.00    +0.090 C 
ATOM     30  C   UNL     1       7.692  -5.616  22.703  0.00  0.00    +0.040 C 
ATOM     31  C   UNL     1       6.779  -6.572  21.920  0.00  0.00    +0.163 C 
ATOM     32  O   UNL     1       5.829  -5.757  21.178  0.00  0.00    -0.351 OA
ATOM     33  C   UNL     1       6.276  -4.424  21.362  0.00  0.00    +0.257 C 
ATOM     34  O   UNL     1       5.355  -3.341  21.352  0.00  0.00    -0.347 OA
ATOM     35  C   UNL     1       6.016  -2.307  22.143  0.00  0.00    +0.208 C 
ENDBRANCH  27  28
ENDBRANCH  25  27
ENDBRANCH  22  23
BRANCH  22  36
ATOM     36  C   UNL     1       9.742   0.480  24.747  0.00  0.00    +0.060 C 
BRANCH  36  37
ATOM     37  C   UNL     1       8.743   1.222  23.875  0.00  0.00    -0.046 A 
ATOM     38  C   UNL     1       7.565   1.819  24.350  0.00  0.00    +0.004 A 
ATOM     39  C   UNL     1       6.734   2.541  23.486  0.00  0.00    +0.000 A 
ATOM     40  C   UNL     1       7.064   2.670  22.140  0.00  0.00    +0.000 A 
ATOM     41  C   UNL     1       8.186   2.014  21.641  0.00  0.00    +0.000 A 
ATOM     42  C   UNL     1       9.002   1.278  22.497  0.00  0.00    +0.004 A 
ENDBRANCH  36  37
ENDBRANCH  22  36
ENDBRANCH   1  22
TORSDOF 14
ENDMDL
MODEL 2
REMARK VINA RESULT:      -6.6      2.703      5.418
REMARK  Name = 
REMARK  16 active torsions:
REMARK  status: ('A' for Active; 'I' for Inactive)
REMARK    1  A    between atoms: C_1  and  C_2
REMARK    2  A    between atoms: C_2  and  C_3
REMARK    3  A    between atoms: C_2  and  C_4
REMARK    4  A    between atoms: C_4  and  N_5
REMARK    5  A    between atoms: N_5  and  C_6
REMARK    6  A    between atoms: N_5  and  S_34
REMARK    7  A    between atoms: C_6  and  C_7
REMARK    8  A    between atoms: C_7  and  C_9
REMARK    9  A    between atoms: C_7  and  O_33
REMARK   10  A    between atoms: C_9  and  C_11
REMARK   11  A    between atoms: C_9  and  N_18
REMARK   12  A    between atoms: C_11  and  C_12
REMARK   13  A    between atoms: C_19  and  O_21
REMARK   14  A    between atoms: O_21  and  C_22
REMARK   15  A    between atoms: S_34  and  C_37
REMARK   16  A    between atoms: C_40  and  N_43
REMARK                            x       y       z     vdW  Elec       q    Type
REMARK                         _______ _______ _______ _____ _____    ______ ____
ROOT
ATOM      1  C   UNL     1       8.412  -0.817  26.102  0.00  0.00    +0.151 C 
ENDROOT
BRANCH   1   2
ATOM      2  O   UNL     1       9.295  -0.490  27.184  0.00  0.00    -0.389 OA
ATOM      3  H   UNL     1      10.204  -0.667  26.883  0.00  0.00    +0.210 HD
ENDBRANCH   1   2
BRANCH   1   4
ATOM      4  C   UNL     1       6.959  -0.709  26.617  0.00  0.00    +0.142 C 
BRANCH   4   5
ATOM      5  N   UNL     1       6.257   0.619  26.481  0.00  0.00    -0.174 NA
BRANCH   5   6
ATOM      6  S   UNL     1       5.776   0.924  24.847  0.00  0.00    +0.061 S 
ATOM      7  O   UNL     1       4.411   1.412  24.907  0.00  0.00    -0.153 OA
ATOM      8  O   UNL     1       6.089  -0.258  24.076  0.00  0.00    -0.153 OA
BRANCH   6   9
ATOM      9  C   UNL     1       6.803   2.247  24.254  0.00  0.00    +0.106 A 
ATOM     10  C   UNL     1       7.765   2.794  25.106  0.00  0.00    +0.030 A 
ATOM     11  C   UNL     1       8.512   3.901  24.694  0.00  0.00    +0.024 A 
ATOM     12  C   UNL     1       8.325   4.460  23.427  0.00  0.00    +0.025 A 
ATOM     13  C   UNL     1       7.280   3.977  22.633  0.00  0.00    +0.024 A 
ATOM     14  C   UNL     1       6.527   2.865  23.033  0.00  0.00    +0.030 A 
BRANCH  12  15
ATOM     15  N   UNL     1       9.008   5.627  23.070  0.00  0.00    -0.358 N 
ATOM     16  H   UNL     1       8.798   6.423  23.665  0.00  0.00    +0.142 HD
ATOM     17  H   UNL     1      10.008   5.499  22.951  0.00  0.00    +0.142 HD
ENDBRANCH  12  15
ENDBRANCH   6   9
ENDBRANCH   5   6
BRANCH   5  18
ATOM     18  C   UNL     1       5.252   0.969  27.548  0.00  0.00    +0.112 C 
BRANCH  18  20
ATOM     19  C   UNL     1       7.045   2.335  28.756  0.00  0.00    +0.008 C 
ATOM     20  C   UNL     1       5.573   2.233  28.379  0.00  0.00    -0.001 C 
ATOM     21  C   UNL     1       5.145   3.506  27.636  0.00  0.00    +0.008 C 
ENDBRANCH  18  20
ENDBRANCH   5  18
ENDBRANCH   4   5
ENDBRANCH   1   4
BRANCH   1  22
ATOM     22  C   UNL     1       8.823  -2.189  25.495  0.00  0.00    +0.110 C 
BRANCH  22  23
ATOM     23  N   UNL     1       7.638  -2.996  25.259  0.00  0.00    -0.275 N 
ATOM     24  H   UNL     1       6.790  -2.529  24.968  0.00  0.00    +0.152 HD
ATOM     25  C   UNL     1       7.586  -4.346  25.167  0.00  0.00    +0.401 C 
ATOM     26  O   UNL     1       8.448  -5.155  25.459  0.00  0.00    -0.226 OA
BRANCH  25  27
ATOM     27  O   UNL     1       6.333  -4.666  24.780  0.00  0.00    -0.444 OA
BRANCH  27  28
ATOM     28  C   UNL     1       5.893  -3.948  23.625  0.00  0.00    +0.212 C 
ATOM     29  C   UNL     1       4.407  -4.057  23.504  0.00  0.00    +0.090 C 
ATOM     30  C   UNL     1       3.402  -4.114  24.616  0.00  0.00    +0.040 C 
ATOM     31  C   UNL     1       2.276  -4.865  23.889  0.00  0.00    +0.163 C 
ATOM     32  O   UNL     1       2.886  -5.617  22.801  0.00  0.00    -0.351 OA
ATOM     33  C   UNL     1       4.283  -5.467  22.998  0.00  0.00    +0.257 C 
ATOM     34  O   UNL     1       5.179  -5.494  21.896  0.00  0.00    -0.347 OA
ATOM     35  C   UNL     1       6.336  -4.734  22.361  0.00  0.00    +0.208 C 
ENDBRANCH  27  28
ENDBRANCH  25  27
ENDBRANCH  22  23
BRANCH  22  36
ATOM     36  C   UNL     1       9.769  -2.088  24.275  0.00  0.00    +0.060 C 
BRANCH  36  37
ATOM     37  C   UNL     1       9.838  -0.755  23.549  0.00  0.00    -0.046 A 
ATOM     38  C   UNL     1      10.617   0.336  23.965  0.00  0.00    +0.004 A 
ATOM     39  C   UNL     1      10.673   1.505  23.198  0.00  0.00    +0.000 A 
ATOM     40  C   UNL     1       9.949   1.602  22.013  0.00  0.00    +0.000 A 
ATOM     41  C   UNL     1       9.110   0.559  21.633  0.00  0.00    +0.000 A 
ATOM     42  C   UNL     1       9.038  -0.597  22.407  0.00  0.00    +0.004 A 
ENDBRANCH  36  37
ENDBRANCH  22  36
ENDBRANCH   1  22
TORSDOF 14
ENDMDL
MODEL 3
REMARK VINA RESULT:      -6.5      2.864      6.891
REMARK  Name = 
REMARK  16 active torsions:
REMARK  status: ('A' for Active; 'I' for Inactive)
REMARK    1  A    between atoms: C_1  and  C_2
REMARK    2  A    between atoms: C_2  and  C_3
REMARK    3  A    between atoms: C_2  and  C_4
REMARK    4  A    between atoms: C_4  and  N_5
REMARK    5  A    between atoms: N_5  and  C_6
REMARK    6  A    between atoms: N_5  and  S_34
REMARK    7  A    between atoms: C_6  and  C_7
REMARK    8  A    between atoms: C_7  and  C_9
REMARK    9  A    between atoms: C_7  and  O_33
REMARK   10  A    between atoms: C_9  and  C_11
REMARK   11  A    between atoms: C_9  and  N_18
REMARK   12  A    between atoms: C_11  and  C_12
REMARK   13  A    between atoms: C_19  and  O_21
REMARK   14  A    between atoms: O_21  and  C_22
REMARK   15  A    between atoms: S_34  and  C_37
REMARK   16  A    between atoms: C_40  and  N_43
REMARK                            x       y       z     vdW  Elec       q    Type
REMARK                         _______ _______ _______ _____ _____    ______ ____
ROOT
ATOM      1  C   UNL     1       8.097  -1.587  26.422  0.00  0.00    +0.151 C 
ENDROOT
BRANCH   1   2
ATOM      2  O   UNL     1       6.740  -1.255  26.746  0.00  0.00    -0.389 OA
ATOM      3  H   UNL     1       6.708  -0.297  26.921  0.00  0.00    +0.210 HD
ENDBRANCH   1   2
BRANCH   1   4
ATOM      4  C   UNL     1       8.595  -0.588  25.353  0.00  0.00    +0.142 C 
BRANCH   4   5
ATOM      5  N   UNL     1       7.575   0.020  24.422  0.00  0.00    -0.174 NA
BRANCH   5   6
ATOM      6  S   UNL     1       6.828   1.418  25.119  0.00  0.00    +0.061 S 
ATOM      7  O   UNL     1       7.582   1.728  26.319  0.00  0.00    -0.153 OA
ATOM      8  O   UNL     1       5.409   1.153  25.203  0.00  0.00    -0.153 OA
BRANCH   6   9
ATOM      9  C   UNL     1       7.065   2.748  23.966  0.00  0.00    +0.106 A 
ATOM     10  C   UNL     1       8.128   3.635  24.160  0.00  0.00    +0.030 A 
ATOM     11  C   UNL     1       8.270   4.746  23.325  0.00  0.00    +0.024 A 
ATOM     12  C   UNL     1       7.373   4.974  22.278  0.00  0.00    +0.025 A 
ATOM     13  C   UNL     1       6.250   4.147  22.170  0.00  0.00    +0.024 A 
ATOM     14  C   UNL     1       6.098   3.028  22.999  0.00  0.00    +0.030 A 
BRANCH  12  15
ATOM     15  N   UNL     1       7.471   6.144  21.516  0.00  0.00    -0.358 N 
ATOM     16  H   UNL     1       8.201   6.112  20.811  0.00  0.00    +0.142 HD
ATOM     17  H   UNL     1       6.587   6.457  21.129  0.00  0.00    +0.142 HD
ENDBRANCH  12  15
ENDBRANCH   6   9
ENDBRANCH   5   6
BRANCH   5  18
ATOM     18  C   UNL     1       7.956   0.123  22.968  0.00  0.00    +0.112 C 
BRANCH  18  20
ATOM     19  C   UNL     1       9.883  -1.143  21.861  0.00  0.00    +0.008 C 
ATOM     20  C   UNL     1       9.473   0.079  22.671  0.00  0.00    -0.001 C 
ATOM     21  C   UNL     1       9.931   1.352  21.946  0.00  0.00    +0.008 C 
ENDBRANCH  18  20
ENDBRANCH   5  18
ENDBRANCH   4   5
ENDBRANCH   1   4
BRANCH   1  22
ATOM     22  C   UNL     1       8.186  -3.093  26.045  0.00  0.00    +0.110 C 
BRANCH  22  23
ATOM     23  N   UNL     1       6.913  -3.742  26.308  0.00  0.00    -0.275 N 
ATOM     24  H   UNL     1       6.084  -3.366  25.868  0.00  0.00    +0.152 HD
ATOM     25  C   UNL     1       6.727  -4.942  26.906  0.00  0.00    +0.401 C 
ATOM     26  O   UNL     1       7.539  -5.614  27.517  0.00  0.00    -0.226 OA
BRANCH  25  27
ATOM     27  O   UNL     1       5.414  -5.236  26.798  0.00  0.00    -0.444 OA
BRANCH  27  28
ATOM     28  C   UNL     1       5.116  -6.614  27.030  0.00  0.00    +0.212 C 
ATOM     29  C   UNL     1       4.277  -7.141  25.910  0.00  0.00    +0.090 C 
ATOM     30  C   UNL     1       4.342  -6.759  24.462  0.00  0.00    +0.040 C 
ATOM     31  C   UNL     1       2.898  -7.093  24.056  0.00  0.00    +0.163 C 
ATOM     32  O   UNL     1       2.084  -7.040  25.261  0.00  0.00    -0.351 OA
ATOM     33  C   UNL     1       2.950  -6.525  26.260  0.00  0.00    +0.257 C 
ATOM     34  O   UNL     1       2.779  -6.881  27.624  0.00  0.00    -0.347 OA
ATOM     35  C   UNL     1       4.107  -6.707  28.206  0.00  0.00    +0.208 C 
ENDBRANCH  27  28
ENDBRANCH  25  27
ENDBRANCH  22  23
BRANCH  22  36
ATOM     36  C   UNL     1       8.750  -3.363  24.630  0.00  0.00    +0.060 C 
BRANCH  36  37
ATOM     37  C   UNL     1       7.795  -3.923  23.589  0.00  0.00    -0.046 A 
ATOM     38  C   UNL     1       6.813  -3.170  22.926  0.00  0.00    +0.004 A 
ATOM     39  C   UNL     1       6.019  -3.752  21.932  0.00  0.00    +0.000 A 
ATOM     40  C   UNL     1       6.190  -5.091  21.593  0.00  0.00    +0.000 A 
ATOM     41  C   UNL     1       7.103  -5.869  22.299  0.00  0.00    +0.000 A 
ATOM     42  C   UNL     1       7.879  -5.294  23.304  0.00  0.00    +0.004 A 
ENDBRANCH  36  37
ENDBRANCH  22  36
ENDBRANCH   1  22
TORSDOF 14
ENDMDL
MODEL 4
REMARK VINA RESULT:      -6.4      2.119      2.951
REMARK  Name = 
REMARK  16 active torsions:
REMARK  status: ('A' for Active; 'I' for Inactive)
REMARK    1  A    between atoms: C_1  and  C_2
REMARK    2  A    between atoms: C_2  and  C_3
REMARK    3  A    between atoms: C_2  and  C_4
REMARK    4  A    between atoms: C_4  and  N_5
REMARK    5  A    between atoms: N_5  and  C_6
REMARK    6  A    between atoms: N_5  and  S_34
REMARK    7  A    between atoms: C_6  and  C_7
REMARK    8  A    between atoms: C_7  and  C_9
REMARK    9  A    between atoms: C_7  and  O_33
REMARK   10  A    between atoms: C_9  and  C_11
REMARK   11  A    between atoms: C_9  and  N_18
REMARK   12  A    between atoms: C_11  and  C_12
REMARK   13  A    between atoms: C_19  and  O_21
REMARK   14  A    between atoms: O_21  and  C_22
REMARK   15  A    between atoms: S_34  and  C_37
REMARK   16  A    between atoms: C_40  and  N_43
REMARK                            x       y       z     vdW  Elec       q    Type
REMARK                         _______ _______ _______ _____ _____    ______ ____
ROOT
ATOM      1  C   UNL     1       8.570  -0.956  25.720  0.00  0.00    +0.151 C 
ENDROOT
BRANCH   1   2
ATOM      2  O   UNL     1       9.532  -0.305  26.562  0.00  0.00    -0.389 OA
ATOM      3  H   UNL     1      10.063   0.284  25.997  0.00  0.00    +0.210 HD
ENDBRANCH   1   2
BRANCH   1   4
ATOM      4  C   UNL     1       7.337  -1.309  26.581  0.00  0.00    +0.142 C 
BRANCH   4   5
ATOM      5  N   UNL     1       5.988  -1.348  25.905  0.00  0.00    -0.174 NA
BRANCH   5   6
ATOM      6  S   UNL     1       4.717  -1.669  27.034  0.00  0.00    +0.061 S 
ATOM      7  O   UNL     1       3.474  -1.537  26.297  0.00  0.00    -0.153 OA
ATOM      8  O   UNL     1       4.957  -0.849  28.201  0.00  0.00    -0.153 OA
BRANCH   6   9
ATOM      9  C   UNL     1       4.886  -3.369  27.521  0.00  0.00    +0.106 A 
ATOM     10  C   UNL     1       6.143  -3.975  27.445  0.00  0.00    +0.030 A 
ATOM     11  C   UNL     1       6.277  -5.337  27.726  0.00  0.00    +0.024 A 
ATOM     12  C   UNL     1       5.171  -6.103  28.103  0.00  0.00    +0.025 A 
ATOM     13  C   UNL     1       3.904  -5.512  28.059  0.00  0.00    +0.024 A 
ATOM     14  C   UNL     1       3.756  -4.146  27.784  0.00  0.00    +0.030 A 
BRANCH  12  15
ATOM     15  N   UNL     1       5.305  -7.485  28.281  0.00  0.00    -0.358 N 
ATOM     16  H   UNL     1       4.515  -8.020  27.934  0.00  0.00    +0.142 HD
ATOM     17  H   UNL     1       6.188  -7.859  27.949  0.00  0.00    +0.142 HD
ENDBRANCH  12  15
ENDBRANCH   6   9
ENDBRANCH   5   6
BRANCH   5  18
ATOM     18  C   UNL     1       5.713  -0.284  24.875  0.00  0.00    +0.112 C 
BRANCH  18  20
ATOM     19  C   UNL     1       6.689   2.032  24.399  0.00  0.00    +0.008 C 
ATOM     20  C   UNL     1       5.878   1.175  25.362  0.00  0.00    -0.001 C 
ATOM     21  C   UNL     1       4.513   1.833  25.608  0.00  0.00    +0.008 C 
ENDBRANCH  18  20
ENDBRANCH   5  18
ENDBRANCH   4   5
ENDBRANCH   1   4
BRANCH   1  22
ATOM     22  C   UNL     1       9.249  -2.144  24.979  0.00  0.00    +0.110 C 
BRANCH  22  23
ATOM     23  N   UNL     1       8.257  -3.157  24.661  0.00  0.00    -0.275 N 
ATOM     24  H   UNL     1       7.323  -2.854  24.421  0.00  0.00    +0.152 HD
ATOM     25  C   UNL     1       8.489  -4.471  24.431  0.00  0.00    +0.401 C 
ATOM     26  O   UNL     1       9.510  -5.102  24.638  0.00  0.00    -0.226 OA
BRANCH  25  27
ATOM     27  O   UNL     1       7.325  -5.008  24.013  0.00  0.00    -0.444 OA
BRANCH  27  28
ATOM     28  C   UNL     1       6.831  -4.429  22.803  0.00  0.00    +0.212 C 
ATOM     29  C   UNL     1       5.338  -4.359  22.855  0.00  0.00    +0.090 C 
ATOM     30  C   UNL     1       4.476  -4.109  24.056  0.00  0.00    +0.040 C 
ATOM     31  C   UNL     1       3.193  -4.810  23.586  0.00  0.00    +0.163 C 
ATOM     32  O   UNL     1       3.577  -5.796  22.586  0.00  0.00    -0.351 OA
ATOM     33  C   UNL     1       4.995  -5.803  22.612  0.00  0.00    +0.257 C 
ATOM     34  O   UNL     1       5.741  -6.119  21.445  0.00  0.00    -0.347 OA
ATOM     35  C   UNL     1       7.024  -5.454  21.654  0.00  0.00    +0.208 C 
ENDBRANCH  27  28
ENDBRANCH  25  27
ENDBRANCH  22  23
BRANCH  22  36
ATOM     36  C   UNL     1      10.129  -1.726  23.777  0.00  0.00    +0.060 C 
BRANCH  36  37
ATOM     37  C   UNL     1       9.875  -0.359  23.164  0.00  0.00    -0.046 A 
ATOM     38  C   UNL     1      10.496   0.827  23.585  0.00  0.00    +0.004 A 
ATOM     39  C   UNL     1      10.253   2.034  22.918  0.00  0.00    +0.000 A 
ATOM     40  C   UNL     1       9.384   2.071  21.831  0.00  0.00    +0.000 A 
ATOM     41  C   UNL     1       8.700   0.919  21.457  0.00  0.00    +0.000 A 
ATOM     42  C   UNL     1       8.926  -0.278  22.133  0.00  0.00    +0.004 A 
ENDBRANCH  36  37
ENDBRANCH  22  36
ENDBRANCH   1  22
TORSDOF 14
ENDMDL
MODEL 5
REMARK VINA RESULT:      -6.4      3.108      6.315
REMARK  Name = 
REMARK  16 active torsions:
REMARK  status: ('A' for Active; 'I' for Inactive)
REMARK    1  A    between atoms: C_1  and  C_2
REMARK    2  A    between atoms: C_2  and  C_3
REMARK    3  A    between atoms: C_2  and  C_4
REMARK    4  A    between atoms: C_4  and  N_5
REMARK    5  A    between atoms: N_5  and  C_6
REMARK    6  A    between atoms: N_5  and  S_34
REMARK    7  A    between atoms: C_6  and  C_7
REMARK    8  A    between atoms: C_7  and  C_9
REMARK    9  A    between atoms: C_7  and  O_33
REMARK   10  A    between atoms: C_9  and  C_11
REMARK   11  A    between atoms: C_9  and  N_18
REMARK   12  A    between atoms: C_11  and  C_12
REMARK   13  A    between atoms: C_19  and  O_21
REMARK   14  A    between atoms: O_21  and  C_22
REMARK   15  A    between atoms: S_34  and  C_37
REMARK   16  A    between atoms: C_40  and  N_43
REMARK                            x       y       z     vdW  Elec       q    Type
REMARK                         _______ _______ _______ _____ _____    ______ ____
ROOT
ATOM      1  C   UNL     1       7.735  -0.690  26.391  0.00  0.00    +0.151 C 
ENDROOT
BRANCH   1   2
ATOM      2  O   UNL     1       9.035  -0.150  26.663  0.00  0.00    -0.389 OA
ATOM      3  H   UNL     1       9.312   0.353  25.876  0.00  0.00    +0.210 HD
ENDBRANCH   1   2
BRANCH   1   4
ATOM      4  C   UNL     1       7.854  -1.648  25.184  0.00  0.00    +0.142 C 
BRANCH   4   5
ATOM      5  N   UNL     1       9.151  -2.396  24.999  0.00  0.00    -0.174 NA
BRANCH   5   6
ATOM      6  S   UNL     1       8.989  -4.069  25.411  0.00  0.00    +0.061 S 
ATOM      7  O   UNL     1       8.731  -4.114  26.839  0.00  0.00    -0.153 OA
ATOM      8  O   UNL     1      10.130  -4.763  24.859  0.00  0.00    -0.153 OA
BRANCH   6   9
ATOM      9  C   UNL     1       7.537  -4.660  24.576  0.00  0.00    +0.106 A 
ATOM     10  C   UNL     1       6.425  -5.039  25.332  0.00  0.00    +0.030 A 
ATOM     11  C   UNL     1       5.312  -5.602  24.701  0.00  0.00    +0.024 A 
ATOM     12  C   UNL     1       5.286  -5.773  23.314  0.00  0.00    +0.025 A 
ATOM     13  C   UNL     1       6.449  -5.499  22.586  0.00  0.00    +0.024 A 
ATOM     14  C   UNL     1       7.569  -4.931  23.207  0.00  0.00    +0.030 A 
BRANCH  12  15
ATOM     15  N   UNL     1       4.208  -6.430  22.711  0.00  0.00    -0.358 N 
ATOM     16  H   UNL     1       3.998  -7.335  23.122  0.00  0.00    +0.142 HD
ATOM     17  H   UNL     1       3.375  -5.856  22.619  0.00  0.00    +0.142 HD
ENDBRANCH  12  15
ENDBRANCH   6   9
ENDBRANCH   5   6
BRANCH   5  18
ATOM     18  C   UNL     1       9.940  -2.090  23.752  0.00  0.00    +0.112 C 
BRANCH  18  20
ATOM     19  C   UNL     1      10.587   0.380  23.599  0.00  0.00    +0.008 C 
ATOM     20  C   UNL     1       9.655  -0.716  23.101  0.00  0.00    -0.001 C 
ATOM     21  C   UNL     1       9.737  -0.802  21.571  0.00  0.00    +0.008 C 
ENDBRANCH  18  20
ENDBRANCH   5  18
ENDBRANCH   4   5
ENDBRANCH   1   4
BRANCH   1  22
ATOM     22  C   UNL     1       6.711   0.471  26.243  0.00  0.00    +0.110 C 
BRANCH  22  23
ATOM     23  N   UNL     1       7.391   1.748  26.383  0.00  0.00    -0.275 N 
ATOM     24  H   UNL     1       8.144   1.962  25.743  0.00  0.00    +0.152 HD
ATOM     25  C   UNL     1       6.992   2.798  27.138  0.00  0.00    +0.401 C 
ATOM     26  O   UNL     1       6.124   2.824  27.992  0.00  0.00    -0.226 OA
BRANCH  25  27
ATOM     27  O   UNL     1       7.816   3.826  26.849  0.00  0.00    -0.444 OA
BRANCH  27  28
ATOM     28  C   UNL     1       7.250   4.773  25.940  0.00  0.00    +0.212 C 
ATOM     29  C   UNL     1       8.255   5.122  24.890  0.00  0.00    +0.090 C 
ATOM     30  C   UNL     1       9.289   4.223  24.280  0.00  0.00    +0.040 C 
ATOM     31  C   UNL     1      10.321   5.284  23.866  0.00  0.00    +0.163 C 
ATOM     32  O   UNL     1      10.113   6.448  24.715  0.00  0.00    -0.351 OA
ATOM     33  C   UNL     1       9.161   6.027  25.679  0.00  0.00    +0.257 C 
ATOM     34  O   UNL     1       8.259   6.956  26.263  0.00  0.00    -0.347 OA
ATOM     35  C   UNL     1       7.120   6.136  26.670  0.00  0.00    +0.208 C 
ENDBRANCH  27  28
ENDBRANCH  25  27
ENDBRANCH  22  23
BRANCH  22  36
ATOM     36  C   UNL     1       5.810   0.372  24.989  0.00  0.00    +0.060 C 
BRANCH  36  37
ATOM     37  C   UNL     1       5.939   1.468  23.944  0.00  0.00    -0.046 A 
ATOM     38  C   UNL     1       5.107   2.595  23.870  0.00  0.00    +0.004 A 
ATOM     39  C   UNL     1       5.339   3.590  22.914  0.00  0.00    +0.000 A 
ATOM     40  C   UNL     1       6.399   3.469  22.019  0.00  0.00    +0.000 A 
ATOM     41  C   UNL     1       7.181   2.318  22.030  0.00  0.00    +0.000 A 
ATOM     42  C   UNL     1       6.936   1.317  22.968  0.00  0.00    +0.004 A 
ENDBRANCH  36  37
ENDBRANCH  22  36
ENDBRANCH   1  22
TORSDOF 14
ENDMDL
MODEL 6
REMARK VINA RESULT:      -6.3      2.389      3.462
REMARK  Name = 
REMARK  16 active torsions:
REMARK  status: ('A' for Active; 'I' for Inactive)
REMARK    1  A    between atoms: C_1  and  C_2
REMARK    2  A    between atoms: C_2  and  C_3
REMARK    3  A    between atoms: C_2  and  C_4
REMARK    4  A    between atoms: C_4  and  N_5
REMARK    5  A    between atoms: N_5  and  C_6
REMARK    6  A    between atoms: N_5  and  S_34
REMARK    7  A    between atoms: C_6  and  C_7
REMARK    8  A    between atoms: C_7  and  C_9
REMARK    9  A    between atoms: C_7  and  O_33
REMARK   10  A    between atoms: C_9  and  C_11
REMARK   11  A    between atoms: C_9  and  N_18
REMARK   12  A    between atoms: C_11  and  C_12
REMARK   13  A    between atoms: C_19  and  O_21
REMARK   14  A    between atoms: O_21  and  C_22
REMARK   15  A    between atoms: S_34  and  C_37
REMARK   16  A    between atoms: C_40  and  N_43
REMARK                            x       y       z     vdW  Elec       q    Type
REMARK                         _______ _______ _______ _____ _____    ______ ____
ROOT
ATOM      1  C   UNL     1       9.569   1.098  24.878  0.00  0.00    +0.151 C 
ENDROOT
BRANCH   1   2
ATOM      2  O   UNL     1       9.944  -0.067  25.626  0.00  0.00    -0.389 OA
ATOM      3  H   UNL     1       9.302  -0.166  26.352  0.00  0.00    +0.210 HD
ENDBRANCH   1   2
BRANCH   1   4
ATOM      4  C   UNL     1       8.149   1.518  25.319  0.00  0.00    +0.142 C 
BRANCH   4   5
ATOM      5  N   UNL     1       7.046   0.493  25.224  0.00  0.00    -0.174 NA
BRANCH   5   6
ATOM      6  S   UNL     1       6.653  -0.169  26.774  0.00  0.00    +0.061 S 
ATOM      7  O   UNL     1       5.219  -0.019  26.931  0.00  0.00    -0.153 OA
ATOM      8  O   UNL     1       7.553   0.424  27.738  0.00  0.00    -0.153 OA
BRANCH   6   9
ATOM      9  C   UNL     1       7.015  -1.906  26.691  0.00  0.00    +0.106 A 
ATOM     10  C   UNL     1       5.995  -2.826  26.950  0.00  0.00    +0.030 A 
ATOM     11  C   UNL     1       6.284  -4.193  26.991  0.00  0.00    +0.024 A 
ATOM     12  C   UNL     1       7.579  -4.659  26.754  0.00  0.00    +0.025 A 
ATOM     13  C   UNL     1       8.609  -3.723  26.614  0.00  0.00    +0.024 A 
ATOM     14  C   UNL     1       8.333  -2.350  26.568  0.00  0.00    +0.030 A 
BRANCH  12  15
ATOM     15  N   UNL     1       7.870  -6.020  26.898  0.00  0.00    -0.358 N 
ATOM     16  H   UNL     1       8.727  -6.203  27.411  0.00  0.00    +0.142 HD
ATOM     17  H   UNL     1       7.094  -6.571  27.251  0.00  0.00    +0.142 HD
ENDBRANCH  12  15
ENDBRANCH   6   9
ENDBRANCH   5   6
BRANCH   5  18
ATOM     18  C   UNL     1       5.882   0.828  24.328  0.00  0.00    +0.112 C 
BRANCH  18  20
ATOM     19  C   UNL     1       5.908   2.628  22.512  0.00  0.00    +0.008 C 
ATOM     20  C   UNL     1       5.709   2.328  23.991  0.00  0.00    -0.001 C 
ATOM     21  C   UNL     1       4.333   2.839  24.437  0.00  0.00    +0.008 C 
ENDBRANCH  18  20
ENDBRANCH   5  18
ENDBRANCH   4   5
ENDBRANCH   1   4
BRANCH   1  22
ATOM     22  C   UNL     1       9.760   0.822  23.359  0.00  0.00    +0.110 C 
BRANCH  22  23
ATOM     23  N   UNL     1       8.975  -0.337  22.967  0.00  0.00    -0.275 N 
ATOM     24  H   UNL     1       8.103  -0.182  22.480  0.00  0.00    +0.152 HD
ATOM     25  C   UNL     1       9.380  -1.629  22.982  0.00  0.00    +0.401 C 
ATOM     26  O   UNL     1      10.375  -2.100  23.502  0.00  0.00    -0.226 OA
BRANCH  25  27
ATOM     27  O   UNL     1       8.407  -2.351  22.388  0.00  0.00    -0.444 OA
BRANCH  27  28
ATOM     28  C   UNL     1       7.295  -2.622  23.242  0.00  0.00    +0.212 C 
ATOM     29  C   UNL     1       6.959  -4.078  23.180  0.00  0.00    +0.090 C 
ATOM     30  C   UNL     1       7.906  -5.228  23.018  0.00  0.00    +0.040 C 
ATOM     31  C   UNL     1       6.949  -6.246  22.379  0.00  0.00    +0.163 C 
ATOM     32  O   UNL     1       5.875  -5.494  21.745  0.00  0.00    -0.351 OA
ATOM     33  C   UNL     1       6.279  -4.138  21.840  0.00  0.00    +0.257 C 
ATOM     34  O   UNL     1       5.315  -3.097  21.921  0.00  0.00    -0.347 OA
ATOM     35  C   UNL     1       6.021  -2.012  22.598  0.00  0.00    +0.208 C 
ENDBRANCH  27  28
ENDBRANCH  25  27
ENDBRANCH  22  23
BRANCH  22  36
ATOM     36  C   UNL     1       9.549   2.060  22.455  0.00  0.00    +0.060 C 
BRANCH  36  37
ATOM     37  C   UNL     1       9.980   3.410  23.003  0.00  0.00    -0.046 A 
ATOM     38  C   UNL     1       9.095   4.417  23.418  0.00  0.00    +0.004 A 
ATOM     39  C   UNL     1       9.580   5.607  23.973  0.00  0.00    +0.000 A 
ATOM     40  C   UNL     1      10.950   5.807  24.114  0.00  0.00    +0.000 A 
ATOM     41  C   UNL     1      11.839   4.852  23.631  0.00  0.00    +0.000 A 
ATOM     42  C   UNL     1      11.357   3.676  23.060  0.00  0.00    +0.004 A 
ENDBRANCH  36  37
ENDBRANCH  22  36
ENDBRANCH   1  22
TORSDOF 14
ENDMDL
MODEL 7
REMARK VINA RESULT:      -6.3      2.979      4.932
REMARK  Name = 
REMARK  16 active torsions:
REMARK  status: ('A' for Active; 'I' for Inactive)
REMARK    1  A    between atoms: C_1  and  C_2
REMARK    2  A    between atoms: C_2  and  C_3
REMARK    3  A    between atoms: C_2  and  C_4
REMARK    4  A    between atoms: C_4  and  N_5
REMARK    5  A    between atoms: N_5  and  C_6
REMARK    6  A    between atoms: N_5  and  S_34
REMARK    7  A    between atoms: C_6  and  C_7
REMARK    8  A    between atoms: C_7  and  C_9
REMARK    9  A    between atoms: C_7  and  O_33
REMARK   10  A    between atoms: C_9  and  C_11
REMARK   11  A    between atoms: C_9  and  N_18
REMARK   12  A    between atoms: C_11  and  C_12
REMARK   13  A    between atoms: C_19  and  O_21
REMARK   14  A    between atoms: O_21  and  C_22
REMARK   15  A    between atoms: S_34  and  C_37
REMARK   16  A    between atoms: C_40  and  N_43
REMARK                            x       y       z     vdW  Elec       q    Type
REMARK                         _______ _______ _______ _____ _____    ______ ____
ROOT
ATOM      1  C   UNL     1       9.839  -0.799  22.830  0.00  0.00    +0.151 C 
ENDROOT
BRANCH   1   2
ATOM      2  O   UNL     1       8.796  -1.449  22.090  0.00  0.00    -0.389 OA
ATOM      3  H   UNL     1       9.062  -2.377  21.966  0.00  0.00    +0.210 HD
ENDBRANCH   1   2
BRANCH   1   4
ATOM      4  C   UNL     1       9.982  -1.516  24.192  0.00  0.00    +0.142 C 
BRANCH   4   5
ATOM      5  N   UNL     1       8.748  -2.134  24.800  0.00  0.00    -0.174 NA
BRANCH   5   6
ATOM      6  S   UNL     1       8.984  -3.811  25.157  0.00  0.00    +0.061 S 
ATOM      7  O   UNL     1       8.871  -3.941  26.598  0.00  0.00    -0.153 OA
ATOM      8  O   UNL     1      10.193  -4.230  24.485  0.00  0.00    -0.153 OA
BRANCH   6   9
ATOM      9  C   UNL     1       7.623  -4.684  24.421  0.00  0.00    +0.106 A 
ATOM     10  C   UNL     1       7.504  -4.707  23.029  0.00  0.00    +0.030 A 
ATOM     11  C   UNL     1       6.387  -5.300  22.435  0.00  0.00    +0.024 A 
ATOM     12  C   UNL     1       5.391  -5.893  23.215  0.00  0.00    +0.025 A 
ATOM     13  C   UNL     1       5.464  -5.758  24.606  0.00  0.00    +0.024 A 
ATOM     14  C   UNL     1       6.581  -5.170  25.214  0.00  0.00    +0.030 A 
BRANCH  12  15
ATOM     15  N   UNL     1       4.232  -6.392  22.610  0.00  0.00    -0.358 N 
ATOM     16  H   UNL     1       3.617  -6.886  23.250  0.00  0.00    +0.142 HD
ATOM     17  H   UNL     1       3.728  -5.705  22.058  0.00  0.00    +0.142 HD
ENDBRANCH  12  15
ENDBRANCH   6   9
ENDBRANCH   5   6
BRANCH   5  18
ATOM     18  C   UNL     1       8.026  -1.325  25.845  0.00  0.00    +0.112 C 
BRANCH  18  20
ATOM     19  C   UNL     1       6.068  -1.511  24.211  0.00  0.00    +0.008 C 
ATOM     20  C   UNL     1       6.505  -1.154  25.625  0.00  0.00    -0.001 C 
ATOM     21  C   UNL     1       5.703  -1.988  26.634  0.00  0.00    +0.008 C 
ENDBRANCH  18  20
ENDBRANCH   5  18
ENDBRANCH   4   5
ENDBRANCH   1   4
BRANCH   1  22
ATOM     22  C   UNL     1       9.557   0.730  22.888  0.00  0.00    +0.110 C 
BRANCH  22  23
ATOM     23  N   UNL     1       8.128   0.963  23.011  0.00  0.00    -0.275 N 
ATOM     24  H   UNL     1       7.665   0.663  23.858  0.00  0.00    +0.152 HD
ATOM     25  C   UNL     1       7.365   1.741  22.208  0.00  0.00    +0.401 C 
ATOM     26  O   UNL     1       7.658   2.228  21.131  0.00  0.00    -0.226 OA
BRANCH  25  27
ATOM     27  O   UNL     1       6.141   1.808  22.774  0.00  0.00    -0.444 OA
BRANCH  27  28
ATOM     28  C   UNL     1       5.742   3.137  23.115  0.00  0.00    +0.212 C 
ATOM     29  C   UNL     1       5.532   3.233  24.592  0.00  0.00    +0.090 C 
ATOM     30  C   UNL     1       6.291   2.521  25.671  0.00  0.00    +0.040 C 
ATOM     31  C   UNL     1       5.213   2.516  26.765  0.00  0.00    +0.163 C 
ATOM     32  O   UNL     1       3.921   2.635  26.105  0.00  0.00    -0.351 OA
ATOM     33  C   UNL     1       4.213   2.524  24.721  0.00  0.00    +0.257 C 
ATOM     34  O   UNL     1       3.401   3.175  23.753  0.00  0.00    -0.347 OA
ATOM     35  C   UNL     1       4.291   3.358  22.610  0.00  0.00    +0.208 C 
ENDBRANCH  27  28
ENDBRANCH  25  27
ENDBRANCH  22  23
BRANCH  22  36
ATOM     36  C   UNL     1      10.411   1.496  23.927  0.00  0.00    +0.060 C 
BRANCH  36  37
ATOM     37  C   UNL     1      10.430   3.012  23.837  0.00  0.00    -0.046 A 
ATOM     38  C   UNL     1       9.345   3.841  24.162  0.00  0.00    +0.004 A 
ATOM     39  C   UNL     1       9.473   5.233  24.114  0.00  0.00    +0.000 A 
ATOM     40  C   UNL     1      10.680   5.814  23.735  0.00  0.00    +0.000 A 
ATOM     41  C   UNL     1      11.737   5.004  23.332  0.00  0.00    +0.000 A 
ATOM     42  C   UNL     1      11.603   3.618  23.360  0.00  0.00    +0.004 A 
ENDBRANCH  36  37
ENDBRANCH  22  36
ENDBRANCH   1  22
TORSDOF 14
ENDMDL
MODEL 8
REMARK VINA RESULT:      -6.3      2.659      7.648
REMARK  Name = 
REMARK  16 active torsions:
REMARK  status: ('A' for Active; 'I' for Inactive)
REMARK    1  A    between atoms: C_1  and  C_2
REMARK    2  A    between atoms: C_2  and  C_3
REMARK    3  A    between atoms: C_2  and  C_4
REMARK    4  A    between atoms: C_4  and  N_5
REMARK    5  A    between atoms: N_5  and  C_6
REMARK    6  A    between atoms: N_5  and  S_34
REMARK    7  A    between atoms: C_6  and  C_7
REMARK    8  A    between atoms: C_7  and  C_9
REMARK    9  A    between atoms: C_7  and  O_33
REMARK   10  A    between atoms: C_9  and  C_11
REMARK   11  A    between atoms: C_9  and  N_18
REMARK   12  A    between atoms: C_11  and  C_12
REMARK   13  A    between atoms: C_19  and  O_21
REMARK   14  A    between atoms: O_21  and  C_22
REMARK   15  A    between atoms: S_34  and  C_37
REMARK   16  A    between atoms: C_40  and  N_43
REMARK                            x       y       z     vdW  Elec       q    Type
REMARK                         _______ _______ _______ _____ _____    ______ ____
ROOT
ATOM      1  C   UNL     1       6.632  -2.792  25.705  0.00  0.00    +0.151 C 
ENDROOT
BRANCH   1   2
ATOM      2  O   UNL     1       7.134  -3.247  26.969  0.00  0.00    -0.389 OA
ATOM      3  H   UNL     1       7.798  -2.601  27.269  0.00  0.00    +0.210 HD
ENDBRANCH   1   2
BRANCH   1   4
ATOM      4  C   UNL     1       7.779  -2.068  24.964  0.00  0.00    +0.142 C 
BRANCH   4   5
ATOM      5  N   UNL     1       7.786  -2.111  23.456  0.00  0.00    -0.174 NA
BRANCH   5   6
ATOM      6  S   UNL     1       9.383  -1.908  22.819  0.00  0.00    +0.061 S 
ATOM      7  O   UNL     1       9.295  -2.195  21.399  0.00  0.00    -0.153 OA
ATOM      8  O   UNL     1      10.283  -2.667  23.658  0.00  0.00    -0.153 OA
BRANCH   6   9
ATOM      9  C   UNL     1       9.789  -0.188  23.004  0.00  0.00    +0.106 A 
ATOM     10  C   UNL     1       9.628   0.669  21.912  0.00  0.00    +0.030 A 
ATOM     11  C   UNL     1      10.037   2.002  22.007  0.00  0.00    +0.024 A 
ATOM     12  C   UNL     1      10.589   2.499  23.190  0.00  0.00    +0.025 A 
ATOM     13  C   UNL     1      10.852   1.603  24.232  0.00  0.00    +0.024 A 
ATOM     14  C   UNL     1      10.443   0.265  24.151  0.00  0.00    +0.030 A 
BRANCH  12  15
ATOM     15  N   UNL     1      11.086   3.806  23.235  0.00  0.00    -0.358 N 
ATOM     16  H   UNL     1      11.026   4.235  24.153  0.00  0.00    +0.142 HD
ATOM     17  H   UNL     1      12.011   3.909  22.830  0.00  0.00    +0.142 HD
ENDBRANCH  12  15
ENDBRANCH   6   9
ENDBRANCH   5   6
BRANCH   5  18
ATOM     18  C   UNL     1       6.937  -3.170  22.802  0.00  0.00    +0.112 C 
BRANCH  18  20
ATOM     19  C   UNL     1       7.675  -5.363  23.890  0.00  0.00    +0.008 C 
ATOM     20  C   UNL     1       7.617  -4.545  22.607  0.00  0.00    -0.001 C 
ATOM     21  C   UNL     1       6.914  -5.359  21.513  0.00  0.00    +0.008 C 
ENDBRANCH  18  20
ENDBRANCH   5  18
ENDBRANCH   4   5
ENDBRANCH   1   4
BRANCH   1  22
ATOM     22  C   UNL     1       5.334  -1.966  25.929  0.00  0.00    +0.110 C 
BRANCH  22  23
ATOM     23  N   UNL     1       5.496  -0.633  25.373  0.00  0.00    -0.275 N 
ATOM     24  H   UNL     1       5.932  -0.543  24.466  0.00  0.00    +0.152 HD
ATOM     25  C   UNL     1       4.928   0.507  25.831  0.00  0.00    +0.401 C 
ATOM     26  O   UNL     1       4.350   0.690  26.887  0.00  0.00    -0.226 OA
BRANCH  25  27
ATOM     27  O   UNL     1       5.207   1.473  24.931  0.00  0.00    -0.444 OA
BRANCH  27  28
ATOM     28  C   UNL     1       6.428   1.256  24.221  0.00  0.00    +0.212 C 
ATOM     29  C   UNL     1       7.420   2.310  24.597  0.00  0.00    +0.090 C 
ATOM     30  C   UNL     1       7.592   2.967  25.933  0.00  0.00    +0.040 C 
ATOM     31  C   UNL     1       8.213   4.295  25.474  0.00  0.00    +0.163 C 
ATOM     32  O   UNL     1       7.813   4.507  24.090  0.00  0.00    -0.351 OA
ATOM     33  C   UNL     1       6.873   3.478  23.825  0.00  0.00    +0.257 C 
ATOM     34  O   UNL     1       6.721   2.954  22.513  0.00  0.00    -0.347 OA
ATOM     35  C   UNL     1       6.196   1.608  22.727  0.00  0.00    +0.208 C 
ENDBRANCH  27  28
ENDBRANCH  25  27
ENDBRANCH  22  23
BRANCH  22  36
ATOM     36  C   UNL     1       4.038  -2.682  25.480  0.00  0.00    +0.060 C 
BRANCH  36  37
ATOM     37  C   UNL     1       4.142  -4.151  25.106  0.00  0.00    -0.046 A 
ATOM     38  C   UNL     1       4.536  -5.169  25.987  0.00  0.00    +0.004 A 
ATOM     39  C   UNL     1       4.540  -6.506  25.575  0.00  0.00    +0.000 A 
ATOM     40  C   UNL     1       4.157  -6.842  24.279  0.00  0.00    +0.000 A 
ATOM     41  C   UNL     1       3.842  -5.835  23.372  0.00  0.00    +0.000 A 
ATOM     42  C   UNL     1       3.859  -4.502  23.776  0.00  0.00    +0.004 A 
ENDBRANCH  36  37
ENDBRANCH  22  36
ENDBRANCH   1  22
TORSDOF 14
ENDMDL
MODEL 9
REMARK VINA RESULT:      -6.3      2.785      5.599
REMARK  Name = 
REMARK  16 active torsions:
REMARK  status: ('A' for Active; 'I' for Inactive)
REMARK    1  A    between atoms: C_1  and  C_2
REMARK    2  A    between atoms: C_2  and  C_3
REMARK    3  A    between atoms: C_2  and  C_4
REMARK    4  A    between atoms: C_4  and  N_5
REMARK    5  A    between atoms: N_5  and  C_6
REMARK    6  A    between atoms: N_5  and  S_34
REMARK    7  A    between atoms: C_6  and  C_7
REMARK    8  A    between atoms: C_7  and  C_9
REMARK    9  A    between atoms: C_7  and  O_33
REMARK   10  A    between atoms: C_9  and  C_11
REMARK   11  A    between atoms: C_9  and  N_18
REMARK   12  A    between atoms: C_11  and  C_12
REMARK   13  A    between atoms: C_19  and  O_21
REMARK   14  A    between atoms: O_21  and  C_22
REMARK   15  A    between atoms: S_34  and  C_37
REMARK   16  A    between atoms: C_40  and  N_43
REMARK                            x       y       z     vdW  Elec       q    Type
REMARK                         _______ _______ _______ _____ _____    ______ ____
ROOT
ATOM      1  C   UNL     1       9.351  -1.950  22.798  0.00  0.00    +0.151 C 
ENDROOT
BRANCH   1   2
ATOM      2  O   UNL     1      10.144  -1.639  21.644  0.00  0.00    -0.389 OA
ATOM      3  H   UNL     1      10.549  -2.469  21.336  0.00  0.00    +0.210 HD
ENDBRANCH   1   2
BRANCH   1   4
ATOM      4  C   UNL     1       7.957  -2.409  22.315  0.00  0.00    +0.142 C 
BRANCH   4   5
ATOM      5  N   UNL     1       7.312  -3.577  23.020  0.00  0.00    -0.174 NA
BRANCH   5   6
ATOM      6  S   UNL     1       5.977  -4.210  22.118  0.00  0.00    +0.061 S 
ATOM      7  O   UNL     1       6.495  -5.333  21.359  0.00  0.00    -0.153 OA
ATOM      8  O   UNL     1       5.352  -3.100  21.435  0.00  0.00    -0.153 OA
BRANCH   6   9
ATOM      9  C   UNL     1       4.816  -4.842  23.305  0.00  0.00    +0.106 A 
ATOM     10  C   UNL     1       4.172  -3.949  24.166  0.00  0.00    +0.030 A 
ATOM     11  C   UNL     1       3.334  -4.435  25.173  0.00  0.00    +0.024 A 
ATOM     12  C   UNL     1       3.111  -5.806  25.320  0.00  0.00    +0.025 A 
ATOM     13  C   UNL     1       3.852  -6.691  24.529  0.00  0.00    +0.024 A 
ATOM     14  C   UNL     1       4.693  -6.216  23.513  0.00  0.00    +0.030 A 
BRANCH  12  15
ATOM     15  N   UNL     1       2.350  -6.281  26.394  0.00  0.00    -0.358 N 
ATOM     16  H   UNL     1       1.774  -7.085  26.164  0.00  0.00    +0.142 HD
ATOM     17  H   UNL     1       2.887  -6.432  27.243  0.00  0.00    +0.142 HD
ENDBRANCH  12  15
ENDBRANCH   6   9
ENDBRANCH   5   6
BRANCH   5  18
ATOM     18  C   UNL     1       8.237  -4.590  23.644  0.00  0.00    +0.112 C 
BRANCH  18  20
ATOM     19  C   UNL     1       7.298  -5.304  25.913  0.00  0.00    +0.008 C 
ATOM     20  C   UNL     1       8.373  -4.511  25.182  0.00  0.00    -0.001 C 
ATOM     21  C   UNL     1       9.759  -4.987  25.639  0.00  0.00    +0.008 C 
ENDBRANCH  18  20
ENDBRANCH   5  18
ENDBRANCH   4   5
ENDBRANCH   1   4
BRANCH   1  22
ATOM     22  C   UNL     1       9.371  -0.745  23.781  0.00  0.00    +0.110 C 
BRANCH  22  23
ATOM     23  N   UNL     1       8.560   0.338  23.249  0.00  0.00    -0.275 N 
ATOM     24  H   UNL     1       7.630   0.468  23.623  0.00  0.00    +0.152 HD
ATOM     25  C   UNL     1       8.984   1.348  22.453  0.00  0.00    +0.401 C 
ATOM     26  O   UNL     1      10.045   1.449  21.865  0.00  0.00    -0.226 OA
BRANCH  25  27
ATOM     27  O   UNL     1       7.954   2.212  22.334  0.00  0.00    -0.444 OA
BRANCH  27  28
ATOM     28  C   UNL     1       7.836   3.114  23.436  0.00  0.00    +0.212 C 
ATOM     29  C   UNL     1       6.404   3.208  23.854  0.00  0.00    +0.090 C 
ATOM     30  C   UNL     1       5.373   2.120  23.834  0.00  0.00    +0.040 C 
ATOM     31  C   UNL     1       4.108   2.984  23.713  0.00  0.00    +0.163 C 
ATOM     32  O   UNL     1       4.503   4.254  23.123  0.00  0.00    -0.351 OA
ATOM     33  C   UNL     1       5.860   4.072  22.750  0.00  0.00    +0.257 C 
ATOM     34  O   UNL     1       6.761   5.171  22.728  0.00  0.00    -0.347 OA
ATOM     35  C   UNL     1       8.073   4.557  22.916  0.00  0.00    +0.208 C 
ENDBRANCH  27  28
ENDBRANCH  25  27
ENDBRANCH  22  23
BRANCH  22  36
ATOM     36  C   UNL     1       9.044  -1.113  25.248  0.00  0.00    +0.060 C 
BRANCH  36  37
ATOM     37  C   UNL     1       7.705  -0.660  25.803  0.00  0.00    -0.046 A 
ATOM     38  C   UNL     1       6.487  -1.320  25.577  0.00  0.00    +0.004 A 
ATOM     39  C   UNL     1       5.309  -0.869  26.183  0.00  0.00    +0.000 A 
ATOM     40  C   UNL     1       5.332   0.246  27.016  0.00  0.00    +0.000 A 
ATOM     41  C   UNL     1       6.516   0.956  27.183  0.00  0.00    +0.000 A 
ATOM     42  C   UNL     1       7.685   0.520  26.562  0.00  0.00    +0.004 A 
ENDBRANCH  36  37
ENDBRANCH  22  36
ENDBRANCH   1  22
TORSDOF 14
ENDMDL
