MODEL 1
REMARK VINA RESULT:      -7.5      0.000      0.000
REMARK  Name = 
REMARK  7 active torsions:
REMARK  status: ('A' for Active; 'I' for Inactive)
REMARK    1  A    between atoms: C_1  and  O_2
REMARK    2  A    between atoms: O_2  and  C_3
REMARK    3  A    between atoms: C_3  and  O_5
REMARK    4  A    between atoms: O_5  and  C_6
REMARK    5  A    between atoms: C_6  and  O_7
REMARK    6  A    between atoms: O_7  and  C_8
REMARK    7  A    between atoms: N_19  and  C_25
REMARK                            x       y       z     vdW  Elec       q    Type
REMARK                         _______ _______ _______ _____ _____    ______ ____
ROOT
ATOM      1  C   UNL     1       6.712  -3.333  23.802  0.00  0.00    +0.201 A 
ATOM      2  C   UNL     1       5.392  -3.765  24.367  0.00  0.00    +0.224 A 
ATOM      3  O   UNL     1       4.932  -4.894  24.230  0.00  0.00    -0.284 OA
ATOM      4  C   UNL     1       4.607  -2.765  25.094  0.00  0.00    +0.074 A 
ATOM      5  C   UNL     1       5.084  -1.519  25.152  0.00  0.00    +0.113 A 
ATOM      6  N   UNL     1       6.320  -1.083  24.713  0.00  0.00    -0.260 N 
ATOM      7  N   UNL     1       6.948   0.166  25.249  0.00  0.00    -0.236 N 
ATOM      8  C   UNL     1       8.172   0.530  24.430  0.00  0.00    +0.206 C 
ATOM      9  N   UNL     1       9.062  -0.632  24.336  0.00  0.00    -0.272 N 
ATOM     10  C   UNL     1      10.455  -0.414  23.945  0.00  0.00    +0.138 C 
ATOM     11  C   UNL     1      11.080   0.828  24.539  0.00  0.00    +0.179 C 
ATOM     12  O   UNL     1      10.253   1.955  24.254  0.00  0.00    -0.375 OA
ATOM     13  C   UNL     1       8.519  -1.732  23.691  0.00  0.00    +0.270 C 
ATOM     14  O   UNL     1       9.181  -2.402  22.907  0.00  0.00    -0.268 OA
ATOM     15  C   UNL     1       8.956   1.811  24.870  0.00  0.00    +0.203 C 
ATOM     16  C   UNL     1       7.120  -2.065  24.081  0.00  0.00    +0.169 A 
ENDROOT
BRANCH   7  17
ATOM     17  C   UNL     1       5.991   1.387  25.465  0.00  0.00    +0.155 C 
ATOM     18  C   UNL     1       6.001   1.963  26.909  0.00  0.00    -0.008 A 
ATOM     19  C   UNL     1       4.896   2.681  27.410  0.00  0.00    +0.014 A 
ATOM     20  C   UNL     1       4.826   3.089  28.752  0.00  0.00    +0.015 A 
ATOM     21  C   UNL     1       5.849   2.771  29.634  0.00  0.00    +0.001 A 
ATOM     22  C   UNL     1       6.966   2.101  29.162  0.00  0.00    +0.000 A 
ATOM     23  S   UNL     1       3.617   3.287  26.337  0.00  0.00    -0.120 S 
ATOM     24  C   UNL     1       4.698   4.459  25.494  0.00  0.00    +0.112 C 
ATOM     25  C   UNL     1       5.622   3.852  24.466  0.00  0.00    +0.006 A 
ATOM     26  C   UNL     1       6.119   4.799  23.542  0.00  0.00    +0.163 A 
ATOM     27  F   UNL     1       5.960   6.110  23.791  0.00  0.00    -0.202 F 
ATOM     28  C   UNL     1       6.761   4.409  22.384  0.00  0.00    +0.159 A 
ATOM     29  F   UNL     1       7.290   5.323  21.561  0.00  0.00    -0.202 F 
ATOM     30  C   UNL     1       6.826   3.063  22.066  0.00  0.00    +0.041 A 
ATOM     31  C   UNL     1       6.394   2.104  23.000  0.00  0.00    +0.009 A 
ATOM     32  C   UNL     1       7.057   1.743  27.813  0.00  0.00    +0.007 A 
ATOM     33  C   UNL     1       5.965   2.477  24.301  0.00  0.00    -0.014 A 
ENDBRANCH   7  17
BRANCH   1  34
ATOM     34  O   UNL     1       7.442  -4.198  23.012  0.00  0.00    -0.450 OA
BRANCH  34  35
ATOM     35  C   UNL     1       7.762  -5.484  23.531  0.00  0.00    +0.473 C 
BRANCH  35  36
ATOM     36  O   UNL     1       9.032  -5.440  24.184  0.00  0.00    -0.397 OA
BRANCH  36  37
ATOM     37  C   UNL     1       8.918  -5.285  25.525  0.00  0.00    +0.513 C 
ATOM     38  O   UNL     1       9.679  -4.664  26.251  0.00  0.00    -0.203 OA
BRANCH  37  40
ATOM     39  C   UNL     1       7.252  -5.368  27.142  0.00  0.00    +0.284 C 
ATOM     40  O   UNL     1       7.777  -5.903  25.927  0.00  0.00    -0.437 OA
ENDBRANCH  37  40
ENDBRANCH  36  37
ENDBRANCH  35  36
ENDBRANCH  34  35
ENDBRANCH   1  34
TORSDOF 6
ENDMDL
MODEL 2
REMARK VINA RESULT:      -7.3      2.557      4.301
REMARK  Name = 
REMARK  7 active torsions:
REMARK  status: ('A' for Active; 'I' for Inactive)
REMARK    1  A    between atoms: C_1  and  O_2
REMARK    2  A    between atoms: O_2  and  C_3
REMARK    3  A    between atoms: C_3  and  O_5
REMARK    4  A    between atoms: O_5  and  C_6
REMARK    5  A    between atoms: C_6  and  O_7
REMARK    6  A    between atoms: O_7  and  C_8
REMARK    7  A    between atoms: N_19  and  C_25
REMARK                            x       y       z     vdW  Elec       q    Type
REMARK                         _______ _______ _______ _____ _____    ______ ____
ROOT
ATOM      1  C   UNL     1       9.044  -0.014  23.291  0.00  0.00    +0.201 A 
ATOM      2  C   UNL     1       8.810   0.363  21.859  0.00  0.00    +0.224 A 
ATOM      3  O   UNL     1       9.288  -0.248  20.910  0.00  0.00    -0.284 OA
ATOM      4  C   UNL     1       7.988   1.547  21.597  0.00  0.00    +0.074 A 
ATOM      5  C   UNL     1       7.556   2.251  22.646  0.00  0.00    +0.113 A 
ATOM      6  N   UNL     1       7.681   1.913  23.980  0.00  0.00    -0.260 N 
ATOM      7  N   UNL     1       6.766   2.478  25.023  0.00  0.00    -0.236 N 
ATOM      8  C   UNL     1       7.275   2.130  26.409  0.00  0.00    +0.206 C 
ATOM      9  N   UNL     1       7.514   0.686  26.497  0.00  0.00    -0.272 N 
ATOM     10  C   UNL     1       7.623   0.075  27.822  0.00  0.00    +0.138 C 
ATOM     11  C   UNL     1       6.655   0.629  28.843  0.00  0.00    +0.179 C 
ATOM     12  O   UNL     1       6.778   2.050  28.886  0.00  0.00    -0.375 OA
ATOM     13  C   UNL     1       8.484   0.201  25.632  0.00  0.00    +0.270 C 
ATOM     14  O   UNL     1       9.298  -0.640  25.995  0.00  0.00    -0.268 OA
ATOM     15  C   UNL     1       6.421   2.638  27.618  0.00  0.00    +0.203 C 
ATOM     16  C   UNL     1       8.405   0.724  24.239  0.00  0.00    +0.169 A 
ENDROOT
BRANCH   7  17
ATOM     17  C   UNL     1       6.406   3.995  24.882  0.00  0.00    +0.155 C 
ATOM     18  C   UNL     1       7.622   4.919  24.587  0.00  0.00    -0.008 A 
ATOM     19  C   UNL     1       7.589   6.288  24.922  0.00  0.00    +0.014 A 
ATOM     20  C   UNL     1       8.721   7.108  24.794  0.00  0.00    +0.015 A 
ATOM     21  C   UNL     1       9.923   6.577  24.348  0.00  0.00    +0.001 A 
ATOM     22  C   UNL     1       9.976   5.244  23.973  0.00  0.00    +0.000 A 
ATOM     23  S   UNL     1       6.069   7.107  25.339  0.00  0.00    -0.120 S 
ATOM     24  C   UNL     1       5.368   6.928  23.687  0.00  0.00    +0.112 C 
ATOM     25  C   UNL     1       4.832   5.553  23.364  0.00  0.00    +0.006 A 
ATOM     26  C   UNL     1       3.925   5.555  22.280  0.00  0.00    +0.163 A 
ATOM     27  F   UNL     1       3.821   6.648  21.507  0.00  0.00    -0.202 F 
ATOM     28  C   UNL     1       3.135   4.457  22.000  0.00  0.00    +0.159 A 
ATOM     29  F   UNL     1       2.338   4.452  20.924  0.00  0.00    -0.202 F 
ATOM     30  C   UNL     1       3.153   3.372  22.859  0.00  0.00    +0.041 A 
ATOM     31  C   UNL     1       4.092   3.326  23.906  0.00  0.00    +0.009 A 
ATOM     32  C   UNL     1       8.833   4.442  24.051  0.00  0.00    +0.007 A 
ATOM     33  C   UNL     1       5.084   4.331  24.056  0.00  0.00    -0.014 A 
ENDBRANCH   7  17
BRANCH   1  34
ATOM     34  O   UNL     1       9.902  -1.051  23.602  0.00  0.00    -0.450 OA
BRANCH  34  35
ATOM     35  C   UNL     1       9.546  -2.368  23.197  0.00  0.00    +0.473 C 
BRANCH  35  36
ATOM     36  O   UNL     1      10.044  -3.316  24.143  0.00  0.00    -0.397 OA
BRANCH  36  37
ATOM     37  C   UNL     1       9.085  -4.170  24.572  0.00  0.00    +0.513 C 
ATOM     38  O   UNL     1       8.692  -5.171  23.993  0.00  0.00    -0.203 OA
BRANCH  37  40
ATOM     39  C   UNL     1       8.320  -4.826  26.666  0.00  0.00    +0.284 C 
ATOM     40  O   UNL     1       8.658  -3.749  25.792  0.00  0.00    -0.437 OA
ENDBRANCH  37  40
ENDBRANCH  36  37
ENDBRANCH  35  36
ENDBRANCH  34  35
ENDBRANCH   1  34
TORSDOF 6
ENDMDL
MODEL 3
REMARK VINA RESULT:      -7.2      1.450      2.321
REMARK  Name = 
REMARK  7 active torsions:
REMARK  status: ('A' for Active; 'I' for Inactive)
REMARK    1  A    between atoms: C_1  and  O_2
REMARK    2  A    between atoms: O_2  and  C_3
REMARK    3  A    between atoms: C_3  and  O_5
REMARK    4  A    between atoms: O_5  and  C_6
REMARK    5  A    between atoms: C_6  and  O_7
REMARK    6  A    between atoms: O_7  and  C_8
REMARK    7  A    between atoms: N_19  and  C_25
REMARK                            x       y       z     vdW  Elec       q    Type
REMARK                         _______ _______ _______ _____ _____    ______ ____
ROOT
ATOM      1  C   UNL     1       7.682  -4.256  24.911  0.00  0.00    +0.201 A 
ATOM      2  C   UNL     1       6.623  -4.914  25.743  0.00  0.00    +0.224 A 
ATOM      3  O   UNL     1       6.431  -6.124  25.764  0.00  0.00    -0.284 OA
ATOM      4  C   UNL     1       5.757  -4.046  26.545  0.00  0.00    +0.074 A 
ATOM      5  C   UNL     1       5.923  -2.725  26.435  0.00  0.00    +0.113 A 
ATOM      6  N   UNL     1       6.924  -2.071  25.742  0.00  0.00    -0.260 N 
ATOM      7  N   UNL     1       7.315  -0.663  26.072  0.00  0.00    -0.236 N 
ATOM      8  C   UNL     1       8.257  -0.120  25.014  0.00  0.00    +0.206 C 
ATOM      9  N   UNL     1       9.371  -1.055  24.822  0.00  0.00    -0.272 N 
ATOM     10  C   UNL     1      10.582  -0.571  24.160  0.00  0.00    +0.138 C 
ATOM     11  C   UNL     1      10.983   0.835  24.547  0.00  0.00    +0.179 C 
ATOM     12  O   UNL     1       9.872   1.710  24.358  0.00  0.00    -0.375 OA
ATOM     13  C   UNL     1       9.006  -2.310  24.360  0.00  0.00    +0.270 C 
ATOM     14  O   UNL     1       9.664  -2.891  23.506  0.00  0.00    -0.268 OA
ATOM     15  C   UNL     1       8.773   1.343  25.218  0.00  0.00    +0.203 C 
ATOM     16  C   UNL     1       7.816  -2.907  25.029  0.00  0.00    +0.169 A 
ENDROOT
BRANCH   7  17
ATOM     17  C   UNL     1       6.145   0.326  26.394  0.00  0.00    +0.155 C 
ATOM     18  C   UNL     1       6.230   0.988  27.798  0.00  0.00    -0.008 A 
ATOM     19  C   UNL     1       5.073   1.475  28.441  0.00  0.00    +0.014 A 
ATOM     20  C   UNL     1       5.105   1.947  29.763  0.00  0.00    +0.015 A 
ATOM     21  C   UNL     1       6.290   1.925  30.485  0.00  0.00    +0.001 A 
ATOM     22  C   UNL     1       7.451   1.489  29.868  0.00  0.00    +0.000 A 
ATOM     23  S   UNL     1       3.549   1.707  27.560  0.00  0.00    -0.120 S 
ATOM     24  C   UNL     1       4.199   3.029  26.520  0.00  0.00    +0.112 C 
ATOM     25  C   UNL     1       5.080   2.574  25.381  0.00  0.00    +0.006 A 
ATOM     26  C   UNL     1       5.207   3.543  24.360  0.00  0.00    +0.163 A 
ATOM     27  F   UNL     1       4.789   4.799  24.586  0.00  0.00    -0.202 F 
ATOM     28  C   UNL     1       5.748   3.226  23.130  0.00  0.00    +0.159 A 
ATOM     29  F   UNL     1       5.930   4.177  22.204  0.00  0.00    -0.202 F 
ATOM     30  C   UNL     1       6.075   1.911  22.852  0.00  0.00    +0.041 A 
ATOM     31  C   UNL     1       6.014   0.945  23.873  0.00  0.00    +0.009 A 
ATOM     32  C   UNL     1       7.427   1.070  28.534  0.00  0.00    +0.007 A 
ATOM     33  C   UNL     1       5.703   1.301  25.211  0.00  0.00    -0.014 A 
ENDBRANCH   7  17
BRANCH   1  34
ATOM     34  O   UNL     1       8.453  -5.012  24.049  0.00  0.00    -0.450 OA
BRANCH  34  35
ATOM     35  C   UNL     1       7.813  -5.646  22.948  0.00  0.00    +0.473 C 
BRANCH  35  36
ATOM     36  O   UNL     1       7.365  -4.660  22.015  0.00  0.00    -0.397 OA
BRANCH  36  37
ATOM     37  C   UNL     1       6.165  -4.971  21.470  0.00  0.00    +0.513 C 
ATOM     38  O   UNL     1       5.953  -5.818  20.616  0.00  0.00    -0.203 OA
BRANCH  37  40
ATOM     39  C   UNL     1       5.616  -2.844  22.229  0.00  0.00    +0.284 C 
ATOM     40  O   UNL     1       5.216  -4.205  22.072  0.00  0.00    -0.437 OA
ENDBRANCH  37  40
ENDBRANCH  36  37
ENDBRANCH  35  36
ENDBRANCH  34  35
ENDBRANCH   1  34
TORSDOF 6
ENDMDL
MODEL 4
REMARK VINA RESULT:      -6.9      2.705      4.847
REMARK  Name = 
REMARK  7 active torsions:
REMARK  status: ('A' for Active; 'I' for Inactive)
REMARK    1  A    between atoms: C_1  and  O_2
REMARK    2  A    between atoms: O_2  and  C_3
REMARK    3  A    between atoms: C_3  and  O_5
REMARK    4  A    between atoms: O_5  and  C_6
REMARK    5  A    between atoms: C_6  and  O_7
REMARK    6  A    between atoms: O_7  and  C_8
REMARK    7  A    between atoms: N_19  and  C_25
REMARK                            x       y       z     vdW  Elec       q    Type
REMARK                         _______ _______ _______ _____ _____    ______ ____
ROOT
ATOM      1  C   UNL     1       9.271  -0.305  24.790  0.00  0.00    +0.201 A 
ATOM      2  C   UNL     1       8.432  -1.084  25.757  0.00  0.00    +0.224 A 
ATOM      3  O   UNL     1       8.552  -2.290  25.941  0.00  0.00    -0.284 OA
ATOM      4  C   UNL     1       7.395  -0.356  26.493  0.00  0.00    +0.074 A 
ATOM      5  C   UNL     1       7.220   0.937  26.208  0.00  0.00    +0.113 A 
ATOM      6  N   UNL     1       8.006   1.718  25.382  0.00  0.00    -0.260 N 
ATOM      7  N   UNL     1       8.038   3.210  25.510  0.00  0.00    -0.236 N 
ATOM      8  C   UNL     1       8.786   3.819  24.339  0.00  0.00    +0.206 C 
ATOM      9  N   UNL     1      10.095   3.171  24.202  0.00  0.00    -0.272 N 
ATOM     10  C   UNL     1      11.128   3.844  23.416  0.00  0.00    +0.138 C 
ATOM     11  C   UNL     1      11.171   5.345  23.599  0.00  0.00    +0.179 C 
ATOM     12  O   UNL     1       9.871   5.885  23.366  0.00  0.00    -0.375 OA
ATOM     13  C   UNL     1      10.047   1.814  23.924  0.00  0.00    +0.270 C 
ATOM     14  O   UNL     1      10.810   1.302  23.112  0.00  0.00    -0.268 OA
ATOM     15  C   UNL     1       8.921   5.378  24.327  0.00  0.00    +0.203 C 
ATOM     16  C   UNL     1       9.062   1.038  24.730  0.00  0.00    +0.169 A 
ENDROOT
BRANCH   7  17
ATOM     17  C   UNL     1       6.663   3.914  25.771  0.00  0.00    +0.155 C 
ATOM     18  C   UNL     1       5.679   3.867  24.568  0.00  0.00    -0.008 A 
ATOM     19  C   UNL     1       4.660   4.832  24.428  0.00  0.00    +0.014 A 
ATOM     20  C   UNL     1       3.852   4.893  23.282  0.00  0.00    +0.015 A 
ATOM     21  C   UNL     1       4.054   4.004  22.236  0.00  0.00    +0.001 A 
ATOM     22  C   UNL     1       5.021   3.019  22.361  0.00  0.00    +0.000 A 
ATOM     23  S   UNL     1       4.204   5.903  25.770  0.00  0.00    -0.120 S 
ATOM     24  C   UNL     1       3.558   4.565  26.791  0.00  0.00    +0.112 C 
ATOM     25  C   UNL     1       4.605   3.726  27.485  0.00  0.00    +0.006 A 
ATOM     26  C   UNL     1       4.091   3.000  28.583  0.00  0.00    +0.163 A 
ATOM     27  F   UNL     1       2.762   2.907  28.750  0.00  0.00    -0.202 F 
ATOM     28  C   UNL     1       4.927   2.386  29.496  0.00  0.00    +0.159 A 
ATOM     29  F   UNL     1       4.419   1.640  30.485  0.00  0.00    -0.202 F 
ATOM     30  C   UNL     1       6.294   2.574  29.395  0.00  0.00    +0.041 A 
ATOM     31  C   UNL     1       6.827   3.240  28.276  0.00  0.00    +0.009 A 
ATOM     32  C   UNL     1       5.788   2.928  23.526  0.00  0.00    +0.007 A 
ATOM     33  C   UNL     1       6.001   3.656  27.199  0.00  0.00    -0.014 A 
ENDBRANCH   7  17
BRANCH   1  34
ATOM     34  O   UNL     1      10.186  -0.957  23.987  0.00  0.00    -0.450 OA
BRANCH  34  35
ATOM     35  C   UNL     1       9.729  -2.035  23.177  0.00  0.00    +0.473 C 
BRANCH  35  36
ATOM     36  O   UNL     1       8.624  -1.607  22.380  0.00  0.00    -0.397 OA
BRANCH  36  37
ATOM     37  C   UNL     1       7.591  -2.482  22.416  0.00  0.00    +0.513 C 
ATOM     38  O   UNL     1       7.652  -3.685  22.213  0.00  0.00    -0.203 OA
BRANCH  37  40
ATOM     39  C   UNL     1       5.699  -2.465  23.764  0.00  0.00    +0.284 C 
ATOM     40  O   UNL     1       6.469  -1.799  22.764  0.00  0.00    -0.437 OA
ENDBRANCH  37  40
ENDBRANCH  36  37
ENDBRANCH  35  36
ENDBRANCH  34  35
ENDBRANCH   1  34
TORSDOF 6
ENDMDL
MODEL 5
REMARK VINA RESULT:      -6.9      2.491      4.321
REMARK  Name = 
REMARK  7 active torsions:
REMARK  status: ('A' for Active; 'I' for Inactive)
REMARK    1  A    between atoms: C_1  and  O_2
REMARK    2  A    between atoms: O_2  and  C_3
REMARK    3  A    between atoms: C_3  and  O_5
REMARK    4  A    between atoms: O_5  and  C_6
REMARK    5  A    between atoms: C_6  and  O_7
REMARK    6  A    between atoms: O_7  and  C_8
REMARK    7  A    between atoms: N_19  and  C_25
REMARK                            x       y       z     vdW  Elec       q    Type
REMARK                         _______ _______ _______ _____ _____    ______ ____
ROOT
ATOM      1  C   UNL     1       6.943  -3.464  26.755  0.00  0.00    +0.201 A 
ATOM      2  C   UNL     1       8.241  -3.347  26.015  0.00  0.00    +0.224 A 
ATOM      3  O   UNL     1       9.021  -4.281  25.861  0.00  0.00    -0.284 OA
ATOM      4  C   UNL     1       8.598  -2.032  25.478  0.00  0.00    +0.074 A 
ATOM      5  C   UNL     1       7.779  -1.009  25.738  0.00  0.00    +0.113 A 
ATOM      6  N   UNL     1       6.542  -1.073  26.351  0.00  0.00    -0.260 N 
ATOM      7  N   UNL     1       5.514  -0.001  26.157  0.00  0.00    -0.236 N 
ATOM      8  C   UNL     1       4.361  -0.202  27.121  0.00  0.00    +0.206 C 
ATOM      9  N   UNL     1       3.864  -1.578  27.014  0.00  0.00    -0.272 N 
ATOM     10  C   UNL     1       2.535  -1.883  27.542  0.00  0.00    +0.138 C 
ATOM     11  C   UNL     1       1.503  -0.807  27.290  0.00  0.00    +0.179 C 
ATOM     12  O   UNL     1       2.002   0.444  27.762  0.00  0.00    -0.375 OA
ATOM     13  C   UNL     1       4.784  -2.558  27.353  0.00  0.00    +0.270 C 
ATOM     14  O   UNL     1       4.457  -3.539  28.011  0.00  0.00    -0.268 OA
ATOM     15  C   UNL     1       3.189   0.832  27.039  0.00  0.00    +0.203 C 
ATOM     16  C   UNL     1       6.153  -2.357  26.800  0.00  0.00    +0.169 A 
ENDROOT
BRANCH   7  17
ATOM     17  C   UNL     1       6.040   1.474  26.154  0.00  0.00    +0.155 C 
ATOM     18  C   UNL     1       6.624   1.950  27.514  0.00  0.00    -0.008 A 
ATOM     19  C   UNL     1       6.666   3.321  27.844  0.00  0.00    +0.014 A 
ATOM     20  C   UNL     1       7.057   3.762  29.118  0.00  0.00    +0.015 A 
ATOM     21  C   UNL     1       7.395   2.846  30.103  0.00  0.00    +0.001 A 
ATOM     22  C   UNL     1       7.402   1.494  29.797  0.00  0.00    +0.000 A 
ATOM     23  S   UNL     1       6.419   4.580  26.616  0.00  0.00    -0.120 S 
ATOM     24  C   UNL     1       7.932   4.183  25.717  0.00  0.00    +0.112 C 
ATOM     25  C   UNL     1       7.852   2.957  24.839  0.00  0.00    +0.006 A 
ATOM     26  C   UNL     1       8.856   2.923  23.845  0.00  0.00    +0.163 A 
ATOM     27  F   UNL     1       9.889   3.779  23.921  0.00  0.00    -0.202 F 
ATOM     28  C   UNL     1       8.798   2.032  22.792  0.00  0.00    +0.159 A 
ATOM     29  F   UNL     1       9.799   1.966  21.904  0.00  0.00    -0.202 F 
ATOM     30  C   UNL     1       7.682   1.228  22.645  0.00  0.00    +0.041 A 
ATOM     31  C   UNL     1       6.702   1.203  23.655  0.00  0.00    +0.009 A 
ATOM     32  C   UNL     1       7.064   1.060  28.512  0.00  0.00    +0.007 A 
ATOM     33  C   UNL     1       6.869   1.923  24.867  0.00  0.00    -0.014 A 
ENDBRANCH   7  17
BRANCH   1  34
ATOM     34  O   UNL     1       6.608  -4.650  27.380  0.00  0.00    -0.450 OA
BRANCH  34  35
ATOM     35  C   UNL     1       6.380  -5.799  26.573  0.00  0.00    +0.473 C 
BRANCH  35  36
ATOM     36  O   UNL     1       5.213  -5.605  25.772  0.00  0.00    -0.397 OA
BRANCH  36  37
ATOM     37  C   UNL     1       5.325  -6.175  24.549  0.00  0.00    +0.513 C 
ATOM     38  O   UNL     1       4.712  -7.151  24.144  0.00  0.00    -0.203 OA
BRANCH  37  40
ATOM     39  C   UNL     1       5.635  -4.259  23.272  0.00  0.00    +0.284 C 
ATOM     40  O   UNL     1       6.210  -5.444  23.821  0.00  0.00    -0.437 OA
ENDBRANCH  37  40
ENDBRANCH  36  37
ENDBRANCH  35  36
ENDBRANCH  34  35
ENDBRANCH   1  34
TORSDOF 6
ENDMDL
MODEL 6
REMARK VINA RESULT:      -6.8      4.370      7.760
REMARK  Name = 
REMARK  7 active torsions:
REMARK  status: ('A' for Active; 'I' for Inactive)
REMARK    1  A    between atoms: C_1  and  O_2
REMARK    2  A    between atoms: O_2  and  C_3
REMARK    3  A    between atoms: C_3  and  O_5
REMARK    4  A    between atoms: O_5  and  C_6
REMARK    5  A    between atoms: C_6  and  O_7
REMARK    6  A    between atoms: O_7  and  C_8
REMARK    7  A    between atoms: N_19  and  C_25
REMARK                            x       y       z     vdW  Elec       q    Type
REMARK                         _______ _______ _______ _____ _____    ______ ____
ROOT
ATOM      1  C   UNL     1       3.675  -1.068  28.359  0.00  0.00    +0.201 A 
ATOM      2  C   UNL     1       3.976   0.120  27.496  0.00  0.00    +0.224 A 
ATOM      3  O   UNL     1       3.455   1.219  27.649  0.00  0.00    -0.284 OA
ATOM      4  C   UNL     1       4.923  -0.067  26.394  0.00  0.00    +0.074 A 
ATOM      5  C   UNL     1       5.407  -1.295  26.189  0.00  0.00    +0.113 A 
ATOM      6  N   UNL     1       5.220  -2.404  26.991  0.00  0.00    -0.260 N 
ATOM      7  N   UNL     1       6.169  -3.562  26.962  0.00  0.00    -0.236 N 
ATOM      8  C   UNL     1       5.599  -4.725  27.752  0.00  0.00    +0.206 C 
ATOM      9  N   UNL     1       5.207  -4.266  29.088  0.00  0.00    -0.272 N 
ATOM     10  C   UNL     1       5.008  -5.264  30.139  0.00  0.00    +0.138 C 
ATOM     11  C   UNL     1       6.009  -6.398  30.118  0.00  0.00    +0.179 C 
ATOM     12  O   UNL     1       6.037  -6.978  28.814  0.00  0.00    -0.375 OA
ATOM     13  C   UNL     1       4.209  -3.304  29.105  0.00  0.00    +0.270 C 
ATOM     14  O   UNL     1       3.303  -3.340  29.930  0.00  0.00    -0.268 OA
ATOM     15  C   UNL     1       6.479  -6.018  27.832  0.00  0.00    +0.203 C 
ATOM     16  C   UNL     1       4.370  -2.211  28.106  0.00  0.00    +0.169 A 
ENDROOT
BRANCH   7  17
ATOM     17  C   UNL     1       6.691  -3.998  25.551  0.00  0.00    +0.155 C 
ATOM     18  C   UNL     1       5.583  -4.505  24.585  0.00  0.00    -0.008 A 
ATOM     19  C   UNL     1       5.893  -5.377  23.521  0.00  0.00    +0.014 A 
ATOM     20  C   UNL     1       4.893  -5.957  22.725  0.00  0.00    +0.015 A 
ATOM     21  C   UNL     1       3.554  -5.698  22.984  0.00  0.00    +0.001 A 
ATOM     22  C   UNL     1       3.220  -4.814  23.998  0.00  0.00    +0.000 A 
ATOM     23  S   UNL     1       7.569  -5.642  22.995  0.00  0.00    -0.120 S 
ATOM     24  C   UNL     1       7.789  -3.952  22.404  0.00  0.00    +0.112 C 
ATOM     25  C   UNL     1       8.024  -2.922  23.483  0.00  0.00    +0.006 A 
ATOM     26  C   UNL     1       8.613  -1.734  22.993  0.00  0.00    +0.163 A 
ATOM     27  F   UNL     1       8.667  -1.521  21.668  0.00  0.00    -0.202 F 
ATOM     28  C   UNL     1       9.142  -0.787  23.847  0.00  0.00    +0.159 A 
ATOM     29  F   UNL     1       9.626   0.366  23.365  0.00  0.00    -0.202 F 
ATOM     30  C   UNL     1       9.193  -1.051  25.205  0.00  0.00    +0.041 A 
ATOM     31  C   UNL     1       8.558  -2.197  25.717  0.00  0.00    +0.009 A 
ATOM     32  C   UNL     1       4.220  -4.196  24.755  0.00  0.00    +0.007 A 
ATOM     33  C   UNL     1       7.790  -3.053  24.884  0.00  0.00    -0.014 A 
ENDBRANCH   7  17
BRANCH   1  34
ATOM     34  O   UNL     1       2.706  -0.983  29.340  0.00  0.00    -0.450 OA
BRANCH  34  35
ATOM     35  C   UNL     1       1.356  -0.775  28.942  0.00  0.00    +0.473 C 
BRANCH  35  36
ATOM     36  O   UNL     1       0.885  -1.913  28.218  0.00  0.00    -0.397 OA
BRANCH  36  37
ATOM     37  C   UNL     1       0.748  -1.663  26.894  0.00  0.00    +0.513 C 
ATOM     38  O   UNL     1       0.661  -0.564  26.368  0.00  0.00    -0.203 OA
BRANCH  37  40
ATOM     39  C   UNL     1       1.191  -3.937  27.057  0.00  0.00    +0.284 C 
ATOM     40  O   UNL     1       0.769  -2.851  26.234  0.00  0.00    -0.437 OA
ENDBRANCH  37  40
ENDBRANCH  36  37
ENDBRANCH  35  36
ENDBRANCH  34  35
ENDBRANCH   1  34
TORSDOF 6
ENDMDL
MODEL 7
REMARK VINA RESULT:      -6.8      2.377      3.966
REMARK  Name = 
REMARK  7 active torsions:
REMARK  status: ('A' for Active; 'I' for Inactive)
REMARK    1  A    between atoms: C_1  and  O_2
REMARK    2  A    between atoms: O_2  and  C_3
REMARK    3  A    between atoms: C_3  and  O_5
REMARK    4  A    between atoms: O_5  and  C_6
REMARK    5  A    between atoms: C_6  and  O_7
REMARK    6  A    between atoms: O_7  and  C_8
REMARK    7  A    between atoms: N_19  and  C_25
REMARK                            x       y       z     vdW  Elec       q    Type
REMARK                         _______ _______ _______ _____ _____    ______ ____
ROOT
ATOM      1  C   UNL     1       6.772  -1.732  23.662  0.00  0.00    +0.201 A 
ATOM      2  C   UNL     1       5.706  -2.283  24.560  0.00  0.00    +0.224 A 
ATOM      3  O   UNL     1       5.284  -3.432  24.486  0.00  0.00    -0.284 OA
ATOM      4  C   UNL     1       5.125  -1.378  25.554  0.00  0.00    +0.074 A 
ATOM      5  C   UNL     1       5.533  -0.106  25.555  0.00  0.00    +0.113 A 
ATOM      6  N   UNL     1       6.557   0.436  24.802  0.00  0.00    -0.260 N 
ATOM      7  N   UNL     1       7.252   1.696  25.214  0.00  0.00    -0.236 N 
ATOM      8  C   UNL     1       8.155   2.185  24.097  0.00  0.00    +0.206 C 
ATOM      9  N   UNL     1       9.034   1.094  23.663  0.00  0.00    -0.272 N 
ATOM     10  C   UNL     1      10.233   1.428  22.894  0.00  0.00    +0.138 C 
ATOM     11  C   UNL     1      10.943   2.678  23.361  0.00  0.00    +0.179 C 
ATOM     12  O   UNL     1      10.012   3.758  23.413  0.00  0.00    -0.375 OA
ATOM     13  C   UNL     1       8.380  -0.006  23.133  0.00  0.00    +0.270 C 
ATOM     14  O   UNL     1       8.809  -0.588  22.143  0.00  0.00    -0.268 OA
ATOM     15  C   UNL     1       8.968   3.494  24.374  0.00  0.00    +0.203 C 
ATOM     16  C   UNL     1       7.180  -0.455  23.894  0.00  0.00    +0.169 A 
ENDROOT
BRANCH   7  17
ATOM     17  C   UNL     1       6.343   2.835  25.788  0.00  0.00    +0.155 C 
ATOM     18  C   UNL     1       5.331   3.426  24.766  0.00  0.00    -0.008 A 
ATOM     19  C   UNL     1       4.818   4.729  24.926  0.00  0.00    +0.014 A 
ATOM     20  C   UNL     1       4.015   5.333  23.945  0.00  0.00    +0.015 A 
ATOM     21  C   UNL     1       3.722   4.659  22.768  0.00  0.00    +0.001 A 
ATOM     22  C   UNL     1       4.179   3.362  22.599  0.00  0.00    +0.000 A 
ATOM     23  S   UNL     1       4.988   5.614  26.457  0.00  0.00    -0.120 S 
ATOM     24  C   UNL     1       3.923   4.486  27.377  0.00  0.00    +0.112 C 
ATOM     25  C   UNL     1       4.565   3.177  27.771  0.00  0.00    +0.006 A 
ATOM     26  C   UNL     1       3.890   2.527  28.829  0.00  0.00    +0.163 A 
ATOM     27  F   UNL     1       2.669   2.954  29.195  0.00  0.00    -0.202 F 
ATOM     28  C   UNL     1       4.458   1.463  29.501  0.00  0.00    +0.159 A 
ATOM     29  F   UNL     1       3.769   0.814  30.449  0.00  0.00    -0.202 F 
ATOM     30  C   UNL     1       5.758   1.093  29.207  0.00  0.00    +0.041 A 
ATOM     31  C   UNL     1       6.424   1.686  28.118  0.00  0.00    +0.009 A 
ATOM     32  C   UNL     1       4.933   2.743  23.601  0.00  0.00    +0.007 A 
ATOM     33  C   UNL     1       5.764   2.601  27.256  0.00  0.00    -0.014 A 
ENDBRANCH   7  17
BRANCH   1  34
ATOM     34  O   UNL     1       7.275  -2.503  22.632  0.00  0.00    -0.450 OA
BRANCH  34  35
ATOM     35  C   UNL     1       7.945  -3.715  22.959  0.00  0.00    +0.473 C 
BRANCH  35  36
ATOM     36  O   UNL     1       8.954  -3.462  23.938  0.00  0.00    -0.397 OA
BRANCH  36  37
ATOM     37  C   UNL     1       9.058  -4.464  24.843  0.00  0.00    +0.513 C 
ATOM     38  O   UNL     1       9.443  -5.603  24.625  0.00  0.00    -0.203 OA
BRANCH  37  40
ATOM     39  C   UNL     1       7.751  -4.795  26.735  0.00  0.00    +0.284 C 
ATOM     40  O   UNL     1       8.702  -3.973  26.060  0.00  0.00    -0.437 OA
ENDBRANCH  37  40
ENDBRANCH  36  37
ENDBRANCH  35  36
ENDBRANCH  34  35
ENDBRANCH   1  34
TORSDOF 6
ENDMDL
MODEL 8
REMARK VINA RESULT:      -6.8      1.751      3.861
REMARK  Name = 
REMARK  7 active torsions:
REMARK  status: ('A' for Active; 'I' for Inactive)
REMARK    1  A    between atoms: C_1  and  O_2
REMARK    2  A    between atoms: O_2  and  C_3
REMARK    3  A    between atoms: C_3  and  O_5
REMARK    4  A    between atoms: O_5  and  C_6
REMARK    5  A    between atoms: C_6  and  O_7
REMARK    6  A    between atoms: O_7  and  C_8
REMARK    7  A    between atoms: N_19  and  C_25
REMARK                            x       y       z     vdW  Elec       q    Type
REMARK                         _______ _______ _______ _____ _____    ______ ____
ROOT
ATOM      1  C   UNL     1       8.100  -2.634  25.088  0.00  0.00    +0.201 A 
ATOM      2  C   UNL     1       9.067  -1.823  24.279  0.00  0.00    +0.224 A 
ATOM      3  O   UNL     1      10.065  -2.293  23.744  0.00  0.00    -0.284 OA
ATOM      4  C   UNL     1       8.808  -0.386  24.157  0.00  0.00    +0.074 A 
ATOM      5  C   UNL     1       7.768   0.119  24.824  0.00  0.00    +0.113 A 
ATOM      6  N   UNL     1       6.808  -0.588  25.523  0.00  0.00    -0.260 N 
ATOM      7  N   UNL     1       5.456  -0.009  25.804  0.00  0.00    -0.236 N 
ATOM      8  C   UNL     1       4.701  -0.892  26.779  0.00  0.00    +0.206 C 
ATOM      9  N   UNL     1       4.705  -2.276  26.293  0.00  0.00    -0.272 N 
ATOM     10  C   UNL     1       3.726  -3.212  26.845  0.00  0.00    +0.138 C 
ATOM     11  C   UNL     1       2.355  -2.616  27.074  0.00  0.00    +0.179 C 
ATOM     12  O   UNL     1       2.481  -1.433  27.862  0.00  0.00    -0.375 OA
ATOM     13  C   UNL     1       5.960  -2.855  26.191  0.00  0.00    +0.270 C 
ATOM     14  O   UNL     1       6.157  -4.015  26.532  0.00  0.00    -0.268 OA
ATOM     15  C   UNL     1       3.257  -0.432  27.170  0.00  0.00    +0.203 C 
ATOM     16  C   UNL     1       7.006  -1.989  25.577  0.00  0.00    +0.169 A 
ENDROOT
BRANCH   7  17
ATOM     17  C   UNL     1       5.419   1.502  26.214  0.00  0.00    +0.155 C 
ATOM     18  C   UNL     1       6.158   1.824  27.544  0.00  0.00    -0.008 A 
ATOM     19  C   UNL     1       5.817   2.961  28.305  0.00  0.00    +0.014 A 
ATOM     20  C   UNL     1       6.371   3.195  29.573  0.00  0.00    +0.015 A 
ATOM     21  C   UNL     1       7.266   2.289  30.124  0.00  0.00    +0.001 A 
ATOM     22  C   UNL     1       7.651   1.182  29.383  0.00  0.00    +0.000 A 
ATOM     23  S   UNL     1       4.818   4.266  27.630  0.00  0.00    -0.120 S 
ATOM     24  C   UNL     1       6.059   4.766  26.420  0.00  0.00    +0.112 C 
ATOM     25  C   UNL     1       6.164   3.876  25.205  0.00  0.00    +0.006 A 
ATOM     26  C   UNL     1       6.797   4.508  24.111  0.00  0.00    +0.163 A 
ATOM     27  F   UNL     1       7.449   5.666  24.304  0.00  0.00    -0.202 F 
ATOM     28  C   UNL     1       6.757   3.963  22.842  0.00  0.00    +0.159 A 
ATOM     29  F   UNL     1       7.429   4.538  21.836  0.00  0.00    -0.202 F 
ATOM     30  C   UNL     1       5.992   2.833  22.614  0.00  0.00    +0.041 A 
ATOM     31  C   UNL     1       5.406   2.156  23.699  0.00  0.00    +0.009 A 
ATOM     32  C   UNL     1       7.138   0.980  28.098  0.00  0.00    +0.007 A 
ATOM     33  C   UNL     1       5.647   2.556  25.040  0.00  0.00    -0.014 A 
ENDBRANCH   7  17
BRANCH   1  34
ATOM     34  O   UNL     1       8.353  -3.970  25.333  0.00  0.00    -0.450 OA
BRANCH  34  35
ATOM     35  C   UNL     1       8.454  -4.854  24.223  0.00  0.00    +0.473 C 
BRANCH  35  36
ATOM     36  O   UNL     1       7.157  -5.090  23.672  0.00  0.00    -0.397 OA
BRANCH  36  37
ATOM     37  C   UNL     1       7.140  -4.977  22.322  0.00  0.00    +0.513 C 
ATOM     38  O   UNL     1       7.186  -5.893  21.516  0.00  0.00    -0.203 OA
BRANCH  37  40
ATOM     39  C   UNL     1       5.698  -3.158  22.225  0.00  0.00    +0.284 C 
ATOM     40  O   UNL     1       7.017  -3.660  22.010  0.00  0.00    -0.437 OA
ENDBRANCH  37  40
ENDBRANCH  36  37
ENDBRANCH  35  36
ENDBRANCH  34  35
ENDBRANCH   1  34
TORSDOF 6
ENDMDL
MODEL 9
REMARK VINA RESULT:      -6.7      4.271      7.026
REMARK  Name = 
REMARK  7 active torsions:
REMARK  status: ('A' for Active; 'I' for Inactive)
REMARK    1  A    between atoms: C_1  and  O_2
REMARK    2  A    between atoms: O_2  and  C_3
REMARK    3  A    between atoms: C_3  and  O_5
REMARK    4  A    between atoms: O_5  and  C_6
REMARK    5  A    between atoms: C_6  and  O_7
REMARK    6  A    between atoms: O_7  and  C_8
REMARK    7  A    between atoms: N_19  and  C_25
REMARK                            x       y       z     vdW  Elec       q    Type
REMARK                         _______ _______ _______ _____ _____    ______ ____
ROOT
ATOM      1  C   UNL     1       7.359  -0.988  22.709  0.00  0.00    +0.201 A 
ATOM      2  C   UNL     1       7.283   0.435  23.174  0.00  0.00    +0.224 A 
ATOM      3  O   UNL     1       7.846   1.365  22.607  0.00  0.00    -0.284 OA
ATOM      4  C   UNL     1       6.516   0.709  24.392  0.00  0.00    +0.074 A 
ATOM      5  C   UNL     1       5.989  -0.330  25.044  0.00  0.00    +0.113 A 
ATOM      6  N   UNL     1       5.968  -1.647  24.626  0.00  0.00    -0.260 N 
ATOM      7  N   UNL     1       4.960  -2.622  25.152  0.00  0.00    -0.236 N 
ATOM      8  C   UNL     1       5.314  -4.029  24.712  0.00  0.00    +0.206 C 
ATOM      9  N   UNL     1       5.515  -4.054  23.260  0.00  0.00    -0.272 N 
ATOM     10  C   UNL     1       5.473  -5.344  22.571  0.00  0.00    +0.138 C 
ATOM     11  C   UNL     1       4.414  -6.291  23.089  0.00  0.00    +0.179 C 
ATOM     12  O   UNL     1       4.559  -6.433  24.501  0.00  0.00    -0.375 OA
ATOM     13  C   UNL     1       6.560  -3.267  22.802  0.00  0.00    +0.270 C 
ATOM     14  O   UNL     1       7.316  -3.661  21.921  0.00  0.00    -0.268 OA
ATOM     15  C   UNL     1       4.348  -5.172  25.171  0.00  0.00    +0.203 C 
ATOM     16  C   UNL     1       6.638  -1.907  23.407  0.00  0.00    +0.169 A 
ENDROOT
BRANCH   7  17
ATOM     17  C   UNL     1       4.646  -2.536  26.684  0.00  0.00    +0.155 C 
ATOM     18  C   UNL     1       3.145  -2.303  27.020  0.00  0.00    -0.008 A 
ATOM     19  C   UNL     1       2.760  -1.713  28.241  0.00  0.00    +0.014 A 
ATOM     20  C   UNL     1       1.425  -1.366  28.505  0.00  0.00    +0.015 A 
ATOM     21  C   UNL     1       0.444  -1.578  27.548  0.00  0.00    +0.001 A 
ATOM     22  C   UNL     1       0.785  -2.192  26.353  0.00  0.00    +0.000 A 
ATOM     23  S   UNL     1       3.897  -1.554  29.596  0.00  0.00    -0.120 S 
ATOM     24  C   UNL     1       4.033  -3.332  29.862  0.00  0.00    +0.112 C 
ATOM     25  C   UNL     1       4.916  -4.062  28.878  0.00  0.00    +0.006 A 
ATOM     26  C   UNL     1       5.347  -5.321  29.351  0.00  0.00    +0.163 A 
ATOM     27  F   UNL     1       4.766  -5.852  30.440  0.00  0.00    -0.202 F 
ATOM     28  C   UNL     1       6.358  -6.020  28.721  0.00  0.00    +0.159 A 
ATOM     29  F   UNL     1       6.698  -7.246  29.141  0.00  0.00    -0.202 F 
ATOM     30  C   UNL     1       7.037  -5.430  27.670  0.00  0.00    +0.041 A 
ATOM     31  C   UNL     1       6.584  -4.205  27.146  0.00  0.00    +0.009 A 
ATOM     32  C   UNL     1       2.105  -2.586  26.114  0.00  0.00    +0.007 A 
ATOM     33  C   UNL     1       5.391  -3.595  27.616  0.00  0.00    -0.014 A 
ENDBRANCH   7  17
BRANCH   1  34
ATOM     34  O   UNL     1       8.159  -1.322  21.634  0.00  0.00    -0.450 OA
BRANCH  34  35
ATOM     35  C   UNL     1       9.533  -0.951  21.671  0.00  0.00    +0.473 C 
BRANCH  35  36
ATOM     36  O   UNL     1      10.308  -2.017  22.222  0.00  0.00    -0.397 OA
BRANCH  36  37
ATOM     37  C   UNL     1      10.203  -2.088  23.571  0.00  0.00    +0.513 C 
ATOM     38  O   UNL     1      10.214  -1.148  24.351  0.00  0.00    -0.203 OA
BRANCH  37  40
ATOM     39  C   UNL     1       9.399  -3.559  25.180  0.00  0.00    +0.284 C 
ATOM     40  O   UNL     1      10.036  -3.393  23.914  0.00  0.00    -0.437 OA
ENDBRANCH  37  40
ENDBRANCH  36  37
ENDBRANCH  35  36
ENDBRANCH  34  35
ENDBRANCH   1  34
TORSDOF 6
ENDMDL
