MODEL 1
REMARK VINA RESULT:      -6.5      0.000      0.000
REMARK  Name = 
REMARK  18 active torsions:
REMARK  status: ('A' for Active; 'I' for Inactive)
REMARK    1  A    between atoms: C_1  and  C_2
REMARK    2  A    between atoms: C_2  and  C_40
REMARK    3  A    between atoms: C_7  and  C_26
REMARK    4  A    between atoms: C_10  and  C_12
REMARK    5  A    between atoms: C_12  and  C_14
REMARK    6  A    between atoms: C_12  and  N_18
REMARK    7  A    between atoms: C_14  and  C_15
REMARK    8  A    between atoms: C_14  and  C_16
REMARK    9  A    between atoms: C_14  and  C_17
REMARK   10  A    between atoms: N_21  and  C_22
REMARK   11  A    between atoms: C_22  and  C_23
REMARK   12  A    between atoms: C_22  and  C_24
REMARK   13  A    between atoms: C_22  and  C_25
REMARK   14  A    between atoms: N_28  and  C_29
REMARK   15  A    between atoms: C_29  and  C_30
REMARK   16  A    between atoms: C_29  and  C_35
REMARK   17  A    between atoms: C_30  and  C_31
REMARK   18  A    between atoms: C_35  and  C_37
REMARK                            x       y       z     vdW  Elec       q    Type
REMARK                         _______ _______ _______ _____ _____    ______ ____
ROOT
ATOM      1  C   UNL     1       9.419   0.599  21.523  0.00  0.00    +0.011 C 
ATOM      2  C   UNL     1       9.439  -0.226  22.797  0.00  0.00    -0.025 C 
ATOM      3  C   UNL     1       9.780   0.578  24.014  0.00  0.00    +0.011 C 
ATOM      4  C   UNL     1       8.360  -1.273  22.842  0.00  0.00    +0.030 C 
ATOM      5  C   UNL     1       7.793  -2.056  23.984  0.00  0.00    +0.166 C 
ATOM      6  N   UNL     1       8.715  -3.149  24.178  0.00  0.00    -0.288 N 
ATOM      7  C   UNL     1       8.367  -4.478  24.383  0.00  0.00    +0.237 C 
ATOM      8  O   UNL     1       9.275  -5.320  24.369  0.00  0.00    -0.274 OA
ATOM      9  C   UNL     1      10.056  -2.706  23.790  0.00  0.00    +0.113 C 
ATOM     10  C   UNL     1       9.795  -1.711  22.683  0.00  0.00    +0.018 C 
ENDROOT
BRANCH   5  11
ATOM     11  C   UNL     1       7.448  -1.358  25.308  0.00  0.00    +0.234 C 
ATOM     12  N   UNL     1       6.523  -0.330  25.198  0.00  0.00    -0.304 N 
ATOM     13  H   UNL     1       6.009  -0.258  24.323  0.00  0.00    +0.149 HD
ATOM     14  O   UNL     1       7.993  -1.635  26.378  0.00  0.00    -0.274 OA
BRANCH  12  15
ATOM     15  C   UNL     1       6.036   0.430  26.344  0.00  0.00    +0.149 C 
BRANCH  15  16
ATOM     16  C   UNL     1       4.573   0.098  26.630  0.00  0.00    +0.237 C 
ATOM     17  O   UNL     1       3.624   0.846  26.379  0.00  0.00    -0.285 OA
BRANCH  16  18
ATOM     18  C   UNL     1       4.317  -1.272  27.279  0.00  0.00    +0.279 C 
ATOM     19  N   UNL     1       4.125  -1.249  28.625  0.00  0.00    -0.323 N 
ATOM     20  H   UNL     1       3.930  -2.120  29.114  0.00  0.00    +0.145 HD
ATOM     21  H   UNL     1       4.127  -0.380  29.136  0.00  0.00    +0.145 HD
ATOM     22  O   UNL     1       4.289  -2.296  26.613  0.00  0.00    -0.267 OA
ENDBRANCH  16  18
ENDBRANCH  15  16
BRANCH  15  23
ATOM     23  C   UNL     1       6.324   1.932  26.224  0.00  0.00    +0.034 C 
BRANCH  23  24
ATOM     24  C   UNL     1       7.298   2.362  25.121  0.00  0.00    -0.009 C 
ATOM     25  C   UNL     1       7.977   3.711  25.485  0.00  0.00    +0.003 C 
ATOM     26  C   UNL     1       7.758   4.208  24.055  0.00  0.00    +0.001 C 
ATOM     27  C   UNL     1       6.821   3.020  23.800  0.00  0.00    +0.003 C 
ENDBRANCH  23  24
ENDBRANCH  15  23
ENDBRANCH  12  15
ENDBRANCH   5  11
BRANCH   7  28
ATOM     28  C   UNL     1       6.877  -4.941  24.833  0.00  0.00    +0.166 C 
BRANCH  28  29
ATOM     29  N   UNL     1       6.293  -4.437  26.097  0.00  0.00    -0.288 N 
ATOM     30  H   UNL     1       6.325  -3.443  26.271  0.00  0.00    +0.151 HD
ATOM     31  C   UNL     1       6.092  -5.240  27.178  0.00  0.00    +0.301 C 
ATOM     32  N   UNL     1       5.379  -4.660  28.194  0.00  0.00    -0.295 N 
ATOM     33  H   UNL     1       4.815  -3.859  27.922  0.00  0.00    +0.151 HD
ATOM     34  O   UNL     1       6.332  -6.439  27.167  0.00  0.00    -0.253 OA
BRANCH  32  35
ATOM     35  C   UNL     1       4.829  -5.515  29.262  0.00  0.00    +0.028 C 
ATOM     36  C   UNL     1       3.809  -6.548  28.730  0.00  0.00    +0.031 C 
ATOM     37  C   UNL     1       4.089  -4.626  30.270  0.00  0.00    +0.031 C 
ATOM     38  C   UNL     1       5.970  -6.254  29.993  0.00  0.00    +0.031 C 
ENDBRANCH  32  35
ENDBRANCH  28  29
BRANCH  28  39
ATOM     39  C   UNL     1       5.784  -5.140  23.678  0.00  0.00    -0.011 C 
ATOM     40  C   UNL     1       6.531  -5.276  22.324  0.00  0.00    +0.013 C 
ATOM     41  C   UNL     1       4.820  -3.942  23.589  0.00  0.00    +0.013 C 
ATOM     42  C   UNL     1       4.862  -6.373  23.805  0.00  0.00    +0.013 C 
ENDBRANCH  28  39
ENDBRANCH   7  28
TORSDOF 10
ENDMDL
MODEL 2
REMARK VINA RESULT:      -6.3      1.008      1.693
REMARK  Name = 
REMARK  18 active torsions:
REMARK  status: ('A' for Active; 'I' for Inactive)
REMARK    1  A    between atoms: C_1  and  C_2
REMARK    2  A    between atoms: C_2  and  C_40
REMARK    3  A    between atoms: C_7  and  C_26
REMARK    4  A    between atoms: C_10  and  C_12
REMARK    5  A    between atoms: C_12  and  C_14
REMARK    6  A    between atoms: C_12  and  N_18
REMARK    7  A    between atoms: C_14  and  C_15
REMARK    8  A    between atoms: C_14  and  C_16
REMARK    9  A    between atoms: C_14  and  C_17
REMARK   10  A    between atoms: N_21  and  C_22
REMARK   11  A    between atoms: C_22  and  C_23
REMARK   12  A    between atoms: C_22  and  C_24
REMARK   13  A    between atoms: C_22  and  C_25
REMARK   14  A    between atoms: N_28  and  C_29
REMARK   15  A    between atoms: C_29  and  C_30
REMARK   16  A    between atoms: C_29  and  C_35
REMARK   17  A    between atoms: C_30  and  C_31
REMARK   18  A    between atoms: C_35  and  C_37
REMARK                            x       y       z     vdW  Elec       q    Type
REMARK                         _______ _______ _______ _____ _____    ______ ____
ROOT
ATOM      1  C   UNL     1       9.641   0.821  21.916  0.00  0.00    +0.011 C 
ATOM      2  C   UNL     1       9.556  -0.101  23.119  0.00  0.00    -0.025 C 
ATOM      3  C   UNL     1       9.809   0.602  24.418  0.00  0.00    +0.011 C 
ATOM      4  C   UNL     1       8.468  -1.133  23.000  0.00  0.00    +0.030 C 
ATOM      5  C   UNL     1       7.810  -1.994  24.031  0.00  0.00    +0.166 C 
ATOM      6  N   UNL     1       8.706  -3.112  24.208  0.00  0.00    -0.288 N 
ATOM      7  C   UNL     1       8.333  -4.448  24.281  0.00  0.00    +0.237 C 
ATOM      8  O   UNL     1       9.233  -5.298  24.270  0.00  0.00    -0.274 OA
ATOM      9  C   UNL     1      10.076  -2.658  23.959  0.00  0.00    +0.113 C 
ATOM     10  C   UNL     1       9.908  -1.577  22.917  0.00  0.00    +0.018 C 
ENDROOT
BRANCH   5  11
ATOM     11  C   UNL     1       7.370  -1.396  25.375  0.00  0.00    +0.234 C 
ATOM     12  N   UNL     1       6.426  -0.384  25.279  0.00  0.00    -0.304 N 
ATOM     13  H   UNL     1       5.962  -0.264  24.381  0.00  0.00    +0.149 HD
ATOM     14  O   UNL     1       7.858  -1.734  26.455  0.00  0.00    -0.274 OA
BRANCH  12  15
ATOM     15  C   UNL     1       5.852   0.285  26.442  0.00  0.00    +0.149 C 
BRANCH  15  16
ATOM     16  C   UNL     1       4.362  -0.026  26.563  0.00  0.00    +0.237 C 
ATOM     17  O   UNL     1       3.459   0.789  26.355  0.00  0.00    -0.285 OA
BRANCH  16  18
ATOM     18  C   UNL     1       4.015  -1.464  26.979  0.00  0.00    +0.279 C 
ATOM     19  N   UNL     1       3.643  -1.617  28.278  0.00  0.00    -0.323 N 
ATOM     20  H   UNL     1       3.380  -2.542  28.614  0.00  0.00    +0.145 HD
ATOM     21  H   UNL     1       3.581  -0.826  28.899  0.00  0.00    +0.145 HD
ATOM     22  O   UNL     1       4.071  -2.388  26.182  0.00  0.00    -0.267 OA
ENDBRANCH  16  18
ENDBRANCH  15  16
BRANCH  15  23
ATOM     23  C   UNL     1       6.185   1.782  26.487  0.00  0.00    +0.034 C 
BRANCH  23  24
ATOM     24  C   UNL     1       7.146   2.242  27.589  0.00  0.00    -0.009 C 
ATOM     25  C   UNL     1       7.172   1.217  28.757  0.00  0.00    +0.003 C 
ATOM     26  C   UNL     1       7.106   2.365  29.766  0.00  0.00    +0.001 C 
ATOM     27  C   UNL     1       6.764   3.331  28.624  0.00  0.00    +0.003 C 
ENDBRANCH  23  24
ENDBRANCH  15  23
ENDBRANCH  12  15
ENDBRANCH   5  11
BRANCH   7  28
ATOM     28  C   UNL     1       6.809  -4.923  24.579  0.00  0.00    +0.166 C 
BRANCH  28  29
ATOM     29  N   UNL     1       6.117  -4.473  25.807  0.00  0.00    -0.288 N 
ATOM     30  H   UNL     1       5.952  -3.483  25.923  0.00  0.00    +0.151 HD
ATOM     31  C   UNL     1       6.056  -5.237  26.932  0.00  0.00    +0.301 C 
ATOM     32  N   UNL     1       5.227  -4.751  27.908  0.00  0.00    -0.295 N 
ATOM     33  H   UNL     1       4.524  -4.091  27.587  0.00  0.00    +0.151 HD
ATOM     34  O   UNL     1       6.524  -6.365  26.993  0.00  0.00    -0.253 OA
BRANCH  32  35
ATOM     35  C   UNL     1       4.834  -5.634  29.022  0.00  0.00    +0.028 C 
ATOM     36  C   UNL     1       3.882  -6.766  28.573  0.00  0.00    +0.031 C 
ATOM     37  C   UNL     1       4.085  -4.800  30.070  0.00  0.00    +0.031 C 
ATOM     38  C   UNL     1       6.088  -6.250  29.679  0.00  0.00    +0.031 C 
ENDBRANCH  32  35
ENDBRANCH  28  29
BRANCH  28  39
ATOM     39  C   UNL     1       5.821  -5.069  23.326  0.00  0.00    -0.011 C 
ATOM     40  C   UNL     1       4.906  -6.299  23.571  0.00  0.00    +0.013 C 
ATOM     41  C   UNL     1       6.593  -5.286  22.010  0.00  0.00    +0.013 C 
ATOM     42  C   UNL     1       4.890  -3.870  23.037  0.00  0.00    +0.013 C 
ENDBRANCH  28  39
ENDBRANCH   7  28
TORSDOF 10
ENDMDL
MODEL 3
REMARK VINA RESULT:      -5.9      1.438      2.601
REMARK  Name = 
REMARK  18 active torsions:
REMARK  status: ('A' for Active; 'I' for Inactive)
REMARK    1  A    between atoms: C_1  and  C_2
REMARK    2  A    between atoms: C_2  and  C_40
REMARK    3  A    between atoms: C_7  and  C_26
REMARK    4  A    between atoms: C_10  and  C_12
REMARK    5  A    between atoms: C_12  and  C_14
REMARK    6  A    between atoms: C_12  and  N_18
REMARK    7  A    between atoms: C_14  and  C_15
REMARK    8  A    between atoms: C_14  and  C_16
REMARK    9  A    between atoms: C_14  and  C_17
REMARK   10  A    between atoms: N_21  and  C_22
REMARK   11  A    between atoms: C_22  and  C_23
REMARK   12  A    between atoms: C_22  and  C_24
REMARK   13  A    between atoms: C_22  and  C_25
REMARK   14  A    between atoms: N_28  and  C_29
REMARK   15  A    between atoms: C_29  and  C_30
REMARK   16  A    between atoms: C_29  and  C_35
REMARK   17  A    between atoms: C_30  and  C_31
REMARK   18  A    between atoms: C_35  and  C_37
REMARK                            x       y       z     vdW  Elec       q    Type
REMARK                         _______ _______ _______ _____ _____    ______ ____
ROOT
ATOM      1  C   UNL     1       9.690   0.581  21.526  0.00  0.00    +0.011 C 
ATOM      2  C   UNL     1       9.531  -0.226  22.802  0.00  0.00    -0.025 C 
ATOM      3  C   UNL     1       9.684   0.598  24.043  0.00  0.00    +0.011 C 
ATOM      4  C   UNL     1       8.466  -1.284  22.704  0.00  0.00    +0.030 C 
ATOM      5  C   UNL     1       7.746  -2.058  23.763  0.00  0.00    +0.166 C 
ATOM      6  N   UNL     1       8.639  -3.139  24.104  0.00  0.00    -0.288 N 
ATOM      7  C   UNL     1       8.277  -4.469  24.276  0.00  0.00    +0.237 C 
ATOM      8  O   UNL     1       9.185  -5.301  24.406  0.00  0.00    -0.274 OA
ATOM      9  C   UNL     1      10.019  -2.686  23.909  0.00  0.00    +0.113 C 
ATOM     10  C   UNL     1       9.912  -1.709  22.762  0.00  0.00    +0.018 C 
ENDROOT
BRANCH   5  11
ATOM     11  C   UNL     1       7.206  -1.347  25.012  0.00  0.00    +0.234 C 
ATOM     12  N   UNL     1       6.526  -0.164  24.758  0.00  0.00    -0.304 N 
ATOM     13  H   UNL     1       6.266   0.025  23.793  0.00  0.00    +0.149 HD
ATOM     14  O   UNL     1       7.411  -1.749  26.158  0.00  0.00    -0.274 OA
BRANCH  12  15
ATOM     15  C   UNL     1       5.904   0.639  25.806  0.00  0.00    +0.149 C 
BRANCH  15  16
ATOM     16  C   UNL     1       4.899   1.620  25.209  0.00  0.00    +0.237 C 
ATOM     17  O   UNL     1       3.798   1.881  25.703  0.00  0.00    -0.285 OA
BRANCH  16  18
ATOM     18  C   UNL     1       5.331   2.303  23.902  0.00  0.00    +0.279 C 
ATOM     19  N   UNL     1       4.315   2.669  23.075  0.00  0.00    -0.323 N 
ATOM     20  H   UNL     1       4.532   3.144  22.202  0.00  0.00    +0.145 HD
ATOM     21  H   UNL     1       3.353   2.518  23.335  0.00  0.00    +0.145 HD
ATOM     22  O   UNL     1       6.510   2.497  23.645  0.00  0.00    -0.267 OA
ENDBRANCH  16  18
ENDBRANCH  15  16
BRANCH  15  23
ATOM     23  C   UNL     1       6.933   1.288  26.741  0.00  0.00    +0.034 C 
BRANCH  23  24
ATOM     24  C   UNL     1       6.563   1.366  28.227  0.00  0.00    -0.009 C 
ATOM     25  C   UNL     1       5.520   0.272  28.589  0.00  0.00    +0.003 C 
ATOM     26  C   UNL     1       4.725   1.298  29.399  0.00  0.00    +0.001 C 
ATOM     27  C   UNL     1       5.571   2.420  28.782  0.00  0.00    +0.003 C 
ENDBRANCH  23  24
ENDBRANCH  15  23
ENDBRANCH  12  15
ENDBRANCH   5  11
BRANCH   7  28
ATOM     28  C   UNL     1       6.741  -4.941  24.511  0.00  0.00    +0.166 C 
BRANCH  28  29
ATOM     29  N   UNL     1       5.970  -4.416  25.660  0.00  0.00    -0.288 N 
ATOM     30  H   UNL     1       5.819  -3.419  25.714  0.00  0.00    +0.151 HD
ATOM     31  C   UNL     1       5.809  -5.121  26.813  0.00  0.00    +0.301 C 
ATOM     32  N   UNL     1       4.921  -4.571  27.699  0.00  0.00    -0.295 N 
ATOM     33  H   UNL     1       4.258  -3.915  27.294  0.00  0.00    +0.151 HD
ATOM     34  O   UNL     1       6.246  -6.253  26.965  0.00  0.00    -0.253 OA
BRANCH  32  35
ATOM     35  C   UNL     1       4.428  -5.389  28.822  0.00  0.00    +0.028 C 
ATOM     36  C   UNL     1       3.734  -6.687  28.350  0.00  0.00    +0.031 C 
ATOM     37  C   UNL     1       3.385  -4.576  29.602  0.00  0.00    +0.031 C 
ATOM     38  C   UNL     1       5.591  -5.747  29.771  0.00  0.00    +0.031 C 
ENDBRANCH  32  35
ENDBRANCH  28  29
BRANCH  28  39
ATOM     39  C   UNL     1       5.835  -5.184  23.212  0.00  0.00    -0.011 C 
ATOM     40  C   UNL     1       4.925  -3.941  23.018  0.00  0.00    +0.013 C 
ATOM     41  C   UNL     1       4.939  -6.429  23.362  0.00  0.00    +0.013 C 
ATOM     42  C   UNL     1       6.583  -5.402  21.878  0.00  0.00    +0.013 C 
ENDBRANCH  28  39
ENDBRANCH   7  28
TORSDOF 10
ENDMDL
MODEL 4
REMARK VINA RESULT:      -5.9      2.140      6.014
REMARK  Name = 
REMARK  18 active torsions:
REMARK  status: ('A' for Active; 'I' for Inactive)
REMARK    1  A    between atoms: C_1  and  C_2
REMARK    2  A    between atoms: C_2  and  C_40
REMARK    3  A    between atoms: C_7  and  C_26
REMARK    4  A    between atoms: C_10  and  C_12
REMARK    5  A    between atoms: C_12  and  C_14
REMARK    6  A    between atoms: C_12  and  N_18
REMARK    7  A    between atoms: C_14  and  C_15
REMARK    8  A    between atoms: C_14  and  C_16
REMARK    9  A    between atoms: C_14  and  C_17
REMARK   10  A    between atoms: N_21  and  C_22
REMARK   11  A    between atoms: C_22  and  C_23
REMARK   12  A    between atoms: C_22  and  C_24
REMARK   13  A    between atoms: C_22  and  C_25
REMARK   14  A    between atoms: N_28  and  C_29
REMARK   15  A    between atoms: C_29  and  C_30
REMARK   16  A    between atoms: C_29  and  C_35
REMARK   17  A    between atoms: C_30  and  C_31
REMARK   18  A    between atoms: C_35  and  C_37
REMARK                            x       y       z     vdW  Elec       q    Type
REMARK                         _______ _______ _______ _____ _____    ______ ____
ROOT
ATOM      1  C   UNL     1       7.518  -5.846  21.888  0.00  0.00    +0.011 C 
ATOM      2  C   UNL     1       6.948  -4.770  22.795  0.00  0.00    -0.025 C 
ATOM      3  C   UNL     1       6.143  -5.323  23.931  0.00  0.00    +0.011 C 
ATOM      4  C   UNL     1       7.886  -3.614  23.005  0.00  0.00    +0.030 C 
ATOM      5  C   UNL     1       7.904  -2.535  24.041  0.00  0.00    +0.166 C 
ATOM      6  N   UNL     1       6.964  -1.549  23.566  0.00  0.00    -0.288 N 
ATOM      7  C   UNL     1       7.166  -0.175  23.552  0.00  0.00    +0.237 C 
ATOM      8  O   UNL     1       6.331   0.525  22.963  0.00  0.00    -0.274 OA
ATOM      9  C   UNL     1       5.920  -2.229  22.796  0.00  0.00    +0.113 C 
ATOM     10  C   UNL     1       6.643  -3.403  22.178  0.00  0.00    +0.018 C 
ENDROOT
BRANCH   5  11
ATOM     11  C   UNL     1       7.675  -2.877  25.521  0.00  0.00    +0.234 C 
ATOM     12  N   UNL     1       6.343  -2.919  25.907  0.00  0.00    -0.304 N 
ATOM     13  H   UNL     1       5.644  -2.928  25.168  0.00  0.00    +0.149 HD
ATOM     14  O   UNL     1       8.594  -3.036  26.326  0.00  0.00    -0.274 OA
BRANCH  12  15
ATOM     15  C   UNL     1       5.915  -3.263  27.259  0.00  0.00    +0.149 C 
BRANCH  15  16
ATOM     16  C   UNL     1       5.577  -4.749  27.357  0.00  0.00    +0.237 C 
ATOM     17  O   UNL     1       4.524  -5.254  26.956  0.00  0.00    -0.285 OA
BRANCH  16  18
ATOM     18  C   UNL     1       6.649  -5.634  28.011  0.00  0.00    +0.279 C 
ATOM     19  N   UNL     1       7.733  -5.900  27.234  0.00  0.00    -0.323 N 
ATOM     20  H   UNL     1       8.491  -6.464  27.615  0.00  0.00    +0.145 HD
ATOM     21  H   UNL     1       7.819  -5.511  26.308  0.00  0.00    +0.145 HD
ATOM     22  O   UNL     1       6.519  -6.054  29.151  0.00  0.00    -0.267 OA
ENDBRANCH  16  18
ENDBRANCH  15  16
BRANCH  15  23
ATOM     23  C   UNL     1       4.813  -2.334  27.785  0.00  0.00    +0.034 C 
BRANCH  23  24
ATOM     24  C   UNL     1       3.712  -1.940  26.795  0.00  0.00    -0.009 C 
ATOM     25  C   UNL     1       3.006  -0.634  27.252  0.00  0.00    +0.003 C 
ATOM     26  C   UNL     1       1.646  -1.253  26.925  0.00  0.00    +0.001 C 
ATOM     27  C   UNL     1       2.320  -2.624  26.783  0.00  0.00    +0.003 C 
ENDBRANCH  23  24
ENDBRANCH  15  23
ENDBRANCH  12  15
ENDBRANCH   5  11
BRANCH   7  28
ATOM     28  C   UNL     1       8.319   0.556  24.432  0.00  0.00    +0.166 C 
BRANCH  28  29
ATOM     29  N   UNL     1       8.408   0.313  25.889  0.00  0.00    -0.288 N 
ATOM     30  H   UNL     1       8.952  -0.477  26.206  0.00  0.00    +0.151 HD
ATOM     31  C   UNL     1       7.505   0.824  26.770  0.00  0.00    +0.301 C 
ATOM     32  N   UNL     1       7.836   0.656  28.089  0.00  0.00    -0.295 N 
ATOM     33  H   UNL     1       8.822   0.480  28.266  0.00  0.00    +0.151 HD
ATOM     34  O   UNL     1       6.589   1.558  26.429  0.00  0.00    -0.253 OA
BRANCH  32  35
ATOM     35  C   UNL     1       7.116   1.433  29.114  0.00  0.00    +0.028 C 
ATOM     36  C   UNL     1       6.982   2.927  28.741  0.00  0.00    +0.031 C 
ATOM     37  C   UNL     1       7.905   1.363  30.429  0.00  0.00    +0.031 C 
ATOM     38  C   UNL     1       5.711   0.836  29.345  0.00  0.00    +0.031 C 
ENDBRANCH  32  35
ENDBRANCH  28  29
BRANCH  28  39
ATOM     39  C   UNL     1       9.753   0.762  23.747  0.00  0.00    -0.011 C 
ATOM     40  C   UNL     1      10.844   0.465  24.810  0.00  0.00    +0.013 C 
ATOM     41  C   UNL     1       9.943   2.204  23.238  0.00  0.00    +0.013 C 
ATOM     42  C   UNL     1      10.069  -0.126  22.523  0.00  0.00    +0.013 C 
ENDBRANCH  28  39
ENDBRANCH   7  28
TORSDOF 10
ENDMDL
MODEL 5
REMARK VINA RESULT:      -5.8      1.934      6.003
REMARK  Name = 
REMARK  18 active torsions:
REMARK  status: ('A' for Active; 'I' for Inactive)
REMARK    1  A    between atoms: C_1  and  C_2
REMARK    2  A    between atoms: C_2  and  C_40
REMARK    3  A    between atoms: C_7  and  C_26
REMARK    4  A    between atoms: C_10  and  C_12
REMARK    5  A    between atoms: C_12  and  C_14
REMARK    6  A    between atoms: C_12  and  N_18
REMARK    7  A    between atoms: C_14  and  C_15
REMARK    8  A    between atoms: C_14  and  C_16
REMARK    9  A    between atoms: C_14  and  C_17
REMARK   10  A    between atoms: N_21  and  C_22
REMARK   11  A    between atoms: C_22  and  C_23
REMARK   12  A    between atoms: C_22  and  C_24
REMARK   13  A    between atoms: C_22  and  C_25
REMARK   14  A    between atoms: N_28  and  C_29
REMARK   15  A    between atoms: C_29  and  C_30
REMARK   16  A    between atoms: C_29  and  C_35
REMARK   17  A    between atoms: C_30  and  C_31
REMARK   18  A    between atoms: C_35  and  C_37
REMARK                            x       y       z     vdW  Elec       q    Type
REMARK                         _______ _______ _______ _____ _____    ______ ____
ROOT
ATOM      1  C   UNL     1      10.518   2.104  22.865  0.00  0.00    +0.011 C 
ATOM      2  C   UNL     1       9.088   1.596  22.913  0.00  0.00    -0.025 C 
ATOM      3  C   UNL     1       8.758   0.659  21.792  0.00  0.00    +0.011 C 
ATOM      4  C   UNL     1       8.601   1.329  24.311  0.00  0.00    +0.030 C 
ATOM      5  C   UNL     1       7.439   0.532  24.814  0.00  0.00    +0.166 C 
ATOM      6  N   UNL     1       6.304   1.418  24.701  0.00  0.00    -0.288 N 
ATOM      7  C   UNL     1       5.324   1.609  25.667  0.00  0.00    +0.237 C 
ATOM      8  O   UNL     1       4.509   2.523  25.486  0.00  0.00    -0.274 OA
ATOM      9  C   UNL     1       6.528   2.324  23.572  0.00  0.00    +0.113 C 
ATOM     10  C   UNL     1       8.029   2.500  23.551  0.00  0.00    +0.018 C 
ENDROOT
BRANCH   5  11
ATOM     11  C   UNL     1       7.139  -0.857  24.231  0.00  0.00    +0.234 C 
ATOM     12  N   UNL     1       8.014  -1.856  24.634  0.00  0.00    -0.304 N 
ATOM     13  H   UNL     1       8.631  -1.646  25.414  0.00  0.00    +0.149 HD
ATOM     14  O   UNL     1       6.238  -1.065  23.416  0.00  0.00    -0.274 OA
BRANCH  12  15
ATOM     15  C   UNL     1       7.877  -3.249  24.221  0.00  0.00    +0.149 C 
BRANCH  15  16
ATOM     16  C   UNL     1       8.748  -4.156  25.086  0.00  0.00    +0.237 C 
ATOM     17  O   UNL     1       9.870  -4.561  24.767  0.00  0.00    -0.285 OA
BRANCH  16  18
ATOM     18  C   UNL     1       8.141  -4.570  26.436  0.00  0.00    +0.279 C 
ATOM     19  N   UNL     1       8.314  -5.877  26.772  0.00  0.00    -0.323 N 
ATOM     20  H   UNL     1       7.954  -6.212  27.664  0.00  0.00    +0.145 HD
ATOM     21  H   UNL     1       8.831  -6.504  26.176  0.00  0.00    +0.145 HD
ATOM     22  O   UNL     1       7.552  -3.767  27.142  0.00  0.00    -0.267 OA
ENDBRANCH  16  18
ENDBRANCH  15  16
BRANCH  15  23
ATOM     23  C   UNL     1       8.078  -3.441  22.712  0.00  0.00    +0.034 C 
BRANCH  23  24
ATOM     24  C   UNL     1       7.094  -4.375  21.998  0.00  0.00    -0.009 C 
ATOM     25  C   UNL     1       5.761  -4.473  22.789  0.00  0.00    +0.003 C 
ATOM     26  C   UNL     1       5.748  -5.989  22.579  0.00  0.00    +0.001 C 
ATOM     27  C   UNL     1       7.200  -5.919  22.087  0.00  0.00    +0.003 C 
ENDBRANCH  23  24
ENDBRANCH  15  23
ENDBRANCH  12  15
ENDBRANCH   5  11
BRANCH   7  28
ATOM     28  C   UNL     1       5.084   0.577  26.897  0.00  0.00    +0.166 C 
BRANCH  28  29
ATOM     29  N   UNL     1       5.349  -0.868  26.717  0.00  0.00    -0.288 N 
ATOM     30  H   UNL     1       6.303  -1.159  26.556  0.00  0.00    +0.151 HD
ATOM     31  C   UNL     1       4.374  -1.749  26.362  0.00  0.00    +0.301 C 
ATOM     32  N   UNL     1       4.747  -3.066  26.417  0.00  0.00    -0.295 N 
ATOM     33  H   UNL     1       5.553  -3.261  27.005  0.00  0.00    +0.151 HD
ATOM     34  O   UNL     1       3.205  -1.420  26.215  0.00  0.00    -0.253 OA
BRANCH  32  35
ATOM     35  C   UNL     1       3.706  -4.109  26.369  0.00  0.00    +0.028 C 
ATOM     36  C   UNL     1       2.785  -4.086  27.610  0.00  0.00    +0.031 C 
ATOM     37  C   UNL     1       4.388  -5.483  26.336  0.00  0.00    +0.031 C 
ATOM     38  C   UNL     1       2.850  -3.948  25.094  0.00  0.00    +0.031 C 
ENDBRANCH  32  35
ENDBRANCH  28  29
BRANCH  28  39
ATOM     39  C   UNL     1       5.431   1.094  28.374  0.00  0.00    -0.011 C 
ATOM     40  C   UNL     1       6.973   1.064  28.548  0.00  0.00    +0.013 C 
ATOM     41  C   UNL     1       4.797   0.199  29.457  0.00  0.00    +0.013 C 
ATOM     42  C   UNL     1       4.969   2.524  28.732  0.00  0.00    +0.013 C 
ENDBRANCH  28  39
ENDBRANCH   7  28
TORSDOF 10
ENDMDL
MODEL 6
REMARK VINA RESULT:      -5.7      2.965      8.610
REMARK  Name = 
REMARK  18 active torsions:
REMARK  status: ('A' for Active; 'I' for Inactive)
REMARK    1  A    between atoms: C_1  and  C_2
REMARK    2  A    between atoms: C_2  and  C_40
REMARK    3  A    between atoms: C_7  and  C_26
REMARK    4  A    between atoms: C_10  and  C_12
REMARK    5  A    between atoms: C_12  and  C_14
REMARK    6  A    between atoms: C_12  and  N_18
REMARK    7  A    between atoms: C_14  and  C_15
REMARK    8  A    between atoms: C_14  and  C_16
REMARK    9  A    between atoms: C_14  and  C_17
REMARK   10  A    between atoms: N_21  and  C_22
REMARK   11  A    between atoms: C_22  and  C_23
REMARK   12  A    between atoms: C_22  and  C_24
REMARK   13  A    between atoms: C_22  and  C_25
REMARK   14  A    between atoms: N_28  and  C_29
REMARK   15  A    between atoms: C_29  and  C_30
REMARK   16  A    between atoms: C_29  and  C_35
REMARK   17  A    between atoms: C_30  and  C_31
REMARK   18  A    between atoms: C_35  and  C_37
REMARK                            x       y       z     vdW  Elec       q    Type
REMARK                         _______ _______ _______ _____ _____    ______ ____
ROOT
ATOM      1  C   UNL     1       4.068  -3.164  26.165  0.00  0.00    +0.011 C 
ATOM      2  C   UNL     1       5.103  -2.126  26.561  0.00  0.00    -0.025 C 
ATOM      3  C   UNL     1       6.443  -2.720  26.873  0.00  0.00    +0.011 C 
ATOM      4  C   UNL     1       4.989  -0.847  25.778  0.00  0.00    +0.030 C 
ATOM      5  C   UNL     1       5.955   0.278  25.582  0.00  0.00    +0.166 C 
ATOM      6  N   UNL     1       5.804   1.106  26.754  0.00  0.00    -0.288 N 
ATOM      7  C   UNL     1       5.715   2.492  26.764  0.00  0.00    +0.237 C 
ATOM      8  O   UNL     1       5.424   3.043  27.834  0.00  0.00    -0.274 OA
ATOM      9  C   UNL     1       5.420   0.254  27.883  0.00  0.00    +0.113 C 
ATOM     10  C   UNL     1       4.609  -0.845  27.238  0.00  0.00    +0.018 C 
ENDROOT
BRANCH   5  11
ATOM     11  C   UNL     1       7.432  -0.012  25.274  0.00  0.00    +0.234 C 
ATOM     12  N   UNL     1       7.664  -0.592  24.035  0.00  0.00    -0.304 N 
ATOM     13  H   UNL     1       6.895  -0.588  23.369  0.00  0.00    +0.149 HD
ATOM     14  O   UNL     1       8.340   0.187  26.083  0.00  0.00    -0.274 OA
BRANCH  12  15
ATOM     15  C   UNL     1       8.999  -0.909  23.541  0.00  0.00    +0.149 C 
BRANCH  15  16
ATOM     16  C   UNL     1       9.330  -0.073  22.307  0.00  0.00    +0.237 C 
ATOM     17  O   UNL     1       9.442  -0.526  21.164  0.00  0.00    -0.285 OA
BRANCH  16  18
ATOM     18  C   UNL     1       9.533   1.430  22.557  0.00  0.00    +0.279 C 
ATOM     19  N   UNL     1       9.297   2.233  21.485  0.00  0.00    -0.323 N 
ATOM     20  H   UNL     1       9.393   3.241  21.588  0.00  0.00    +0.145 HD
ATOM     21  H   UNL     1       8.985   1.850  20.607  0.00  0.00    +0.145 HD
ATOM     22  O   UNL     1       9.879   1.852  23.650  0.00  0.00    -0.267 OA
ENDBRANCH  16  18
ENDBRANCH  15  16
BRANCH  15  23
ATOM     23  C   UNL     1       9.217  -2.416  23.352  0.00  0.00    +0.034 C 
BRANCH  23  24
ATOM     24  C   UNL     1       7.990  -3.318  23.524  0.00  0.00    -0.009 C 
ATOM     25  C   UNL     1       8.402  -4.697  24.110  0.00  0.00    +0.003 C 
ATOM     26  C   UNL     1       7.491  -5.398  23.101  0.00  0.00    +0.001 C 
ATOM     27  C   UNL     1       7.342  -4.076  22.337  0.00  0.00    +0.003 C 
ENDBRANCH  23  24
ENDBRANCH  15  23
ENDBRANCH  12  15
ENDBRANCH   5  11
BRANCH   7  28
ATOM     28  C   UNL     1       6.168   3.413  25.506  0.00  0.00    +0.166 C 
BRANCH  28  29
ATOM     29  N   UNL     1       7.595   3.503  25.125  0.00  0.00    -0.288 N 
ATOM     30  H   UNL     1       8.139   2.651  25.122  0.00  0.00    +0.151 HD
ATOM     31  C   UNL     1       8.291   4.671  25.173  0.00  0.00    +0.301 C 
ATOM     32  N   UNL     1       9.542   4.615  24.617  0.00  0.00    -0.295 N 
ATOM     33  H   UNL     1       9.687   3.850  23.963  0.00  0.00    +0.151 HD
ATOM     34  O   UNL     1       7.777   5.736  25.485  0.00  0.00    -0.253 OA
BRANCH  32  35
ATOM     35  C   UNL     1      10.254   5.872  24.324  0.00  0.00    +0.028 C 
ATOM     36  C   UNL     1      10.486   6.730  25.588  0.00  0.00    +0.031 C 
ATOM     37  C   UNL     1       9.400   6.706  23.360  0.00  0.00    +0.031 C 
ATOM     38  C   UNL     1      11.612   5.571  23.654  0.00  0.00    +0.031 C 
ENDBRANCH  32  35
ENDBRANCH  28  29
BRANCH  28  39
ATOM     39  C   UNL     1       5.182   3.477  24.244  0.00  0.00    -0.011 C 
ATOM     40  C   UNL     1       3.786   2.968  24.693  0.00  0.00    +0.013 C 
ATOM     41  C   UNL     1       5.677   2.590  23.084  0.00  0.00    +0.013 C 
ATOM     42  C   UNL     1       4.966   4.867  23.605  0.00  0.00    +0.013 C 
ENDBRANCH  28  39
ENDBRANCH   7  28
TORSDOF 10
ENDMDL
MODEL 7
REMARK VINA RESULT:      -5.6      1.995      6.191
REMARK  Name = 
REMARK  18 active torsions:
REMARK  status: ('A' for Active; 'I' for Inactive)
REMARK    1  A    between atoms: C_1  and  C_2
REMARK    2  A    between atoms: C_2  and  C_40
REMARK    3  A    between atoms: C_7  and  C_26
REMARK    4  A    between atoms: C_10  and  C_12
REMARK    5  A    between atoms: C_12  and  C_14
REMARK    6  A    between atoms: C_12  and  N_18
REMARK    7  A    between atoms: C_14  and  C_15
REMARK    8  A    between atoms: C_14  and  C_16
REMARK    9  A    between atoms: C_14  and  C_17
REMARK   10  A    between atoms: N_21  and  C_22
REMARK   11  A    between atoms: C_22  and  C_23
REMARK   12  A    between atoms: C_22  and  C_24
REMARK   13  A    between atoms: C_22  and  C_25
REMARK   14  A    between atoms: N_28  and  C_29
REMARK   15  A    between atoms: C_29  and  C_30
REMARK   16  A    between atoms: C_29  and  C_35
REMARK   17  A    between atoms: C_30  and  C_31
REMARK   18  A    between atoms: C_35  and  C_37
REMARK                            x       y       z     vdW  Elec       q    Type
REMARK                         _______ _______ _______ _____ _____    ______ ____
ROOT
ATOM      1  C   UNL     1      10.972   2.637  23.388  0.00  0.00    +0.011 C 
ATOM      2  C   UNL     1       9.820   1.664  23.567  0.00  0.00    -0.025 C 
ATOM      3  C   UNL     1      10.181   0.253  23.217  0.00  0.00    +0.011 C 
ATOM      4  C   UNL     1       8.969   1.967  24.770  0.00  0.00    +0.030 C 
ATOM      5  C   UNL     1       7.978   1.128  25.513  0.00  0.00    +0.166 C 
ATOM      6  N   UNL     1       6.756   1.237  24.753  0.00  0.00    -0.288 N 
ATOM      7  C   UNL     1       5.488   1.447  25.280  0.00  0.00    +0.237 C 
ATOM      8  O   UNL     1       4.566   1.679  24.487  0.00  0.00    -0.274 OA
ATOM      9  C   UNL     1       7.097   1.431  23.342  0.00  0.00    +0.113 C 
ATOM     10  C   UNL     1       8.396   2.201  23.394  0.00  0.00    +0.018 C 
ENDROOT
BRANCH   5  11
ATOM     11  C   UNL     1       8.306  -0.331  25.864  0.00  0.00    +0.234 C 
ATOM     12  N   UNL     1       7.615  -1.276  25.118  0.00  0.00    -0.304 N 
ATOM     13  H   UNL     1       7.125  -0.947  24.290  0.00  0.00    +0.149 HD
ATOM     14  O   UNL     1       9.068  -0.649  26.778  0.00  0.00    -0.274 OA
BRANCH  12  15
ATOM     15  C   UNL     1       7.814  -2.713  25.273  0.00  0.00    +0.149 C 
BRANCH  15  16
ATOM     16  C   UNL     1       8.624  -3.275  24.108  0.00  0.00    +0.237 C 
ATOM     17  O   UNL     1       9.756  -3.758  24.211  0.00  0.00    -0.285 OA
BRANCH  16  18
ATOM     18  C   UNL     1       7.943  -3.209  22.732  0.00  0.00    +0.279 C 
ATOM     19  N   UNL     1       7.526  -4.404  22.234  0.00  0.00    -0.323 N 
ATOM     20  H   UNL     1       7.048  -4.429  21.335  0.00  0.00    +0.145 HD
ATOM     21  H   UNL     1       7.641  -5.256  22.760  0.00  0.00    +0.145 HD
ATOM     22  O   UNL     1       7.794  -2.148  22.146  0.00  0.00    -0.267 OA
ENDBRANCH  16  18
ENDBRANCH  15  16
BRANCH  15  23
ATOM     23  C   UNL     1       6.504  -3.464  25.545  0.00  0.00    +0.034 C 
BRANCH  23  24
ATOM     24  C   UNL     1       6.615  -4.968  25.821  0.00  0.00    -0.009 C 
ATOM     25  C   UNL     1       5.476  -5.743  25.102  0.00  0.00    +0.003 C 
ATOM     26  C   UNL     1       5.247  -6.577  26.364  0.00  0.00    +0.001 C 
ATOM     27  C   UNL     1       6.138  -5.608  27.150  0.00  0.00    +0.003 C 
ENDBRANCH  23  24
ENDBRANCH  15  23
ENDBRANCH  12  15
ENDBRANCH   5  11
BRANCH   7  28
ATOM     28  C   UNL     1       5.132   1.203  26.845  0.00  0.00    +0.166 C 
BRANCH  28  29
ATOM     29  N   UNL     1       5.205  -0.158  27.421  0.00  0.00    -0.288 N 
ATOM     30  H   UNL     1       6.117  -0.530  27.646  0.00  0.00    +0.151 HD
ATOM     31  C   UNL     1       4.194  -1.060  27.292  0.00  0.00    +0.301 C 
ATOM     32  N   UNL     1       4.347  -2.200  28.036  0.00  0.00    -0.295 N 
ATOM     33  H   UNL     1       4.989  -2.120  28.819  0.00  0.00    +0.151 HD
ATOM     34  O   UNL     1       3.137  -0.795  26.736  0.00  0.00    -0.253 OA
BRANCH  32  35
ATOM     35  C   UNL     1       3.189  -3.093  28.226  0.00  0.00    +0.028 C 
ATOM     36  C   UNL     1       1.951  -2.348  28.776  0.00  0.00    +0.031 C 
ATOM     37  C   UNL     1       3.563  -4.170  29.254  0.00  0.00    +0.031 C 
ATOM     38  C   UNL     1       2.822  -3.781  26.894  0.00  0.00    +0.031 C 
ENDBRANCH  32  35
ENDBRANCH  28  29
BRANCH  28  39
ATOM     39  C   UNL     1       5.561   2.343  27.887  0.00  0.00    -0.011 C 
ATOM     40  C   UNL     1       4.383   2.564  28.874  0.00  0.00    +0.013 C 
ATOM     41  C   UNL     1       5.867   3.679  27.182  0.00  0.00    +0.013 C 
ATOM     42  C   UNL     1       6.815   2.060  28.744  0.00  0.00    +0.013 C 
ENDBRANCH  28  39
ENDBRANCH   7  28
TORSDOF 10
ENDMDL
MODEL 8
REMARK VINA RESULT:      -5.3      2.445      5.587
REMARK  Name = 
REMARK  18 active torsions:
REMARK  status: ('A' for Active; 'I' for Inactive)
REMARK    1  A    between atoms: C_1  and  C_2
REMARK    2  A    between atoms: C_2  and  C_40
REMARK    3  A    between atoms: C_7  and  C_26
REMARK    4  A    between atoms: C_10  and  C_12
REMARK    5  A    between atoms: C_12  and  C_14
REMARK    6  A    between atoms: C_12  and  N_18
REMARK    7  A    between atoms: C_14  and  C_15
REMARK    8  A    between atoms: C_14  and  C_16
REMARK    9  A    between atoms: C_14  and  C_17
REMARK   10  A    between atoms: N_21  and  C_22
REMARK   11  A    between atoms: C_22  and  C_23
REMARK   12  A    between atoms: C_22  and  C_24
REMARK   13  A    between atoms: C_22  and  C_25
REMARK   14  A    between atoms: N_28  and  C_29
REMARK   15  A    between atoms: C_29  and  C_30
REMARK   16  A    between atoms: C_29  and  C_35
REMARK   17  A    between atoms: C_30  and  C_31
REMARK   18  A    between atoms: C_35  and  C_37
REMARK                            x       y       z     vdW  Elec       q    Type
REMARK                         _______ _______ _______ _____ _____    ______ ____
ROOT
ATOM      1  C   UNL     1       6.043  -4.180  21.274  0.00  0.00    +0.011 C 
ATOM      2  C   UNL     1       6.616  -3.615  22.562  0.00  0.00    -0.025 C 
ATOM      3  C   UNL     1       7.954  -2.967  22.377  0.00  0.00    +0.011 C 
ATOM      4  C   UNL     1       5.575  -2.994  23.452  0.00  0.00    +0.030 C 
ATOM      5  C   UNL     1       5.700  -2.050  24.606  0.00  0.00    +0.166 C 
ATOM      6  N   UNL     1       6.017  -2.887  25.738  0.00  0.00    -0.288 N 
ATOM      7  C   UNL     1       5.446  -2.795  27.001  0.00  0.00    +0.237 C 
ATOM      8  O   UNL     1       5.705  -3.690  27.817  0.00  0.00    -0.274 OA
ATOM      9  C   UNL     1       6.771  -4.051  25.264  0.00  0.00    +0.113 C 
ATOM     10  C   UNL     1       6.220  -4.290  23.878  0.00  0.00    +0.018 C 
ENDROOT
BRANCH   5  11
ATOM     11  C   UNL     1       6.635  -0.835  24.515  0.00  0.00    +0.234 C 
ATOM     12  N   UNL     1       6.446  -0.040  23.393  0.00  0.00    -0.304 N 
ATOM     13  H   UNL     1       5.602  -0.197  22.849  0.00  0.00    +0.149 HD
ATOM     14  O   UNL     1       7.529  -0.610  25.333  0.00  0.00    -0.274 OA
BRANCH  12  15
ATOM     15  C   UNL     1       7.206   1.180  23.144  0.00  0.00    +0.149 C 
BRANCH  15  16
ATOM     16  C   UNL     1       6.270   2.346  22.834  0.00  0.00    +0.237 C 
ATOM     17  O   UNL     1       6.459   3.176  21.940  0.00  0.00    -0.285 OA
BRANCH  16  18
ATOM     18  C   UNL     1       5.024   2.453  23.727  0.00  0.00    +0.279 C 
ATOM     19  N   UNL     1       3.897   2.884  23.099  0.00  0.00    -0.323 N 
ATOM     20  H   UNL     1       3.030   2.958  23.629  0.00  0.00    +0.145 HD
ATOM     21  H   UNL     1       3.896   3.086  22.112  0.00  0.00    +0.145 HD
ATOM     22  O   UNL     1       5.064   2.163  24.913  0.00  0.00    -0.267 OA
ENDBRANCH  16  18
ENDBRANCH  15  16
BRANCH  15  23
ATOM     23  C   UNL     1       8.321   0.981  22.109  0.00  0.00    +0.034 C 
BRANCH  23  24
ATOM     24  C   UNL     1       9.761   1.173  22.599  0.00  0.00    -0.009 C 
ATOM     25  C   UNL     1      10.297  -0.132  23.249  0.00  0.00    +0.003 C 
ATOM     26  C   UNL     1      10.892   0.684  24.398  0.00  0.00    +0.001 C 
ATOM     27  C   UNL     1      10.098   1.907  23.922  0.00  0.00    +0.003 C 
ENDBRANCH  23  24
ENDBRANCH  15  23
ENDBRANCH  12  15
ENDBRANCH   5  11
BRANCH   7  28
ATOM     28  C   UNL     1       4.633  -1.485  27.508  0.00  0.00    +0.166 C 
BRANCH  28  29
ATOM     29  N   UNL     1       5.131  -0.129  27.184  0.00  0.00    -0.288 N 
ATOM     30  H   UNL     1       5.452   0.045  26.242  0.00  0.00    +0.151 HD
ATOM     31  C   UNL     1       5.547   0.743  28.142  0.00  0.00    +0.301 C 
ATOM     32  N   UNL     1       5.803   2.010  27.688  0.00  0.00    -0.295 N 
ATOM     33  H   UNL     1       5.361   2.248  26.805  0.00  0.00    +0.151 HD
ATOM     34  O   UNL     1       5.493   0.489  29.337  0.00  0.00    -0.253 OA
BRANCH  32  35
ATOM     35  C   UNL     1       5.947   3.106  28.664  0.00  0.00    +0.028 C 
ATOM     36  C   UNL     1       4.664   3.331  29.496  0.00  0.00    +0.031 C 
ATOM     37  C   UNL     1       6.228   4.408  27.902  0.00  0.00    +0.031 C 
ATOM     38  C   UNL     1       7.129   2.820  29.615  0.00  0.00    +0.031 C 
ENDBRANCH  32  35
ENDBRANCH  28  29
BRANCH  28  39
ATOM     39  C   UNL     1       3.032  -1.570  27.530  0.00  0.00    -0.011 C 
ATOM     40  C   UNL     1       2.594  -2.054  28.939  0.00  0.00    +0.013 C 
ATOM     41  C   UNL     1       2.497  -2.564  26.481  0.00  0.00    +0.013 C 
ATOM     42  C   UNL     1       2.266  -0.259  27.250  0.00  0.00    +0.013 C 
ENDBRANCH  28  39
ENDBRANCH   7  28
TORSDOF 10
ENDMDL
MODEL 9
REMARK VINA RESULT:      -5.1      2.306      6.720
REMARK  Name = 
REMARK  18 active torsions:
REMARK  status: ('A' for Active; 'I' for Inactive)
REMARK    1  A    between atoms: C_1  and  C_2
REMARK    2  A    between atoms: C_2  and  C_40
REMARK    3  A    between atoms: C_7  and  C_26
REMARK    4  A    between atoms: C_10  and  C_12
REMARK    5  A    between atoms: C_12  and  C_14
REMARK    6  A    between atoms: C_12  and  N_18
REMARK    7  A    between atoms: C_14  and  C_15
REMARK    8  A    between atoms: C_14  and  C_16
REMARK    9  A    between atoms: C_14  and  C_17
REMARK   10  A    between atoms: N_21  and  C_22
REMARK   11  A    between atoms: C_22  and  C_23
REMARK   12  A    between atoms: C_22  and  C_24
REMARK   13  A    between atoms: C_22  and  C_25
REMARK   14  A    between atoms: N_28  and  C_29
REMARK   15  A    between atoms: C_29  and  C_30
REMARK   16  A    between atoms: C_29  and  C_35
REMARK   17  A    between atoms: C_30  and  C_31
REMARK   18  A    between atoms: C_35  and  C_37
REMARK                            x       y       z     vdW  Elec       q    Type
REMARK                         _______ _______ _______ _____ _____    ______ ____
ROOT
ATOM      1  C   UNL     1       5.406  -6.482  27.294  0.00  0.00    +0.011 C 
ATOM      2  C   UNL     1       5.055  -5.341  26.355  0.00  0.00    -0.025 C 
ATOM      3  C   UNL     1       3.707  -4.748  26.627  0.00  0.00    +0.011 C 
ATOM      4  C   UNL     1       6.231  -4.464  26.023  0.00  0.00    +0.030 C 
ATOM      5  C   UNL     1       6.301  -3.087  25.444  0.00  0.00    +0.166 C 
ATOM      6  N   UNL     1       6.175  -3.275  24.019  0.00  0.00    -0.288 N 
ATOM      7  C   UNL     1       6.947  -2.655  23.046  0.00  0.00    +0.237 C 
ATOM      8  O   UNL     1       6.825  -3.046  21.877  0.00  0.00    -0.274 OA
ATOM      9  C   UNL     1       5.350  -4.461  23.775  0.00  0.00    +0.113 C 
ATOM     10  C   UNL     1       5.663  -5.359  24.949  0.00  0.00    +0.018 C 
ENDROOT
BRANCH   5  11
ATOM     11  C   UNL     1       5.368  -1.981  25.959  0.00  0.00    +0.234 C 
ATOM     12  N   UNL     1       5.414  -1.774  27.330  0.00  0.00    -0.304 N 
ATOM     13  H   UNL     1       6.182  -2.205  27.840  0.00  0.00    +0.149 HD
ATOM     14  O   UNL     1       4.586  -1.366  25.231  0.00  0.00    -0.274 OA
BRANCH  12  15
ATOM     15  C   UNL     1       4.633  -0.744  28.008  0.00  0.00    +0.149 C 
BRANCH  15  16
ATOM     16  C   UNL     1       5.550   0.285  28.664  0.00  0.00    +0.237 C 
ATOM     17  O   UNL     1       5.393   0.737  29.802  0.00  0.00    -0.285 OA
BRANCH  16  18
ATOM     18  C   UNL     1       6.733   0.764  27.807  0.00  0.00    +0.279 C 
ATOM     19  N   UNL     1       7.944   0.739  28.426  0.00  0.00    -0.323 N 
ATOM     20  H   UNL     1       8.772   1.024  27.907  0.00  0.00    +0.145 HD
ATOM     21  H   UNL     1       8.039   0.400  29.370  0.00  0.00    +0.145 HD
ATOM     22  O   UNL     1       6.574   1.133  26.654  0.00  0.00    -0.267 OA
ENDBRANCH  16  18
ENDBRANCH  15  16
BRANCH  15  23
ATOM     23  C   UNL     1       3.575  -1.331  28.951  0.00  0.00    +0.034 C 
BRANCH  23  24
ATOM     24  C   UNL     1       2.120  -0.916  28.701  0.00  0.00    -0.009 C 
ATOM     25  C   UNL     1       1.706  -1.230  27.236  0.00  0.00    +0.003 C 
ATOM     26  C   UNL     1       1.030   0.139  27.134  0.00  0.00    +0.001 C 
ATOM     27  C   UNL     1       1.708   0.557  28.445  0.00  0.00    +0.003 C 
ENDBRANCH  23  24
ENDBRANCH  15  23
ENDBRANCH  12  15
ENDBRANCH   5  11
BRANCH   7  28
ATOM     28  C   UNL     1       7.837  -1.328  23.339  0.00  0.00    +0.166 C 
BRANCH  28  29
ATOM     29  N   UNL     1       7.194  -0.105  23.870  0.00  0.00    -0.288 N 
ATOM     30  H   UNL     1       6.489  -0.212  24.585  0.00  0.00    +0.151 HD
ATOM     31  C   UNL     1       7.202   1.075  23.192  0.00  0.00    +0.301 C 
ATOM     32  N   UNL     1       6.725   2.145  23.903  0.00  0.00    -0.295 N 
ATOM     33  H   UNL     1       6.730   2.027  24.912  0.00  0.00    +0.151 HD
ATOM     34  O   UNL     1       7.778   1.222  22.124  0.00  0.00    -0.253 OA
BRANCH  32  35
ATOM     35  C   UNL     1       6.976   3.508  23.402  0.00  0.00    +0.028 C 
ATOM     36  C   UNL     1       6.830   3.612  21.866  0.00  0.00    +0.031 C 
ATOM     37  C   UNL     1       8.419   3.900  23.748  0.00  0.00    +0.031 C 
ATOM     38  C   UNL     1       6.013   4.509  24.076  0.00  0.00    +0.031 C 
ENDBRANCH  32  35
ENDBRANCH  28  29
BRANCH  28  39
ATOM     39  C   UNL     1       9.323  -1.543  23.898  0.00  0.00    -0.011 C 
ATOM     40  C   UNL     1       9.427  -0.840  25.278  0.00  0.00    +0.013 C 
ATOM     41  C   UNL     1      10.383  -0.936  22.957  0.00  0.00    +0.013 C 
ATOM     42  C   UNL     1       9.780  -3.004  24.106  0.00  0.00    +0.013 C 
ENDBRANCH  28  39
ENDBRANCH   7  28
TORSDOF 10
ENDMDL
