MODEL 1
REMARK VINA RESULT:      -5.9      0.000      0.000
REMARK  Name = 
REMARK  4 active torsions:
REMARK  status: ('A' for Active; 'I' for Inactive)
REMARK    1  A    between atoms: C1*_2  and  N_11
REMARK    2  A    between atoms: C4*_5  and  C5*_9
REMARK    3  A    between atoms: C3*_7  and  O3*_8
REMARK    4  A    between atoms: C5*_9  and  O5*_10
REMARK                            x       y       z     vdW  Elec       q    Type
REMARK                         _______ _______ _______ _____ _____    ______ ____
ROOT
ATOM      1  C2* UNL     1       7.848  -1.891  23.406  0.00  0.00    +0.088 C 
ATOM      2  C3* UNL     1       8.723  -0.851  22.730  0.00  0.00    +0.150 C 
ATOM      3  C4* UNL     1      10.050  -0.905  23.505  0.00  0.00    +0.175 C 
ATOM      4  O4* UNL     1       9.886  -1.921  24.528  0.00  0.00    -0.348 OA
ATOM      5  C1* UNL     1       8.879  -2.817  24.024  0.00  0.00    +0.226 C 
ENDROOT
BRANCH   5   6
ATOM      6  N   UNL     1       8.358  -3.675  25.076  0.00  0.00    -0.273 N 
ATOM      7  C   UNL     1       9.119  -4.788  25.412  0.00  0.00    +0.331 A 
ATOM      8  O   UNL     1      10.168  -5.093  24.852  0.00  0.00    -0.246 OA
ATOM      9  N   UNL     1       8.627  -5.554  26.434  0.00  0.00    -0.274 N 
ATOM     10  H   UNL     1       9.185  -6.344  26.719  0.00  0.00    +0.173 HD
ATOM     11  C   UNL     1       7.478  -5.324  27.145  0.00  0.00    +0.267 A 
ATOM     12  O   UNL     1       7.161  -6.052  28.079  0.00  0.00    -0.267 OA
ATOM     13  C   UNL     1       6.669  -4.156  26.700  0.00  0.00    +0.094 A 
ATOM     14  I   UNL     1       4.896  -3.732  27.624  0.00  0.00    -0.037 I 
ATOM     15  C   UNL     1       7.152  -3.407  25.701  0.00  0.00    +0.113 A 
ENDBRANCH   5   6
BRANCH   2  16
ATOM     16  O3* UNL     1       8.094   0.421  22.708  0.00  0.00    -0.389 OA
ATOM     17  H3* UNL     1       7.242   0.355  22.244  0.00  0.00    +0.210 HD
ENDBRANCH   2  16
BRANCH   3  18
ATOM     18  C5* UNL     1      10.501   0.397  24.158  0.00  0.00    +0.190 C 
BRANCH  18  19
ATOM     19  O5* UNL     1       9.696   0.669  25.305  0.00  0.00    -0.392 OA
ATOM     20  H5* UNL     1      10.109   1.431  25.753  0.00  0.00    +0.210 HD
ENDBRANCH  18  19
ENDBRANCH   3  18
TORSDOF 4
ENDMDL
MODEL 2
REMARK VINA RESULT:      -5.8      3.728      5.678
REMARK  Name = 
REMARK  4 active torsions:
REMARK  status: ('A' for Active; 'I' for Inactive)
REMARK    1  A    between atoms: C1*_2  and  N_11
REMARK    2  A    between atoms: C4*_5  and  C5*_9
REMARK    3  A    between atoms: C3*_7  and  O3*_8
REMARK    4  A    between atoms: C5*_9  and  O5*_10
REMARK                            x       y       z     vdW  Elec       q    Type
REMARK                         _______ _______ _______ _____ _____    ______ ____
ROOT
ATOM      1  C2* UNL     1       5.860  -3.393  23.724  0.00  0.00    +0.088 C 
ATOM      2  C3* UNL     1       5.351  -4.782  23.379  0.00  0.00    +0.150 C 
ATOM      3  C4* UNL     1       6.497  -5.420  22.575  0.00  0.00    +0.175 C 
ATOM      4  O4* UNL     1       7.552  -4.426  22.506  0.00  0.00    -0.348 OA
ATOM      5  C1* UNL     1       7.364  -3.582  23.657  0.00  0.00    +0.226 C 
ENDROOT
BRANCH   5   6
ATOM      6  N   UNL     1       8.118  -2.344  23.536  0.00  0.00    -0.273 N 
ATOM      7  C   UNL     1       9.478  -2.410  23.813  0.00  0.00    +0.331 A 
ATOM      8  O   UNL     1      10.053  -3.431  24.178  0.00  0.00    -0.246 OA
ATOM      9  N   UNL     1      10.170  -1.240  23.649  0.00  0.00    -0.274 N 
ATOM     10  H   UNL     1      11.166  -1.276  23.806  0.00  0.00    +0.173 HD
ATOM     11  C   UNL     1       9.655  -0.038  23.242  0.00  0.00    +0.267 A 
ATOM     12  O   UNL     1      10.383   0.935  23.080  0.00  0.00    -0.267 OA
ATOM     13  C   UNL     1       8.182  -0.010  23.023  0.00  0.00    +0.094 A 
ATOM     14  I   UNL     1       7.265   1.734  22.479  0.00  0.00    -0.037 I 
ATOM     15  C   UNL     1       7.506  -1.154  23.181  0.00  0.00    +0.113 A 
ENDBRANCH   5   6
BRANCH   2  16
ATOM     16  O3* UNL     1       4.105  -4.724  22.702  0.00  0.00    -0.389 OA
ATOM     17  H3* UNL     1       4.258  -4.701  21.741  0.00  0.00    +0.210 HD
ENDBRANCH   2  16
BRANCH   3  18
ATOM     18  C5* UNL     1       6.151  -5.884  21.164  0.00  0.00    +0.190 C 
BRANCH  18  19
ATOM     19  O5* UNL     1       5.827  -4.758  20.349  0.00  0.00    -0.392 OA
ATOM     20  H5* UNL     1       6.318  -4.875  19.514  0.00  0.00    +0.210 HD
ENDBRANCH  18  19
ENDBRANCH   3  18
TORSDOF 4
ENDMDL
MODEL 3
REMARK VINA RESULT:      -5.7      2.882      5.898
REMARK  Name = 
REMARK  4 active torsions:
REMARK  status: ('A' for Active; 'I' for Inactive)
REMARK    1  A    between atoms: C1*_2  and  N_11
REMARK    2  A    between atoms: C4*_5  and  C5*_9
REMARK    3  A    between atoms: C3*_7  and  O3*_8
REMARK    4  A    between atoms: C5*_9  and  O5*_10
REMARK                            x       y       z     vdW  Elec       q    Type
REMARK                         _______ _______ _______ _____ _____    ______ ____
ROOT
ATOM      1  C2* UNL     1       9.282  -3.784  24.621  0.00  0.00    +0.088 C 
ATOM      2  C3* UNL     1       8.996  -5.056  25.398  0.00  0.00    +0.150 C 
ATOM      3  C4* UNL     1       7.510  -4.947  25.779  0.00  0.00    +0.175 C 
ATOM      4  O4* UNL     1       7.038  -3.690  25.227  0.00  0.00    -0.348 OA
ATOM      5  C1* UNL     1       7.902  -3.408  24.112  0.00  0.00    +0.226 C 
ENDROOT
BRANCH   5   6
ATOM      6  N   UNL     1       7.779  -2.024  23.682  0.00  0.00    -0.273 N 
ATOM      7  C   UNL     1       6.623  -1.683  22.991  0.00  0.00    +0.331 A 
ATOM      8  O   UNL     1       5.737  -2.483  22.703  0.00  0.00    -0.246 OA
ATOM      9  N   UNL     1       6.515  -0.366  22.636  0.00  0.00    -0.274 N 
ATOM     10  H   UNL     1       5.665  -0.090  22.168  0.00  0.00    +0.173 HD
ATOM     11  C   UNL     1       7.421   0.627  22.900  0.00  0.00    +0.267 A 
ATOM     12  O   UNL     1       7.193   1.788  22.578  0.00  0.00    -0.267 OA
ATOM     13  C   UNL     1       8.670   0.193  23.585  0.00  0.00    +0.094 A 
ATOM     14  I   UNL     1      10.142   1.554  23.982  0.00  0.00    -0.037 I 
ATOM     15  C   UNL     1       8.775  -1.096  23.933  0.00  0.00    +0.113 A 
ENDBRANCH   5   6
BRANCH   2  16
ATOM     16  O3* UNL     1       9.885  -5.205  26.494  0.00  0.00    -0.389 OA
ATOM     17  H3* UNL     1      10.325  -4.356  26.673  0.00  0.00    +0.210 HD
ENDBRANCH   2  16
BRANCH   3  18
ATOM     18  C5* UNL     1       7.193  -4.992  27.269  0.00  0.00    +0.190 C 
BRANCH  18  19
ATOM     19  O5* UNL     1       7.630  -6.233  27.822  0.00  0.00    -0.392 OA
ATOM     20  H5* UNL     1       8.454  -6.465  27.353  0.00  0.00    +0.210 HD
ENDBRANCH  18  19
ENDBRANCH   3  18
TORSDOF 4
ENDMDL
MODEL 4
REMARK VINA RESULT:      -5.6      3.151      3.294
REMARK  Name = 
REMARK  4 active torsions:
REMARK  status: ('A' for Active; 'I' for Inactive)
REMARK    1  A    between atoms: C1*_2  and  N_11
REMARK    2  A    between atoms: C4*_5  and  C5*_9
REMARK    3  A    between atoms: C3*_7  and  O3*_8
REMARK    4  A    between atoms: C5*_9  and  O5*_10
REMARK                            x       y       z     vdW  Elec       q    Type
REMARK                         _______ _______ _______ _____ _____    ______ ____
ROOT
ATOM      1  C2* UNL     1       6.733  -2.496  22.472  0.00  0.00    +0.088 C 
ATOM      2  C3* UNL     1       7.969  -1.615  22.432  0.00  0.00    +0.150 C 
ATOM      3  C4* UNL     1       9.005  -2.371  23.282  0.00  0.00    +0.175 C 
ATOM      4  O4* UNL     1       8.353  -3.585  23.737  0.00  0.00    -0.348 OA
ATOM      5  C1* UNL     1       7.328  -3.861  22.767  0.00  0.00    +0.226 C 
ENDROOT
BRANCH   5   6
ATOM      6  N   UNL     1       6.370  -4.835  23.268  0.00  0.00    -0.273 N 
ATOM      7  C   UNL     1       5.663  -5.563  22.319  0.00  0.00    +0.331 A 
ATOM      8  O   UNL     1       5.780  -5.404  21.107  0.00  0.00    -0.246 OA
ATOM      9  N   UNL     1       4.802  -6.502  22.818  0.00  0.00    -0.274 N 
ATOM     10  H   UNL     1       4.308  -7.069  22.145  0.00  0.00    +0.173 HD
ATOM     11  C   UNL     1       4.582  -6.786  24.141  0.00  0.00    +0.267 A 
ATOM     12  O   UNL     1       3.821  -7.689  24.471  0.00  0.00    -0.267 OA
ATOM     13  C   UNL     1       5.317  -5.932  25.113  0.00  0.00    +0.094 A 
ATOM     14  I   UNL     1       5.035  -6.196  27.120  0.00  0.00    -0.037 I 
ATOM     15  C   UNL     1       6.161  -5.014  24.624  0.00  0.00    +0.113 A 
ENDBRANCH   5   6
BRANCH   2  16
ATOM     16  O3* UNL     1       7.681  -0.297  22.874  0.00  0.00    -0.389 OA
ATOM     17  H3* UNL     1       7.871  -0.224  23.825  0.00  0.00    +0.210 HD
ENDBRANCH   2  16
BRANCH   3  18
ATOM     18  C5* UNL     1       9.566  -1.620  24.484  0.00  0.00    +0.190 C 
BRANCH  18  19
ATOM     19  O5* UNL     1      10.265  -0.455  24.047  0.00  0.00    -0.392 OA
ATOM     20  H5* UNL     1      11.165  -0.523  24.418  0.00  0.00    +0.210 HD
ENDBRANCH  18  19
ENDBRANCH   3  18
TORSDOF 4
ENDMDL
MODEL 5
REMARK VINA RESULT:      -5.5      1.961      2.289
REMARK  Name = 
REMARK  4 active torsions:
REMARK  status: ('A' for Active; 'I' for Inactive)
REMARK    1  A    between atoms: C1*_2  and  N_11
REMARK    2  A    between atoms: C4*_5  and  C5*_9
REMARK    3  A    between atoms: C3*_7  and  O3*_8
REMARK    4  A    between atoms: C5*_9  and  O5*_10
REMARK                            x       y       z     vdW  Elec       q    Type
REMARK                         _______ _______ _______ _____ _____    ______ ____
ROOT
ATOM      1  C2* UNL     1       9.617  -3.017  23.773  0.00  0.00    +0.088 C 
ATOM      2  C3* UNL     1      10.030  -1.633  23.304  0.00  0.00    +0.150 C 
ATOM      3  C4* UNL     1       8.843  -0.731  23.681  0.00  0.00    +0.175 C 
ATOM      4  O4* UNL     1       7.862  -1.591  24.319  0.00  0.00    -0.348 OA
ATOM      5  C1* UNL     1       8.610  -2.694  24.861  0.00  0.00    +0.226 C 
ENDROOT
BRANCH   5   6
ATOM      6  N   UNL     1       7.738  -3.802  25.217  0.00  0.00    -0.273 N 
ATOM      7  C   UNL     1       8.132  -4.588  26.293  0.00  0.00    +0.331 A 
ATOM      8  O   UNL     1       9.172  -4.417  26.921  0.00  0.00    -0.246 OA
ATOM      9  N   UNL     1       7.271  -5.597  26.633  0.00  0.00    -0.274 N 
ATOM     10  H   UNL     1       7.519  -6.154  27.437  0.00  0.00    +0.173 HD
ATOM     11  C   UNL     1       6.079  -5.892  26.024  0.00  0.00    +0.267 A 
ATOM     12  O   UNL     1       5.362  -6.791  26.450  0.00  0.00    -0.267 OA
ATOM     13  C   UNL     1       5.740  -5.060  24.837  0.00  0.00    +0.094 A 
ATOM     14  I   UNL     1       4.025  -5.431  23.788  0.00  0.00    -0.037 I 
ATOM     15  C   UNL     1       6.581  -4.072  24.506  0.00  0.00    +0.113 A 
ENDBRANCH   5   6
BRANCH   2  16
ATOM     16  O3* UNL     1      10.368  -1.632  21.926  0.00  0.00    -0.389 OA
ATOM     17  H3* UNL     1      11.123  -2.227  21.776  0.00  0.00    +0.210 HD
ENDBRANCH   2  16
BRANCH   3  18
ATOM     18  C5* UNL     1       8.180   0.022  22.533  0.00  0.00    +0.190 C 
BRANCH  18  19
ATOM     19  O5* UNL     1       9.106   0.943  21.957  0.00  0.00    -0.392 OA
ATOM     20  H5* UNL     1       8.632   1.385  21.228  0.00  0.00    +0.210 HD
ENDBRANCH  18  19
ENDBRANCH   3  18
TORSDOF 4
ENDMDL
MODEL 6
REMARK VINA RESULT:      -5.5      3.236      5.741
REMARK  Name = 
REMARK  4 active torsions:
REMARK  status: ('A' for Active; 'I' for Inactive)
REMARK    1  A    between atoms: C1*_2  and  N_11
REMARK    2  A    between atoms: C4*_5  and  C5*_9
REMARK    3  A    between atoms: C3*_7  and  O3*_8
REMARK    4  A    between atoms: C5*_9  and  O5*_10
REMARK                            x       y       z     vdW  Elec       q    Type
REMARK                         _______ _______ _______ _____ _____    ______ ____
ROOT
ATOM      1  C2* UNL     1       7.722  -3.657  22.577  0.00  0.00    +0.088 C 
ATOM      2  C3* UNL     1       7.454  -4.903  23.403  0.00  0.00    +0.150 C 
ATOM      3  C4* UNL     1       7.948  -4.541  24.813  0.00  0.00    +0.175 C 
ATOM      4  O4* UNL     1       8.443  -3.178  24.737  0.00  0.00    -0.348 OA
ATOM      5  C1* UNL     1       7.738  -2.572  23.638  0.00  0.00    +0.226 C 
ENDROOT
BRANCH   5   6
ATOM      6  N   UNL     1       8.373  -1.333  23.218  0.00  0.00    -0.273 N 
ATOM      7  C   UNL     1       9.747  -1.372  23.015  0.00  0.00    +0.331 A 
ATOM      8  O   UNL     1      10.439  -2.369  23.202  0.00  0.00    -0.246 OA
ATOM      9  N   UNL     1      10.313  -0.205  22.578  0.00  0.00    -0.274 N 
ATOM     10  H   UNL     1      11.303  -0.223  22.386  0.00  0.00    +0.173 HD
ATOM     11  C   UNL     1       9.658   0.973  22.324  0.00  0.00    +0.267 A 
ATOM     12  O   UNL     1      10.263   1.944  21.884  0.00  0.00    -0.267 OA
ATOM     13  C   UNL     1       8.200   0.976  22.621  0.00  0.00    +0.094 A 
ATOM     14  I   UNL     1       7.108   2.682  22.354  0.00  0.00    -0.037 I 
ATOM     15  C   UNL     1       7.647  -0.167  23.047  0.00  0.00    +0.113 A 
ENDBRANCH   5   6
BRANCH   2  16
ATOM     16  O3* UNL     1       8.067  -6.047  22.830  0.00  0.00    -0.389 OA
ATOM     17  H3* UNL     1       7.732  -6.177  21.926  0.00  0.00    +0.210 HD
ENDBRANCH   2  16
BRANCH   3  18
ATOM     18  C5* UNL     1       9.034  -5.437  25.396  0.00  0.00    +0.190 C 
BRANCH  18  19
ATOM     19  O5* UNL     1      10.295  -5.119  24.806  0.00  0.00    -0.392 OA
ATOM     20  H5* UNL     1      10.576  -5.915  24.318  0.00  0.00    +0.210 HD
ENDBRANCH  18  19
ENDBRANCH   3  18
TORSDOF 4
ENDMDL
MODEL 7
REMARK VINA RESULT:      -5.3      2.606      3.494
REMARK  Name = 
REMARK  4 active torsions:
REMARK  status: ('A' for Active; 'I' for Inactive)
REMARK    1  A    between atoms: C1*_2  and  N_11
REMARK    2  A    between atoms: C4*_5  and  C5*_9
REMARK    3  A    between atoms: C3*_7  and  O3*_8
REMARK    4  A    between atoms: C5*_9  and  O5*_10
REMARK                            x       y       z     vdW  Elec       q    Type
REMARK                         _______ _______ _______ _____ _____    ______ ____
ROOT
ATOM      1  C2* UNL     1       9.991   0.220  23.076  0.00  0.00    +0.088 C 
ATOM      2  C3* UNL     1      10.201   1.717  22.928  0.00  0.00    +0.150 C 
ATOM      3  C4* UNL     1       9.222   2.342  23.936  0.00  0.00    +0.175 C 
ATOM      4  O4* UNL     1       8.540   1.236  24.585  0.00  0.00    -0.348 OA
ATOM      5  C1* UNL     1       9.439   0.117  24.486  0.00  0.00    +0.226 C 
ENDROOT
BRANCH   5   6
ATOM      6  N   UNL     1       8.760  -1.137  24.772  0.00  0.00    -0.273 N 
ATOM      7  C   UNL     1       8.615  -1.479  26.111  0.00  0.00    +0.331 A 
ATOM      8  O   UNL     1       9.053  -0.807  27.040  0.00  0.00    -0.246 OA
ATOM      9  N   UNL     1       7.933  -2.641  26.352  0.00  0.00    -0.274 N 
ATOM     10  H   UNL     1       7.783  -2.888  27.319  0.00  0.00    +0.173 HD
ATOM     11  C   UNL     1       7.388  -3.477  25.413  0.00  0.00    +0.267 A 
ATOM     12  O   UNL     1       6.751  -4.469  25.749  0.00  0.00    -0.267 OA
ATOM     13  C   UNL     1       7.631  -3.096  23.994  0.00  0.00    +0.094 A 
ATOM     14  I   UNL     1       6.935  -4.285  22.485  0.00  0.00    -0.037 I 
ATOM     15  C   UNL     1       8.296  -1.958  23.759  0.00  0.00    +0.113 A 
ENDBRANCH   5   6
BRANCH   2  16
ATOM     16  O3* UNL     1      10.022   2.134  21.583  0.00  0.00    -0.389 OA
ATOM     17  H3* UNL     1       9.803   3.082  21.564  0.00  0.00    +0.210 HD
ENDBRANCH   2  16
BRANCH   3  18
ATOM     18  C5* UNL     1       8.187   3.302  23.362  0.00  0.00    +0.190 C 
BRANCH  18  19
ATOM     19  O5* UNL     1       8.834   4.477  22.872  0.00  0.00    -0.392 OA
ATOM     20  H5* UNL     1       8.217   4.881  22.233  0.00  0.00    +0.210 HD
ENDBRANCH  18  19
ENDBRANCH   3  18
TORSDOF 4
ENDMDL
MODEL 8
REMARK VINA RESULT:      -5.3      1.754      2.081
REMARK  Name = 
REMARK  4 active torsions:
REMARK  status: ('A' for Active; 'I' for Inactive)
REMARK    1  A    between atoms: C1*_2  and  N_11
REMARK    2  A    between atoms: C4*_5  and  C5*_9
REMARK    3  A    between atoms: C3*_7  and  O3*_8
REMARK    4  A    between atoms: C5*_9  and  O5*_10
REMARK                            x       y       z     vdW  Elec       q    Type
REMARK                         _______ _______ _______ _____ _____    ______ ____
ROOT
ATOM      1  C2* UNL     1       8.715  -0.854  22.393  0.00  0.00    +0.088 C 
ATOM      2  C3* UNL     1       9.608   0.246  21.845  0.00  0.00    +0.150 C 
ATOM      3  C4* UNL     1      10.358   0.780  23.077  0.00  0.00    +0.175 C 
ATOM      4  O4* UNL     1       9.892   0.000  24.210  0.00  0.00    -0.348 OA
ATOM      5  C1* UNL     1       9.449  -1.254  23.660  0.00  0.00    +0.226 C 
ENDROOT
BRANCH   5   6
ATOM      6  N   UNL     1       8.638  -1.994  24.612  0.00  0.00    -0.273 N 
ATOM      7  C   UNL     1       9.036  -3.295  24.897  0.00  0.00    +0.331 A 
ATOM      8  O   UNL     1       9.997  -3.847  24.369  0.00  0.00    -0.246 OA
ATOM      9  N   UNL     1       8.281  -3.953  25.829  0.00  0.00    -0.274 N 
ATOM     10  H   UNL     1       8.577  -4.884  26.079  0.00  0.00    +0.173 HD
ATOM     11  C   UNL     1       7.192  -3.454  26.496  0.00  0.00    +0.267 A 
ATOM     12  O   UNL     1       6.622  -4.120  27.353  0.00  0.00    -0.267 OA
ATOM     13  C   UNL     1       6.771  -2.081  26.105  0.00  0.00    +0.094 A 
ATOM     14  I   UNL     1       5.124  -1.234  26.969  0.00  0.00    -0.037 I 
ATOM     15  C   UNL     1       7.512  -1.437  25.194  0.00  0.00    +0.113 A 
ENDBRANCH   5   6
BRANCH   2  16
ATOM     16  O3* UNL     1       8.856   1.218  21.135  0.00  0.00    -0.389 OA
ATOM     17  H3* UNL     1       8.459   1.845  21.764  0.00  0.00    +0.210 HD
ENDBRANCH   2  16
BRANCH   3  18
ATOM     18  C5* UNL     1      10.181   2.263  23.382  0.00  0.00    +0.190 C 
BRANCH  18  19
ATOM     19  O5* UNL     1      10.717   3.045  22.315  0.00  0.00    -0.392 OA
ATOM     20  H5* UNL     1      11.639   3.247  22.562  0.00  0.00    +0.210 HD
ENDBRANCH  18  19
ENDBRANCH   3  18
TORSDOF 4
ENDMDL
MODEL 9
REMARK VINA RESULT:      -5.3      2.580      5.507
REMARK  Name = 
REMARK  4 active torsions:
REMARK  status: ('A' for Active; 'I' for Inactive)
REMARK    1  A    between atoms: C1*_2  and  N_11
REMARK    2  A    between atoms: C4*_5  and  C5*_9
REMARK    3  A    between atoms: C3*_7  and  O3*_8
REMARK    4  A    between atoms: C5*_9  and  O5*_10
REMARK                            x       y       z     vdW  Elec       q    Type
REMARK                         _______ _______ _______ _____ _____    ______ ____
ROOT
ATOM      1  C2* UNL     1       9.478  -3.962  24.971  0.00  0.00    +0.088 C 
ATOM      2  C3* UNL     1       8.751  -5.295  24.931  0.00  0.00    +0.150 C 
ATOM      3  C4* UNL     1       7.393  -4.971  24.286  0.00  0.00    +0.175 C 
ATOM      4  O4* UNL     1       7.406  -3.549  23.996  0.00  0.00    -0.348 OA
ATOM      5  C1* UNL     1       8.794  -3.197  23.853  0.00  0.00    +0.226 C 
ENDROOT
BRANCH   5   6
ATOM      6  N   UNL     1       8.984  -1.756  23.911  0.00  0.00    -0.273 N 
ATOM      7  C   UNL     1       9.991  -1.225  23.113  0.00  0.00    +0.331 A 
ATOM      8  O   UNL     1      10.731  -1.901  22.405  0.00  0.00    -0.246 OA
ATOM      9  N   UNL     1      10.119   0.137  23.154  0.00  0.00    -0.274 N 
ATOM     10  H   UNL     1      10.818   0.546  22.552  0.00  0.00    +0.173 HD
ATOM     11  C   UNL     1       9.358   1.006  23.891  0.00  0.00    +0.267 A 
ATOM     12  O   UNL     1       9.530   2.217  23.809  0.00  0.00    -0.267 OA
ATOM     13  C   UNL     1       8.339   0.378  24.776  0.00  0.00    +0.094 A 
ATOM     14  I   UNL     1       7.176   1.547  25.984  0.00  0.00    -0.037 I 
ATOM     15  C   UNL     1       8.213  -0.954  24.734  0.00  0.00    +0.113 A 
ENDBRANCH   5   6
BRANCH   2  16
ATOM     16  O3* UNL     1       8.676  -5.882  26.221  0.00  0.00    -0.389 OA
ATOM     17  H3* UNL     1       7.749  -5.901  26.516  0.00  0.00    +0.210 HD
ENDBRANCH   2  16
BRANCH   3  18
ATOM     18  C5* UNL     1       6.158  -5.303  25.117  0.00  0.00    +0.190 C 
BRANCH  18  19
ATOM     19  O5* UNL     1       6.107  -4.461  26.269  0.00  0.00    -0.392 OA
ATOM     20  H5* UNL     1       5.279  -4.684  26.733  0.00  0.00    +0.210 HD
ENDBRANCH  18  19
ENDBRANCH   3  18
TORSDOF 4
ENDMDL
