MODEL 1
REMARK VINA RESULT:      -5.7      0.000      0.000
REMARK  Name = 
REMARK  3 active torsions:
REMARK  status: ('A' for Active; 'I' for Inactive)
REMARK    1  A    between atoms: C_2  and  N_10
REMARK    2  A    between atoms: C_5  and  C_8
REMARK    3  A    between atoms: C_8  and  O_9
REMARK                            x       y       z     vdW  Elec       q    Type
REMARK                         _______ _______ _______ _____ _____    ______ ____
ROOT
ATOM      1  N   UNL     1       8.531  -1.520  22.810  0.00  0.00    -0.272 N 
ATOM      2  C   UNL     1       9.772  -1.125  22.300  0.00  0.00    +0.352 A 
ATOM      3  O   UNL     1      10.714  -1.913  22.260  0.00  0.00    -0.244 OA
ATOM      4  N   UNL     1       9.922   0.171  21.868  0.00  0.00    -0.178 NA
ATOM      5  C   UNL     1       8.940   1.008  21.984  0.00  0.00    +0.123 A 
ATOM      6  N   UNL     1       9.168   2.290  21.571  0.00  0.00    -0.343 N 
ATOM      7  H   UNL     1       9.999   2.378  20.995  0.00  0.00    +0.144 HD
ATOM      8  H   UNL     1       8.380   2.838  21.248  0.00  0.00    +0.144 HD
ATOM      9  C   UNL     1       7.621   0.638  22.535  0.00  0.00    +0.061 A 
ATOM     10  C   UNL     1       7.490  -0.627  22.933  0.00  0.00    +0.096 A 
ENDROOT
BRANCH   1  15
ATOM     11  C   UNL     1       7.794  -2.863  24.750  0.00  0.00    +0.126 C 
ATOM     12  S   UNL     1       7.437  -4.604  25.031  0.00  0.00    -0.123 S 
ATOM     13  C   UNL     1       7.449  -4.958  23.246  0.00  0.00    +0.203 C 
ATOM     14  O   UNL     1       7.686  -3.737  22.526  0.00  0.00    -0.340 OA
ATOM     15  C   UNL     1       8.458  -2.864  23.369  0.00  0.00    +0.235 C 
BRANCH  13  16
ATOM     16  C   UNL     1       6.107  -5.567  22.813  0.00  0.00    +0.198 C 
BRANCH  16  17
ATOM     17  O   UNL     1       6.280  -6.730  21.994  0.00  0.00    -0.392 OA
ATOM     18  H   UNL     1       5.875  -7.471  22.483  0.00  0.00    +0.210 HD
ENDBRANCH  16  17
ENDBRANCH  13  16
ENDBRANCH   1  15
TORSDOF 3
ENDMDL
MODEL 2
REMARK VINA RESULT:      -5.7      2.084      2.641
REMARK  Name = 
REMARK  3 active torsions:
REMARK  status: ('A' for Active; 'I' for Inactive)
REMARK    1  A    between atoms: C_2  and  N_10
REMARK    2  A    between atoms: C_5  and  C_8
REMARK    3  A    between atoms: C_8  and  O_9
REMARK                            x       y       z     vdW  Elec       q    Type
REMARK                         _______ _______ _______ _____ _____    ______ ____
ROOT
ATOM      1  N   UNL     1       8.405  -1.331  23.136  0.00  0.00    -0.272 N 
ATOM      2  C   UNL     1       7.960  -0.102  23.634  0.00  0.00    +0.352 A 
ATOM      3  O   UNL     1       7.120  -0.055  24.529  0.00  0.00    -0.244 OA
ATOM      4  N   UNL     1       8.465   1.052  23.083  0.00  0.00    -0.178 NA
ATOM      5  C   UNL     1       9.297   0.983  22.092  0.00  0.00    +0.123 A 
ATOM      6  N   UNL     1       9.730   2.167  21.566  0.00  0.00    -0.343 N 
ATOM      7  H   UNL     1       9.542   2.960  22.170  0.00  0.00    +0.144 HD
ATOM      8  H   UNL     1      10.639   2.191  21.122  0.00  0.00    +0.144 HD
ATOM      9  C   UNL     1       9.776  -0.292  21.523  0.00  0.00    +0.061 A 
ATOM     10  C   UNL     1       9.289  -1.399  22.081  0.00  0.00    +0.096 A 
ENDROOT
BRANCH   1  15
ATOM     11  C   UNL     1       7.608  -3.607  22.594  0.00  0.00    +0.126 C 
ATOM     12  S   UNL     1       7.189  -5.071  23.553  0.00  0.00    -0.123 S 
ATOM     13  C   UNL     1       7.940  -4.376  25.058  0.00  0.00    +0.203 C 
ATOM     14  O   UNL     1       8.502  -3.089  24.752  0.00  0.00    -0.340 OA
ATOM     15  C   UNL     1       7.750  -2.521  23.665  0.00  0.00    +0.235 C 
BRANCH  13  16
ATOM     16  C   UNL     1       9.037  -5.311  25.588  0.00  0.00    +0.198 C 
BRANCH  16  17
ATOM     17  O   UNL     1      10.255  -5.194  24.843  0.00  0.00    -0.392 OA
ATOM     18  H   UNL     1      10.829  -5.925  25.141  0.00  0.00    +0.210 HD
ENDBRANCH  16  17
ENDBRANCH  13  16
ENDBRANCH   1  15
TORSDOF 3
ENDMDL
MODEL 3
REMARK VINA RESULT:      -5.5      3.455      5.860
REMARK  Name = 
REMARK  3 active torsions:
REMARK  status: ('A' for Active; 'I' for Inactive)
REMARK    1  A    between atoms: C_2  and  N_10
REMARK    2  A    between atoms: C_5  and  C_8
REMARK    3  A    between atoms: C_8  and  O_9
REMARK                            x       y       z     vdW  Elec       q    Type
REMARK                         _______ _______ _______ _____ _____    ______ ____
ROOT
ATOM      1  N   UNL     1       8.486  -3.389  24.521  0.00  0.00    -0.272 N 
ATOM      2  C   UNL     1       9.119  -4.533  25.017  0.00  0.00    +0.352 A 
ATOM      3  O   UNL     1      10.296  -4.764  24.752  0.00  0.00    -0.244 OA
ATOM      4  N   UNL     1       8.388  -5.406  25.788  0.00  0.00    -0.178 NA
ATOM      5  C   UNL     1       7.129  -5.182  25.998  0.00  0.00    +0.123 A 
ATOM      6  N   UNL     1       6.453  -6.108  26.740  0.00  0.00    -0.343 N 
ATOM      7  H   UNL     1       7.069  -6.736  27.245  0.00  0.00    +0.144 HD
ATOM      8  H   UNL     1       5.647  -5.803  27.270  0.00  0.00    +0.144 HD
ATOM      9  C   UNL     1       6.419  -3.998  25.477  0.00  0.00    +0.061 A 
ATOM     10  C   UNL     1       7.148  -3.155  24.746  0.00  0.00    +0.096 A 
ENDROOT
BRANCH   1  15
ATOM     11  C   UNL     1       8.388  -1.962  22.505  0.00  0.00    +0.126 C 
ATOM     12  S   UNL     1       9.441  -0.687  21.795  0.00  0.00    -0.123 S 
ATOM     13  C   UNL     1      10.424  -0.563  23.321  0.00  0.00    +0.203 C 
ATOM     14  O   UNL     1       9.885  -1.463  24.303  0.00  0.00    -0.340 OA
ATOM     15  C   UNL     1       9.266  -2.560  23.609  0.00  0.00    +0.235 C 
BRANCH  13  16
ATOM     16  C   UNL     1      10.394   0.875  23.861  0.00  0.00    +0.198 C 
BRANCH  16  17
ATOM     17  O   UNL     1      10.003   0.928  25.238  0.00  0.00    -0.392 OA
ATOM     18  H   UNL     1       9.036   0.800  25.254  0.00  0.00    +0.210 HD
ENDBRANCH  16  17
ENDBRANCH  13  16
ENDBRANCH   1  15
TORSDOF 3
ENDMDL
MODEL 4
REMARK VINA RESULT:      -5.4      5.030      7.323
REMARK  Name = 
REMARK  3 active torsions:
REMARK  status: ('A' for Active; 'I' for Inactive)
REMARK    1  A    between atoms: C_2  and  N_10
REMARK    2  A    between atoms: C_5  and  C_8
REMARK    3  A    between atoms: C_8  and  O_9
REMARK                            x       y       z     vdW  Elec       q    Type
REMARK                         _______ _______ _______ _____ _____    ______ ____
ROOT
ATOM      1  N   UNL     1       9.980   2.001  23.207  0.00  0.00    -0.272 N 
ATOM      2  C   UNL     1      10.524   0.850  23.787  0.00  0.00    +0.352 A 
ATOM      3  O   UNL     1      11.180   0.920  24.824  0.00  0.00    -0.244 OA
ATOM      4  N   UNL     1      10.329  -0.356  23.158  0.00  0.00    -0.178 NA
ATOM      5  C   UNL     1       9.696  -0.401  22.029  0.00  0.00    +0.123 A 
ATOM      6  N   UNL     1       9.571  -1.626  21.438  0.00  0.00    -0.343 N 
ATOM      7  H   UNL     1       9.774  -2.393  22.072  0.00  0.00    +0.144 HD
ATOM      8  H   UNL     1       8.777  -1.788  20.832  0.00  0.00    +0.144 HD
ATOM      9  C   UNL     1       9.125   0.792  21.373  0.00  0.00    +0.061 A 
ATOM     10  C   UNL     1       9.309   1.950  22.005  0.00  0.00    +0.096 A 
ENDROOT
BRANCH   1  15
ATOM     11  C   UNL     1      11.526   3.930  23.169  0.00  0.00    +0.126 C 
ATOM     12  S   UNL     1      11.482   5.610  23.814  0.00  0.00    -0.123 S 
ATOM     13  C   UNL     1       9.704   5.488  24.179  0.00  0.00    +0.203 C 
ATOM     14  O   UNL     1       9.224   4.199  23.762  0.00  0.00    -0.340 OA
ATOM     15  C   UNL     1      10.319   3.270  23.842  0.00  0.00    +0.235 C 
BRANCH  13  16
ATOM     16  C   UNL     1       8.931   6.594  23.445  0.00  0.00    +0.198 C 
BRANCH  16  17
ATOM     17  O   UNL     1       8.327   6.121  22.235  0.00  0.00    -0.392 OA
ATOM     18  H   UNL     1       8.563   6.766  21.542  0.00  0.00    +0.210 HD
ENDBRANCH  16  17
ENDBRANCH  13  16
ENDBRANCH   1  15
TORSDOF 3
ENDMDL
MODEL 5
REMARK VINA RESULT:      -5.4      2.887      5.780
REMARK  Name = 
REMARK  3 active torsions:
REMARK  status: ('A' for Active; 'I' for Inactive)
REMARK    1  A    between atoms: C_2  and  N_10
REMARK    2  A    between atoms: C_5  and  C_8
REMARK    3  A    between atoms: C_8  and  O_9
REMARK                            x       y       z     vdW  Elec       q    Type
REMARK                         _______ _______ _______ _____ _____    ______ ____
ROOT
ATOM      1  N   UNL     1       8.161  -2.610  24.145  0.00  0.00    -0.272 N 
ATOM      2  C   UNL     1       7.878  -3.892  23.664  0.00  0.00    +0.352 A 
ATOM      3  O   UNL     1       7.548  -4.065  22.493  0.00  0.00    -0.244 OA
ATOM      4  N   UNL     1       7.953  -4.952  24.536  0.00  0.00    -0.178 NA
ATOM      5  C   UNL     1       8.232  -4.743  25.784  0.00  0.00    +0.123 A 
ATOM      6  N   UNL     1       8.253  -5.835  26.604  0.00  0.00    -0.343 N 
ATOM      7  H   UNL     1       8.288  -6.712  26.094  0.00  0.00    +0.144 HD
ATOM      8  H   UNL     1       8.845  -5.808  27.424  0.00  0.00    +0.144 HD
ATOM      9  C   UNL     1       8.518  -3.404  26.336  0.00  0.00    +0.061 A 
ATOM     10  C   UNL     1       8.457  -2.392  25.472  0.00  0.00    +0.096 A 
ENDROOT
BRANCH   1  15
ATOM     11  C   UNL     1       6.891  -0.529  23.739  0.00  0.00    +0.126 C 
ATOM     12  S   UNL     1       7.109   0.910  22.680  0.00  0.00    -0.123 S 
ATOM     13  C   UNL     1       8.824   0.441  22.292  0.00  0.00    +0.203 C 
ATOM     14  O   UNL     1       9.158  -0.758  23.011  0.00  0.00    -0.340 OA
ATOM     15  C   UNL     1       7.948  -1.507  23.216  0.00  0.00    +0.235 C 
BRANCH  13  16
ATOM     16  C   UNL     1       9.788   1.570  22.685  0.00  0.00    +0.198 C 
BRANCH  16  17
ATOM     17  O   UNL     1      10.267   2.295  21.545  0.00  0.00    -0.392 OA
ATOM     18  H   UNL     1       9.602   2.169  20.843  0.00  0.00    +0.210 HD
ENDBRANCH  16  17
ENDBRANCH  13  16
ENDBRANCH   1  15
TORSDOF 3
ENDMDL
MODEL 6
REMARK VINA RESULT:      -5.3      3.587      5.807
REMARK  Name = 
REMARK  3 active torsions:
REMARK  status: ('A' for Active; 'I' for Inactive)
REMARK    1  A    between atoms: C_2  and  N_10
REMARK    2  A    between atoms: C_5  and  C_8
REMARK    3  A    between atoms: C_8  and  O_9
REMARK                            x       y       z     vdW  Elec       q    Type
REMARK                         _______ _______ _______ _____ _____    ______ ____
ROOT
ATOM      1  N   UNL     1       8.405  -2.222  25.192  0.00  0.00    -0.272 N 
ATOM      2  C   UNL     1       7.575  -2.454  26.293  0.00  0.00    +0.352 A 
ATOM      3  O   UNL     1       6.921  -1.540  26.790  0.00  0.00    -0.244 OA
ATOM      4  N   UNL     1       7.525  -3.722  26.823  0.00  0.00    -0.178 NA
ATOM      5  C   UNL     1       8.276  -4.656  26.331  0.00  0.00    +0.123 A 
ATOM      6  N   UNL     1       8.207  -5.883  26.928  0.00  0.00    -0.343 N 
ATOM      7  H   UNL     1       7.396  -5.984  27.530  0.00  0.00    +0.144 HD
ATOM      8  H   UNL     1       8.413  -6.701  26.370  0.00  0.00    +0.144 HD
ATOM      9  C   UNL     1       9.180  -4.449  25.183  0.00  0.00    +0.061 A 
ATOM     10  C   UNL     1       9.202  -3.218  24.672  0.00  0.00    +0.096 A 
ENDROOT
BRANCH   1  15
ATOM     11  C   UNL     1       9.875  -0.237  25.121  0.00  0.00    +0.126 C 
ATOM     12  S   UNL     1       9.945   1.261  24.126  0.00  0.00    -0.123 S 
ATOM     13  C   UNL     1       8.753   0.593  22.925  0.00  0.00    +0.203 C 
ATOM     14  O   UNL     1       8.390  -0.742  23.315  0.00  0.00    -0.340 OA
ATOM     15  C   UNL     1       8.518  -0.839  24.745  0.00  0.00    +0.235 C 
BRANCH  13  16
ATOM     16  C   UNL     1       9.366   0.575  21.517  0.00  0.00    +0.198 C 
BRANCH  16  17
ATOM     17  O   UNL     1       9.805  -0.733  21.134  0.00  0.00    -0.392 OA
ATOM     18  H   UNL     1       9.103  -1.102  20.566  0.00  0.00    +0.210 HD
ENDBRANCH  16  17
ENDBRANCH  13  16
ENDBRANCH   1  15
TORSDOF 3
ENDMDL
MODEL 7
REMARK VINA RESULT:      -5.2      3.174      5.563
REMARK  Name = 
REMARK  3 active torsions:
REMARK  status: ('A' for Active; 'I' for Inactive)
REMARK    1  A    between atoms: C_2  and  N_10
REMARK    2  A    between atoms: C_5  and  C_8
REMARK    3  A    between atoms: C_8  and  O_9
REMARK                            x       y       z     vdW  Elec       q    Type
REMARK                         _______ _______ _______ _____ _____    ______ ____
ROOT
ATOM      1  N   UNL     1       7.901  -3.352  23.194  0.00  0.00    -0.272 N 
ATOM      2  C   UNL     1       8.091  -4.696  23.533  0.00  0.00    +0.352 A 
ATOM      3  O   UNL     1       8.994  -5.029  24.296  0.00  0.00    -0.244 OA
ATOM      4  N   UNL     1       7.261  -5.637  22.973  0.00  0.00    -0.178 NA
ATOM      5  C   UNL     1       6.360  -5.275  22.115  0.00  0.00    +0.123 A 
ATOM      6  N   UNL     1       5.594  -6.265  21.568  0.00  0.00    -0.343 N 
ATOM      7  H   UNL     1       5.654  -7.140  22.079  0.00  0.00    +0.144 HD
ATOM      8  H   UNL     1       4.661  -6.032  21.254  0.00  0.00    +0.144 HD
ATOM      9  C   UNL     1       6.140  -3.871  21.715  0.00  0.00    +0.061 A 
ATOM     10  C   UNL     1       6.943  -2.971  22.280  0.00  0.00    +0.096 A 
ENDROOT
BRANCH   1  15
ATOM     11  C   UNL     1       9.494  -1.560  22.594  0.00  0.00    +0.126 C 
ATOM     12  S   UNL     1      10.313  -0.231  23.491  0.00  0.00    -0.123 S 
ATOM     13  C   UNL     1       9.232  -0.458  24.936  0.00  0.00    +0.203 C 
ATOM     14  O   UNL     1       8.283  -1.500  24.656  0.00  0.00    -0.340 OA
ATOM     15  C   UNL     1       8.883  -2.407  23.714  0.00  0.00    +0.235 C 
BRANCH  13  16
ATOM     16  C   UNL     1       8.491   0.848  25.260  0.00  0.00    +0.198 C 
BRANCH  16  17
ATOM     17  O   UNL     1       9.288   2.006  24.981  0.00  0.00    -0.392 OA
ATOM     18  H   UNL     1       9.383   2.046  24.011  0.00  0.00    +0.210 HD
ENDBRANCH  16  17
ENDBRANCH  13  16
ENDBRANCH   1  15
TORSDOF 3
ENDMDL
MODEL 8
REMARK VINA RESULT:      -5.1      3.112      5.654
REMARK  Name = 
REMARK  3 active torsions:
REMARK  status: ('A' for Active; 'I' for Inactive)
REMARK    1  A    between atoms: C_2  and  N_10
REMARK    2  A    between atoms: C_5  and  C_8
REMARK    3  A    between atoms: C_8  and  O_9
REMARK                            x       y       z     vdW  Elec       q    Type
REMARK                         _______ _______ _______ _____ _____    ______ ____
ROOT
ATOM      1  N   UNL     1       7.410  -2.882  23.044  0.00  0.00    -0.272 N 
ATOM      2  C   UNL     1       7.944  -4.073  23.548  0.00  0.00    +0.352 A 
ATOM      3  O   UNL     1       9.054  -4.090  24.073  0.00  0.00    -0.244 OA
ATOM      4  N   UNL     1       7.210  -5.228  23.419  0.00  0.00    -0.178 NA
ATOM      5  C   UNL     1       6.073  -5.204  22.798  0.00  0.00    +0.123 A 
ATOM      6  N   UNL     1       5.412  -6.393  22.672  0.00  0.00    -0.343 N 
ATOM      7  H   UNL     1       5.771  -7.112  23.292  0.00  0.00    +0.144 HD
ATOM      8  H   UNL     1       4.403  -6.376  22.597  0.00  0.00    +0.144 HD
ATOM      9  C   UNL     1       5.483  -3.973  22.235  0.00  0.00    +0.061 A 
ATOM     10  C   UNL     1       6.201  -2.861  22.384  0.00  0.00    +0.096 A 
ENDROOT
BRANCH   1  15
ATOM     11  C   UNL     1       9.183  -1.632  21.860  0.00  0.00    +0.126 C 
ATOM     12  S   UNL     1       9.818   0.051  21.930  0.00  0.00    -0.123 S 
ATOM     13  C   UNL     1       8.407   0.607  22.934  0.00  0.00    +0.203 C 
ATOM     14  O   UNL     1       7.508  -0.496  23.135  0.00  0.00    -0.340 OA
ATOM     15  C   UNL     1       8.277  -1.711  23.092  0.00  0.00    +0.235 C 
BRANCH  13  16
ATOM     16  C   UNL     1       7.671   1.757  22.231  0.00  0.00    +0.198 C 
BRANCH  16  17
ATOM     17  O   UNL     1       8.562   2.595  21.485  0.00  0.00    -0.392 OA
ATOM     18  H   UNL     1       8.494   2.309  20.556  0.00  0.00    +0.210 HD
ENDBRANCH  16  17
ENDBRANCH  13  16
ENDBRANCH   1  15
TORSDOF 3
ENDMDL
MODEL 9
REMARK VINA RESULT:      -5.1      3.301      5.928
REMARK  Name = 
REMARK  3 active torsions:
REMARK  status: ('A' for Active; 'I' for Inactive)
REMARK    1  A    between atoms: C_2  and  N_10
REMARK    2  A    between atoms: C_5  and  C_8
REMARK    3  A    between atoms: C_8  and  O_9
REMARK                            x       y       z     vdW  Elec       q    Type
REMARK                         _______ _______ _______ _____ _____    ______ ____
ROOT
ATOM      1  N   UNL     1       8.832  -1.685  24.243  0.00  0.00    -0.272 N 
ATOM      2  C   UNL     1       9.762  -2.648  23.837  0.00  0.00    +0.352 A 
ATOM      3  O   UNL     1      10.468  -2.461  22.849  0.00  0.00    -0.244 OA
ATOM      4  N   UNL     1       9.852  -3.817  24.554  0.00  0.00    -0.178 NA
ATOM      5  C   UNL     1       9.050  -4.026  25.550  0.00  0.00    +0.123 A 
ATOM      6  N   UNL     1       9.166  -5.224  26.196  0.00  0.00    -0.343 N 
ATOM      7  H   UNL     1      10.030  -5.710  25.976  0.00  0.00    +0.144 HD
ATOM      8  H   UNL     1       8.901  -5.272  27.171  0.00  0.00    +0.144 HD
ATOM      9  C   UNL     1       8.042  -3.046  25.998  0.00  0.00    +0.061 A 
ATOM     10  C   UNL     1       7.981  -1.911  25.302  0.00  0.00    +0.096 A 
ENDROOT
BRANCH   1  15
ATOM     11  C   UNL     1       7.236  -0.033  23.330  0.00  0.00    +0.126 C 
ATOM     12  S   UNL     1       7.379   1.601  22.589  0.00  0.00    -0.123 S 
ATOM     13  C   UNL     1       9.115   1.753  23.110  0.00  0.00    +0.203 C 
ATOM     14  O   UNL     1       9.489   0.580  23.851  0.00  0.00    -0.340 OA
ATOM     15  C   UNL     1       8.688  -0.518  23.379  0.00  0.00    +0.235 C 
BRANCH  13  16
ATOM     16  C   UNL     1       9.302   3.002  23.985  0.00  0.00    +0.198 C 
BRANCH  16  17
ATOM     17  O   UNL     1       9.355   4.204  23.207  0.00  0.00    -0.392 OA
ATOM     18  H   UNL     1       8.435   4.516  23.123  0.00  0.00    +0.210 HD
ENDBRANCH  16  17
ENDBRANCH  13  16
ENDBRANCH   1  15
TORSDOF 3
ENDMDL
