MODEL 1
REMARK VINA RESULT:      -7.1      0.000      0.000
REMARK  Name = 
REMARK  5 active torsions:
REMARK  status: ('A' for Active; 'I' for Inactive)
REMARK    1  A    between atoms: C_3  and  N_4
REMARK    2  A    between atoms: N_4  and  C_5
REMARK    3  A    between atoms: N_12  and  C_15
REMARK    4  A    between atoms: C_17  and  C_21
REMARK    5  A    between atoms: C_21  and  O_22
REMARK                            x       y       z     vdW  Elec       q    Type
REMARK                         _______ _______ _______ _____ _____    ______ ____
ROOT
ATOM      1  C   UNL     1       7.028  -4.348  24.682  0.00  0.00    +0.152 A 
ATOM      2  N   UNL     1       8.042  -5.097  25.192  0.00  0.00    -0.198 NA
ATOM      3  C   UNL     1       9.312  -4.688  25.037  0.00  0.00    +0.216 A 
ATOM      4  N   UNL     1      10.284  -5.507  25.581  0.00  0.00    -0.327 N 
ATOM      5  H   UNL     1       9.909  -6.441  25.674  0.00  0.00    +0.145 HD
ATOM      6  H   UNL     1      11.148  -5.402  25.069  0.00  0.00    +0.145 HD
ATOM      7  N   UNL     1       9.735  -3.597  24.383  0.00  0.00    -0.195 NA
ATOM      8  C   UNL     1       8.713  -2.878  23.893  0.00  0.00    +0.168 A 
ATOM      9  N   UNL     1       8.768  -1.706  23.174  0.00  0.00    -0.308 N 
ATOM     10  C   UNL     1       7.473  -1.322  22.941  0.00  0.00    +0.202 A 
ATOM     11  N   UNL     1       6.600  -2.189  23.411  0.00  0.00    -0.231 NA
ATOM     12  C   UNL     1       7.367  -3.170  23.999  0.00  0.00    +0.148 A 
ENDROOT
BRANCH   9  13
ATOM     13  C   UNL     1       9.996  -1.033  22.795  0.00  0.00    +0.113 C 
ATOM     14  C   UNL     1       9.769  -0.066  21.662  0.00  0.00    -0.006 C 
ATOM     15  C   UNL     1       9.870   1.213  22.046  0.00  0.00    -0.023 C 
ATOM     16  C   UNL     1      10.197   1.327  23.502  0.00  0.00    +0.039 C 
ATOM     17  C   UNL     1      10.652  -0.108  23.841  0.00  0.00    +0.039 C 
BRANCH  16  18
ATOM     18  C   UNL     1       9.005   1.815  24.331  0.00  0.00    +0.163 C 
BRANCH  18  19
ATOM     19  O   UNL     1       8.912   1.074  25.542  0.00  0.00    -0.394 OA
ATOM     20  H   UNL     1       8.600   1.684  26.234  0.00  0.00    +0.209 HD
ENDBRANCH  18  19
ENDBRANCH  16  18
ENDBRANCH   9  13
BRANCH   1  21
ATOM     21  N   UNL     1       5.681  -4.725  24.850  0.00  0.00    -0.324 N 
ATOM     22  H   UNL     1       5.444  -4.690  25.841  0.00  0.00    +0.148 HD
BRANCH  21  24
ATOM     23  C   UNL     1       5.307  -5.809  22.545  0.00  0.00    +0.024 C 
ATOM     24  C   UNL     1       5.159  -5.817  24.039  0.00  0.00    +0.072 C 
ATOM     25  C   UNL     1       3.956  -5.602  23.164  0.00  0.00    +0.024 C 
ENDBRANCH  21  24
ENDBRANCH   1  21
TORSDOF 5
ENDMDL
MODEL 2
REMARK VINA RESULT:      -6.6      1.985      2.640
REMARK  Name = 
REMARK  5 active torsions:
REMARK  status: ('A' for Active; 'I' for Inactive)
REMARK    1  A    between atoms: C_3  and  N_4
REMARK    2  A    between atoms: N_4  and  C_5
REMARK    3  A    between atoms: N_12  and  C_15
REMARK    4  A    between atoms: C_17  and  C_21
REMARK    5  A    between atoms: C_21  and  O_22
REMARK                            x       y       z     vdW  Elec       q    Type
REMARK                         _______ _______ _______ _____ _____    ______ ____
ROOT
ATOM      1  C   UNL     1       7.877  -4.215  24.166  0.00  0.00    +0.152 A 
ATOM      2  N   UNL     1       7.056  -4.183  25.250  0.00  0.00    -0.198 NA
ATOM      3  C   UNL     1       7.055  -3.105  26.051  0.00  0.00    +0.216 A 
ATOM      4  N   UNL     1       6.195  -3.153  27.133  0.00  0.00    -0.327 N 
ATOM      5  H   UNL     1       5.991  -4.119  27.344  0.00  0.00    +0.145 HD
ATOM      6  H   UNL     1       6.553  -2.578  27.882  0.00  0.00    +0.145 HD
ATOM      7  N   UNL     1       7.822  -2.011  25.934  0.00  0.00    -0.195 NA
ATOM      8  C   UNL     1       8.620  -2.071  24.856  0.00  0.00    +0.168 A 
ATOM      9  N   UNL     1       9.532  -1.136  24.423  0.00  0.00    -0.308 N 
ATOM     10  C   UNL     1      10.065  -1.614  23.254  0.00  0.00    +0.202 A 
ATOM     11  N   UNL     1       9.601  -2.806  22.941  0.00  0.00    -0.231 NA
ATOM     12  C   UNL     1       8.704  -3.103  23.942  0.00  0.00    +0.148 A 
ENDROOT
BRANCH   9  13
ATOM     13  C   UNL     1       9.807   0.117  25.100  0.00  0.00    +0.113 C 
ATOM     14  C   UNL     1      11.055   0.771  24.566  0.00  0.00    -0.006 C 
ATOM     15  C   UNL     1      10.796   1.879  23.860  0.00  0.00    -0.023 C 
ATOM     16  C   UNL     1       9.329   2.170  23.808  0.00  0.00    +0.039 C 
ATOM     17  C   UNL     1       8.782   1.258  24.927  0.00  0.00    +0.039 C 
BRANCH  16  18
ATOM     18  C   UNL     1       8.728   1.891  22.428  0.00  0.00    +0.163 C 
BRANCH  18  19
ATOM     19  O   UNL     1       9.718   2.053  21.419  0.00  0.00    -0.394 OA
ATOM     20  H   UNL     1       9.259   2.066  20.560  0.00  0.00    +0.209 HD
ENDBRANCH  18  19
ENDBRANCH  16  18
ENDBRANCH   9  13
BRANCH   1  21
ATOM     21  N   UNL     1       7.885  -5.312  23.283  0.00  0.00    -0.324 N 
ATOM     22  H   UNL     1       8.778  -5.797  23.356  0.00  0.00    +0.148 HD
BRANCH  21  24
ATOM     23  C   UNL     1       5.899  -4.570  21.821  0.00  0.00    +0.024 C 
ATOM     24  C   UNL     1       7.276  -5.149  21.969  0.00  0.00    +0.072 C 
ATOM     25  C   UNL     1       6.131  -6.028  21.550  0.00  0.00    +0.024 C 
ENDBRANCH  21  24
ENDBRANCH   1  21
TORSDOF 5
ENDMDL
MODEL 3
REMARK VINA RESULT:      -6.3      2.697      6.584
REMARK  Name = 
REMARK  5 active torsions:
REMARK  status: ('A' for Active; 'I' for Inactive)
REMARK    1  A    between atoms: C_3  and  N_4
REMARK    2  A    between atoms: N_4  and  C_5
REMARK    3  A    between atoms: N_12  and  C_15
REMARK    4  A    between atoms: C_17  and  C_21
REMARK    5  A    between atoms: C_21  and  O_22
REMARK                            x       y       z     vdW  Elec       q    Type
REMARK                         _______ _______ _______ _____ _____    ______ ____
ROOT
ATOM      1  C   UNL     1       8.301  -3.283  23.592  0.00  0.00    +0.152 A 
ATOM      2  N   UNL     1       9.341  -3.956  24.154  0.00  0.00    -0.198 NA
ATOM      3  C   UNL     1       9.111  -4.807  25.167  0.00  0.00    +0.216 A 
ATOM      4  N   UNL     1      10.221  -5.447  25.686  0.00  0.00    -0.327 N 
ATOM      5  H   UNL     1      11.043  -4.900  25.472  0.00  0.00    +0.145 HD
ATOM      6  H   UNL     1      10.061  -5.684  26.654  0.00  0.00    +0.145 HD
ATOM      7  N   UNL     1       7.932  -5.071  25.748  0.00  0.00    -0.195 NA
ATOM      8  C   UNL     1       6.926  -4.396  25.171  0.00  0.00    +0.168 A 
ATOM      9  N   UNL     1       5.590  -4.420  25.499  0.00  0.00    -0.308 N 
ATOM     10  C   UNL     1       4.945  -3.612  24.599  0.00  0.00    +0.202 A 
ATOM     11  N   UNL     1       5.778  -3.035  23.757  0.00  0.00    -0.231 NA
ATOM     12  C   UNL     1       7.019  -3.511  24.114  0.00  0.00    +0.148 A 
ENDROOT
BRANCH   9  13
ATOM     13  C   UNL     1       5.025  -5.201  26.584  0.00  0.00    +0.113 C 
ATOM     14  C   UNL     1       3.580  -4.850  26.823  0.00  0.00    -0.006 C 
ATOM     15  C   UNL     1       2.743  -5.828  26.457  0.00  0.00    -0.023 C 
ATOM     16  C   UNL     1       3.481  -7.013  25.919  0.00  0.00    +0.039 C 
ATOM     17  C   UNL     1       4.925  -6.728  26.382  0.00  0.00    +0.039 C 
BRANCH  16  18
ATOM     18  C   UNL     1       3.330  -7.155  24.401  0.00  0.00    +0.163 C 
BRANCH  18  19
ATOM     19  O   UNL     1       4.595  -7.413  23.803  0.00  0.00    -0.394 OA
ATOM     20  H   UNL     1       4.781  -8.363  23.912  0.00  0.00    +0.209 HD
ENDBRANCH  18  19
ENDBRANCH  16  18
ENDBRANCH   9  13
BRANCH   1  21
ATOM     21  N   UNL     1       8.495  -2.406  22.507  0.00  0.00    -0.324 N 
ATOM     22  H   UNL     1       8.112  -2.827  21.661  0.00  0.00    +0.148 HD
BRANCH  21  24
ATOM     23  C   UNL     1       9.992  -0.448  23.254  0.00  0.00    +0.024 C 
ATOM     24  C   UNL     1       9.753  -1.675  22.422  0.00  0.00    +0.072 C 
ATOM     25  C   UNL     1       9.800  -0.322  21.770  0.00  0.00    +0.024 C 
ENDBRANCH  21  24
ENDBRANCH   1  21
TORSDOF 5
ENDMDL
MODEL 4
REMARK VINA RESULT:      -6.2      2.836      7.059
REMARK  Name = 
REMARK  5 active torsions:
REMARK  status: ('A' for Active; 'I' for Inactive)
REMARK    1  A    between atoms: C_3  and  N_4
REMARK    2  A    between atoms: N_4  and  C_5
REMARK    3  A    between atoms: N_12  and  C_15
REMARK    4  A    between atoms: C_17  and  C_21
REMARK    5  A    between atoms: C_21  and  O_22
REMARK                            x       y       z     vdW  Elec       q    Type
REMARK                         _______ _______ _______ _____ _____    ______ ____
ROOT
ATOM      1  C   UNL     1       9.122   1.762  22.599  0.00  0.00    +0.152 A 
ATOM      2  N   UNL     1       7.901   2.350  22.470  0.00  0.00    -0.198 NA
ATOM      3  C   UNL     1       6.792   1.640  22.730  0.00  0.00    +0.216 A 
ATOM      4  N   UNL     1       5.592   2.308  22.571  0.00  0.00    -0.327 N 
ATOM      5  H   UNL     1       5.733   3.086  21.942  0.00  0.00    +0.145 HD
ATOM      6  H   UNL     1       4.860   1.651  22.342  0.00  0.00    +0.145 HD
ATOM      7  N   UNL     1       6.725   0.349  23.087  0.00  0.00    -0.195 NA
ATOM      8  C   UNL     1       7.942  -0.203  23.208  0.00  0.00    +0.168 A 
ATOM      9  N   UNL     1       8.257  -1.495  23.557  0.00  0.00    -0.308 N 
ATOM     10  C   UNL     1       9.625  -1.574  23.600  0.00  0.00    +0.202 A 
ATOM     11  N   UNL     1      10.203  -0.443  23.251  0.00  0.00    -0.231 NA
ATOM     12  C   UNL     1       9.159   0.416  22.995  0.00  0.00    +0.148 A 
ENDROOT
BRANCH   9  13
ATOM     13  C   UNL     1       7.280  -2.528  23.849  0.00  0.00    +0.113 C 
ATOM     14  C   UNL     1       7.340  -3.647  22.842  0.00  0.00    -0.006 C 
ATOM     15  C   UNL     1       7.833  -4.780  23.358  0.00  0.00    -0.023 C 
ATOM     16  C   UNL     1       8.176  -4.623  24.806  0.00  0.00    +0.039 C 
ATOM     17  C   UNL     1       7.447  -3.312  25.168  0.00  0.00    +0.039 C 
BRANCH  16  18
ATOM     18  C   UNL     1       9.688  -4.582  25.046  0.00  0.00    +0.163 C 
BRANCH  18  19
ATOM     19  O   UNL     1      10.112  -5.763  25.717  0.00  0.00    -0.394 OA
ATOM     20  H   UNL     1      10.374  -5.508  26.619  0.00  0.00    +0.209 HD
ENDBRANCH  18  19
ENDBRANCH  16  18
ENDBRANCH   9  13
BRANCH   1  21
ATOM     21  N   UNL     1      10.311   2.482  22.368  0.00  0.00    -0.324 N 
ATOM     22  H   UNL     1      10.922   1.936  21.762  0.00  0.00    +0.148 HD
BRANCH  21  24
ATOM     23  C   UNL     1      10.521   4.656  23.733  0.00  0.00    +0.024 C 
ATOM     24  C   UNL     1      10.898   3.225  23.476  0.00  0.00    +0.072 C 
ATOM     25  C   UNL     1      11.888   4.324  23.209  0.00  0.00    +0.024 C 
ENDBRANCH  21  24
ENDBRANCH   1  21
TORSDOF 5
ENDMDL
MODEL 5
REMARK VINA RESULT:      -6.1      1.383      1.671
REMARK  Name = 
REMARK  5 active torsions:
REMARK  status: ('A' for Active; 'I' for Inactive)
REMARK    1  A    between atoms: C_3  and  N_4
REMARK    2  A    between atoms: N_4  and  C_5
REMARK    3  A    between atoms: N_12  and  C_15
REMARK    4  A    between atoms: C_17  and  C_21
REMARK    5  A    between atoms: C_21  and  O_22
REMARK                            x       y       z     vdW  Elec       q    Type
REMARK                         _______ _______ _______ _____ _____    ______ ____
ROOT
ATOM      1  C   UNL     1       6.881  -4.639  24.959  0.00  0.00    +0.152 A 
ATOM      2  N   UNL     1       7.966  -5.303  25.441  0.00  0.00    -0.198 NA
ATOM      3  C   UNL     1       9.199  -4.906  25.086  0.00  0.00    +0.216 A 
ATOM      4  N   UNL     1      10.247  -5.635  25.615  0.00  0.00    -0.327 N 
ATOM      5  H   UNL     1       9.909  -6.552  25.874  0.00  0.00    +0.145 HD
ATOM      6  H   UNL     1      11.044  -5.592  24.996  0.00  0.00    +0.145 HD
ATOM      7  N   UNL     1       9.516  -3.908  24.248  0.00  0.00    -0.195 NA
ATOM      8  C   UNL     1       8.427  -3.271  23.790  0.00  0.00    +0.168 A 
ATOM      9  N   UNL     1       8.369  -2.207  22.921  0.00  0.00    -0.308 N 
ATOM     10  C   UNL     1       7.047  -1.869  22.793  0.00  0.00    +0.202 A 
ATOM     11  N   UNL     1       6.256  -2.674  23.473  0.00  0.00    -0.231 NA
ATOM     12  C   UNL     1       7.109  -3.559  24.091  0.00  0.00    +0.148 A 
ENDROOT
BRANCH   9  13
ATOM     13  C   UNL     1       9.528  -1.579  22.314  0.00  0.00    +0.113 C 
ATOM     14  C   UNL     1       9.180  -0.245  21.708  0.00  0.00    -0.006 C 
ATOM     15  C   UNL     1       9.703   0.784  22.388  0.00  0.00    -0.023 C 
ATOM     16  C   UNL     1      10.505   0.318  23.562  0.00  0.00    +0.039 C 
ATOM     17  C   UNL     1      10.691  -1.182  23.248  0.00  0.00    +0.039 C 
BRANCH  16  18
ATOM     18  C   UNL     1       9.803   0.594  24.894  0.00  0.00    +0.163 C 
BRANCH  18  19
ATOM     19  O   UNL     1       9.292   1.921  24.916  0.00  0.00    -0.394 OA
ATOM     20  H   UNL     1       9.054   2.127  25.838  0.00  0.00    +0.209 HD
ENDBRANCH  18  19
ENDBRANCH  16  18
ENDBRANCH   9  13
BRANCH   1  21
ATOM     21  N   UNL     1       5.572  -5.002  25.333  0.00  0.00    -0.324 N 
ATOM     22  H   UNL     1       4.906  -4.551  24.707  0.00  0.00    +0.148 HD
BRANCH  21  24
ATOM     23  C   UNL     1       4.861  -6.398  27.377  0.00  0.00    +0.024 C 
ATOM     24  C   UNL     1       5.256  -5.090  26.753  0.00  0.00    +0.072 C 
ATOM     25  C   UNL     1       3.838  -5.312  27.200  0.00  0.00    +0.024 C 
ENDBRANCH  21  24
ENDBRANCH   1  21
TORSDOF 5
ENDMDL
MODEL 6
REMARK VINA RESULT:      -6.1      2.670      6.185
REMARK  Name = 
REMARK  5 active torsions:
REMARK  status: ('A' for Active; 'I' for Inactive)
REMARK    1  A    between atoms: C_3  and  N_4
REMARK    2  A    between atoms: N_4  and  C_5
REMARK    3  A    between atoms: N_12  and  C_15
REMARK    4  A    between atoms: C_17  and  C_21
REMARK    5  A    between atoms: C_21  and  O_22
REMARK                            x       y       z     vdW  Elec       q    Type
REMARK                         _______ _______ _______ _____ _____    ______ ____
ROOT
ATOM      1  C   UNL     1       9.697  -0.290  24.007  0.00  0.00    +0.152 A 
ATOM      2  N   UNL     1       9.738  -0.077  25.350  0.00  0.00    -0.198 NA
ATOM      3  C   UNL     1       8.980  -0.829  26.165  0.00  0.00    +0.216 A 
ATOM      4  N   UNL     1       9.076  -0.548  27.515  0.00  0.00    -0.327 N 
ATOM      5  H   UNL     1       9.408   0.400  27.627  0.00  0.00    +0.145 HD
ATOM      6  H   UNL     1       8.215  -0.797  27.980  0.00  0.00    +0.145 HD
ATOM      7  N   UNL     1       8.117  -1.791  25.805  0.00  0.00    -0.195 NA
ATOM      8  C   UNL     1       8.100  -1.979  24.476  0.00  0.00    +0.168 A 
ATOM      9  N   UNL     1       7.344  -2.875  23.756  0.00  0.00    -0.308 N 
ATOM     10  C   UNL     1       7.708  -2.735  22.442  0.00  0.00    +0.202 A 
ATOM     11  N   UNL     1       8.598  -1.780  22.267  0.00  0.00    -0.231 NA
ATOM     12  C   UNL     1       8.841  -1.295  23.532  0.00  0.00    +0.148 A 
ENDROOT
BRANCH   9  13
ATOM     13  C   UNL     1       6.385  -3.794  24.339  0.00  0.00    +0.113 C 
ATOM     14  C   UNL     1       5.050  -3.713  23.646  0.00  0.00    -0.006 C 
ATOM     15  C   UNL     1       4.778  -4.804  22.918  0.00  0.00    -0.023 C 
ATOM     16  C   UNL     1       5.879  -5.814  23.007  0.00  0.00    +0.039 C 
ATOM     17  C   UNL     1       6.685  -5.304  24.220  0.00  0.00    +0.039 C 
BRANCH  16  18
ATOM     18  C   UNL     1       6.692  -5.906  21.713  0.00  0.00    +0.163 C 
BRANCH  18  19
ATOM     19  O   UNL     1       5.962  -5.339  20.632  0.00  0.00    -0.394 OA
ATOM     20  H   UNL     1       5.196  -4.872  21.010  0.00  0.00    +0.209 HD
ENDBRANCH  18  19
ENDBRANCH  16  18
ENDBRANCH   9  13
BRANCH   1  21
ATOM     21  N   UNL     1      10.501   0.454  23.121  0.00  0.00    -0.324 N 
ATOM     22  H   UNL     1      11.478   0.362  23.396  0.00  0.00    +0.148 HD
BRANCH  21  24
ATOM     23  C   UNL     1       8.622   2.211  22.986  0.00  0.00    +0.024 C 
ATOM     24  C   UNL     1      10.016   1.752  22.668  0.00  0.00    +0.072 C 
ATOM     25  C   UNL     1       8.985   1.836  21.578  0.00  0.00    +0.024 C 
ENDBRANCH  21  24
ENDBRANCH   1  21
TORSDOF 5
ENDMDL
MODEL 7
REMARK VINA RESULT:      -5.9      2.525      6.568
REMARK  Name = 
REMARK  5 active torsions:
REMARK  status: ('A' for Active; 'I' for Inactive)
REMARK    1  A    between atoms: C_3  and  N_4
REMARK    2  A    between atoms: N_4  and  C_5
REMARK    3  A    between atoms: N_12  and  C_15
REMARK    4  A    between atoms: C_17  and  C_21
REMARK    5  A    between atoms: C_21  and  O_22
REMARK                            x       y       z     vdW  Elec       q    Type
REMARK                         _______ _______ _______ _____ _____    ______ ____
ROOT
ATOM      1  C   UNL     1       9.287   0.647  24.390  0.00  0.00    +0.152 A 
ATOM      2  N   UNL     1       9.559   0.466  23.069  0.00  0.00    -0.198 NA
ATOM      3  C   UNL     1       9.529  -0.771  22.548  0.00  0.00    +0.216 A 
ATOM      4  N   UNL     1       9.821  -0.869  21.201  0.00  0.00    -0.327 N 
ATOM      5  H   UNL     1      10.361  -0.061  20.924  0.00  0.00    +0.145 HD
ATOM      6  H   UNL     1      10.210  -1.779  20.998  0.00  0.00    +0.145 HD
ATOM      7  N   UNL     1       9.284  -1.916  23.201  0.00  0.00    -0.195 NA
ATOM      8  C   UNL     1       9.018  -1.707  24.500  0.00  0.00    +0.168 A 
ATOM      9  N   UNL     1       8.722  -2.640  25.466  0.00  0.00    -0.308 N 
ATOM     10  C   UNL     1       8.474  -1.949  26.624  0.00  0.00    +0.202 A 
ATOM     11  N   UNL     1       8.643  -0.650  26.478  0.00  0.00    -0.231 NA
ATOM     12  C   UNL     1       8.993  -0.492  25.156  0.00  0.00    +0.148 A 
ENDROOT
BRANCH   9  13
ATOM     13  C   UNL     1       8.664  -4.071  25.235  0.00  0.00    +0.113 C 
ATOM     14  C   UNL     1       8.747  -4.844  26.526  0.00  0.00    -0.006 C 
ATOM     15  C   UNL     1       7.590  -5.435  26.849  0.00  0.00    -0.023 C 
ATOM     16  C   UNL     1       6.531  -5.174  25.823  0.00  0.00    +0.039 C 
ATOM     17  C   UNL     1       7.361  -4.642  24.636  0.00  0.00    +0.039 C 
BRANCH  16  18
ATOM     18  C   UNL     1       5.462  -4.199  26.324  0.00  0.00    +0.163 C 
BRANCH  18  19
ATOM     19  O   UNL     1       5.659  -3.919  27.705  0.00  0.00    -0.394 OA
ATOM     20  H   UNL     1       6.616  -3.799  27.844  0.00  0.00    +0.209 HD
ENDBRANCH  18  19
ENDBRANCH  16  18
ENDBRANCH   9  13
BRANCH   1  21
ATOM     21  N   UNL     1       9.276   1.931  24.968  0.00  0.00    -0.324 N 
ATOM     22  H   UNL     1       8.903   1.871  25.914  0.00  0.00    +0.148 HD
BRANCH  21  24
ATOM     23  C   UNL     1       9.898   4.127  23.775  0.00  0.00    +0.024 C 
ATOM     24  C   UNL     1       8.899   3.065  24.133  0.00  0.00    +0.072 C 
ATOM     25  C   UNL     1       8.782   4.439  24.730  0.00  0.00    +0.024 C 
ENDBRANCH  21  24
ENDBRANCH   1  21
TORSDOF 5
ENDMDL
MODEL 8
REMARK VINA RESULT:      -5.9      3.704      7.843
REMARK  Name = 
REMARK  5 active torsions:
REMARK  status: ('A' for Active; 'I' for Inactive)
REMARK    1  A    between atoms: C_3  and  N_4
REMARK    2  A    between atoms: N_4  and  C_5
REMARK    3  A    between atoms: N_12  and  C_15
REMARK    4  A    between atoms: C_17  and  C_21
REMARK    5  A    between atoms: C_21  and  O_22
REMARK                            x       y       z     vdW  Elec       q    Type
REMARK                         _______ _______ _______ _____ _____    ______ ____
ROOT
ATOM      1  C   UNL     1      10.070   3.352  23.662  0.00  0.00    +0.152 A 
ATOM      2  N   UNL     1       9.142   4.213  24.160  0.00  0.00    -0.198 NA
ATOM      3  C   UNL     1       8.201   3.759  25.004  0.00  0.00    +0.216 A 
ATOM      4  N   UNL     1       7.293   4.696  25.461  0.00  0.00    -0.327 N 
ATOM      5  H   UNL     1       7.263   5.466  24.808  0.00  0.00    +0.145 HD
ATOM      6  H   UNL     1       6.418   4.245  25.688  0.00  0.00    +0.145 HD
ATOM      7  N   UNL     1       8.028   2.495  25.417  0.00  0.00    -0.195 NA
ATOM      8  C   UNL     1       8.959   1.670  24.911  0.00  0.00    +0.168 A 
ATOM      9  N   UNL     1       9.095   0.317  25.116  0.00  0.00    -0.308 N 
ATOM     10  C   UNL     1      10.219  -0.077  24.439  0.00  0.00    +0.202 A 
ATOM     11  N   UNL     1      10.777   0.914  23.774  0.00  0.00    -0.231 NA
ATOM     12  C   UNL     1       9.990   2.008  24.056  0.00  0.00    +0.148 A 
ENDROOT
BRANCH   9  13
ATOM     13  C   UNL     1       8.203  -0.482  25.937  0.00  0.00    +0.113 C 
ATOM     14  C   UNL     1       6.859  -0.660  25.280  0.00  0.00    -0.006 C 
ATOM     15  C   UNL     1       6.652  -1.913  24.857  0.00  0.00    -0.023 C 
ATOM     16  C   UNL     1       7.817  -2.800  25.168  0.00  0.00    +0.039 C 
ATOM     17  C   UNL     1       8.600  -1.951  26.193  0.00  0.00    +0.039 C 
BRANCH  16  18
ATOM     18  C   UNL     1       8.622  -3.166  23.919  0.00  0.00    +0.163 C 
BRANCH  18  19
ATOM     19  O   UNL     1       9.924  -3.608  24.284  0.00  0.00    -0.394 OA
ATOM     20  H   UNL     1      10.565  -3.047  23.813  0.00  0.00    +0.209 HD
ENDBRANCH  18  19
ENDBRANCH  16  18
ENDBRANCH   9  13
BRANCH   1  21
ATOM     21  N   UNL     1      11.093   3.795  22.801  0.00  0.00    -0.324 N 
ATOM     22  H   UNL     1      11.220   3.115  22.052  0.00  0.00    +0.148 HD
BRANCH  21  24
ATOM     23  C   UNL     1      12.236   5.855  23.840  0.00  0.00    +0.024 C 
ATOM     24  C   UNL     1      12.270   4.424  23.387  0.00  0.00    +0.072 C 
ATOM     25  C   UNL     1      13.027   5.473  22.622  0.00  0.00    +0.024 C 
ENDBRANCH  21  24
ENDBRANCH   1  21
TORSDOF 5
ENDMDL
MODEL 9
REMARK VINA RESULT:      -5.8      2.793      6.767
REMARK  Name = 
REMARK  5 active torsions:
REMARK  status: ('A' for Active; 'I' for Inactive)
REMARK    1  A    between atoms: C_3  and  N_4
REMARK    2  A    between atoms: N_4  and  C_5
REMARK    3  A    between atoms: N_12  and  C_15
REMARK    4  A    between atoms: C_17  and  C_21
REMARK    5  A    between atoms: C_21  and  O_22
REMARK                            x       y       z     vdW  Elec       q    Type
REMARK                         _______ _______ _______ _____ _____    ______ ____
ROOT
ATOM      1  C   UNL     1       7.916   0.813  22.516  0.00  0.00    +0.152 A 
ATOM      2  N   UNL     1       7.034   1.498  23.294  0.00  0.00    -0.198 NA
ATOM      3  C   UNL     1       6.202   0.825  24.105  0.00  0.00    +0.216 A 
ATOM      4  N   UNL     1       5.335   1.594  24.859  0.00  0.00    -0.327 N 
ATOM      5  H   UNL     1       5.218   2.490  24.408  0.00  0.00    +0.145 HD
ATOM      6  H   UNL     1       4.500   1.066  25.068  0.00  0.00    +0.145 HD
ATOM      7  N   UNL     1       6.100  -0.506  24.232  0.00  0.00    -0.195 NA
ATOM      8  C   UNL     1       6.982  -1.154  23.455  0.00  0.00    +0.168 A 
ATOM      9  N   UNL     1       7.163  -2.512  23.328  0.00  0.00    -0.308 N 
ATOM     10  C   UNL     1       8.211  -2.694  22.463  0.00  0.00    +0.202 A 
ATOM     11  N   UNL     1       8.673  -1.555  21.989  0.00  0.00    -0.231 NA
ATOM     12  C   UNL     1       7.904  -0.588  22.596  0.00  0.00    +0.148 A 
ENDROOT
BRANCH   9  13
ATOM     13  C   UNL     1       6.384  -3.513  24.032  0.00  0.00    +0.113 C 
ATOM     14  C   UNL     1       5.024  -3.694  23.409  0.00  0.00    -0.006 C 
ATOM     15  C   UNL     1       4.894  -4.870  22.784  0.00  0.00    -0.023 C 
ATOM     16  C   UNL     1       6.141  -5.692  22.889  0.00  0.00    +0.039 C 
ATOM     17  C   UNL     1       6.909  -4.965  24.013  0.00  0.00    +0.039 C 
BRANCH  16  18
ATOM     18  C   UNL     1       6.902  -5.769  21.563  0.00  0.00    +0.163 C 
BRANCH  18  19
ATOM     19  O   UNL     1       6.012  -5.564  20.472  0.00  0.00    -0.394 OA
ATOM     20  H   UNL     1       5.325  -6.252  20.523  0.00  0.00    +0.209 HD
ENDBRANCH  18  19
ENDBRANCH  16  18
ENDBRANCH   9  13
BRANCH   1  21
ATOM     21  N   UNL     1       8.827   1.482  21.676  0.00  0.00    -0.324 N 
ATOM     22  H   UNL     1       8.705   1.155  20.719  0.00  0.00    +0.148 HD
BRANCH  21  24
ATOM     23  C   UNL     1      10.512   1.546  23.623  0.00  0.00    +0.024 C 
ATOM     24  C   UNL     1      10.177   1.725  22.171  0.00  0.00    +0.072 C 
ATOM     25  C   UNL     1      10.463   2.924  23.030  0.00  0.00    +0.024 C 
ENDBRANCH  21  24
ENDBRANCH   1  21
TORSDOF 5
ENDMDL
