MODEL 1
REMARK VINA RESULT:      -7.0      0.000      0.000
REMARK  Name = 
REMARK  14 active torsions:
REMARK  status: ('A' for Active; 'I' for Inactive)
REMARK    1  A    between atoms: C_1  and  C_2
REMARK    2  A    between atoms: N_4  and  C_5
REMARK    3  A    between atoms: C_5  and  C_7
REMARK    4  A    between atoms: C_5  and  C_14
REMARK    5  A    between atoms: C_7  and  C_8
REMARK    6  A    between atoms: C_14  and  C_15
REMARK    7  A    between atoms: C_15  and  C_17
REMARK    8  A    between atoms: C_15  and  O_36
REMARK    9  A    between atoms: C_17  and  C_19
REMARK   10  A    between atoms: C_17  and  N_26
REMARK   11  A    between atoms: C_19  and  C_20
REMARK   12  A    between atoms: C_27  and  O_29
REMARK   13  A    between atoms: O_29  and  C_30
REMARK   14  A    between atoms: C_30  and  C_31
REMARK                            x       y       z     vdW  Elec       q    Type
REMARK                         _______ _______ _______ _____ _____    ______ ____
ROOT
ATOM      1  C   UNL     1       8.947  -2.722  22.796  0.00  0.00    +0.109 C 
ENDROOT
BRANCH   1   2
ATOM      2  N   UNL     1       8.759  -2.860  24.258  0.00  0.00    -0.275 N 
ATOM      3  H   UNL     1       8.188  -2.180  24.735  0.00  0.00    +0.152 HD
ATOM      4  C   UNL     1       9.159  -3.920  25.010  0.00  0.00    +0.401 C 
ATOM      5  O   UNL     1       9.768  -4.897  24.600  0.00  0.00    -0.226 OA
BRANCH   4   6
ATOM      6  O   UNL     1       8.794  -3.715  26.300  0.00  0.00    -0.445 OA
BRANCH   6   7
ATOM      7  C   UNL     1       7.483  -3.154  26.494  0.00  0.00    +0.278 C 
BRANCH   7   8
ATOM      8  C   UNL     1       6.502  -4.266  26.610  0.00  0.00    +0.046 A 
ATOM      9  S   UNL     1       4.877  -3.997  27.099  0.00  0.00    -0.077 S 
ATOM     10  C   UNL     1       4.574  -5.681  26.959  0.00  0.00    +0.156 A 
ATOM     11  N   UNL     1       5.590  -6.426  26.586  0.00  0.00    -0.255 NA
ATOM     12  C   UNL     1       6.691  -5.620  26.386  0.00  0.00    +0.125 A 
ENDBRANCH   7   8
ENDBRANCH   6   7
ENDBRANCH   4   6
ENDBRANCH   1   2
BRANCH   1  13
ATOM     13  C   UNL     1      10.046  -1.649  22.463  0.00  0.00    +0.137 C 
BRANCH  13  14
ATOM     14  O   UNL     1       9.490  -0.797  21.429  0.00  0.00    -0.390 OA
ATOM     15  H   UNL     1       9.401   0.099  21.795  0.00  0.00    +0.210 HD
ENDBRANCH  13  14
BRANCH  13  16
ATOM     16  C   UNL     1      10.475  -0.659  23.588  0.00  0.00    +0.055 C 
BRANCH  16  17
ATOM     17  C   UNL     1       9.800   0.717  23.618  0.00  0.00    +0.080 C 
BRANCH  17  20
ATOM     18  C   UNL     1       6.064   0.501  24.245  0.00  0.00    +0.109 C 
ATOM     19  C   UNL     1       7.318   0.829  23.480  0.00  0.00    +0.210 C 
ATOM     20  N   UNL     1       8.471   0.626  24.206  0.00  0.00    -0.312 N 
ATOM     21  H   UNL     1       8.385   0.368  25.182  0.00  0.00    +0.149 HD
ATOM     22  O   UNL     1       7.305   1.170  22.304  0.00  0.00    -0.276 OA
ENDBRANCH  17  20
BRANCH  17  23
ATOM     23  C   UNL     1      10.693   1.881  24.116  0.00  0.00    +0.057 C 
BRANCH  23  24
ATOM     24  C   UNL     1      10.499   3.341  23.781  0.00  0.00    -0.046 A 
ATOM     25  C   UNL     1      11.528   4.205  23.403  0.00  0.00    +0.004 A 
ATOM     26  C   UNL     1      11.302   5.586  23.320  0.00  0.00    +0.000 A 
ATOM     27  C   UNL     1      10.051   6.121  23.622  0.00  0.00    +0.000 A 
ATOM     28  C   UNL     1       9.011   5.276  23.987  0.00  0.00    +0.000 A 
ATOM     29  C   UNL     1       9.236   3.900  24.064  0.00  0.00    +0.004 A 
ENDBRANCH  23  24
ENDBRANCH  17  23
ENDBRANCH  16  17
ENDBRANCH  13  16
ENDBRANCH   1  13
BRANCH   1  30
ATOM     30  C   UNL     1       7.582  -2.503  22.105  0.00  0.00    +0.060 C 
BRANCH  30  31
ATOM     31  C   UNL     1       6.554  -3.595  22.318  0.00  0.00    -0.046 A 
ATOM     32  C   UNL     1       5.360  -3.342  23.006  0.00  0.00    +0.004 A 
ATOM     33  C   UNL     1       4.483  -4.386  23.305  0.00  0.00    +0.000 A 
ATOM     34  C   UNL     1       4.796  -5.689  22.923  0.00  0.00    +0.000 A 
ATOM     35  C   UNL     1       5.982  -5.950  22.241  0.00  0.00    +0.000 A 
ATOM     36  C   UNL     1       6.858  -4.909  21.938  0.00  0.00    +0.004 A 
ENDBRANCH  30  31
ENDBRANCH   1  30
TORSDOF 13
ENDMDL
MODEL 2
REMARK VINA RESULT:      -7.0      0.749      1.419
REMARK  Name = 
REMARK  14 active torsions:
REMARK  status: ('A' for Active; 'I' for Inactive)
REMARK    1  A    between atoms: C_1  and  C_2
REMARK    2  A    between atoms: N_4  and  C_5
REMARK    3  A    between atoms: C_5  and  C_7
REMARK    4  A    between atoms: C_5  and  C_14
REMARK    5  A    between atoms: C_7  and  C_8
REMARK    6  A    between atoms: C_14  and  C_15
REMARK    7  A    between atoms: C_15  and  C_17
REMARK    8  A    between atoms: C_15  and  O_36
REMARK    9  A    between atoms: C_17  and  C_19
REMARK   10  A    between atoms: C_17  and  N_26
REMARK   11  A    between atoms: C_19  and  C_20
REMARK   12  A    between atoms: C_27  and  O_29
REMARK   13  A    between atoms: O_29  and  C_30
REMARK   14  A    between atoms: C_30  and  C_31
REMARK                            x       y       z     vdW  Elec       q    Type
REMARK                         _______ _______ _______ _____ _____    ______ ____
ROOT
ATOM      1  C   UNL     1       9.269  -2.511  22.916  0.00  0.00    +0.109 C 
ENDROOT
BRANCH   1   2
ATOM      2  N   UNL     1       8.962  -2.699  24.352  0.00  0.00    -0.275 N 
ATOM      3  H   UNL     1       8.320  -2.060  24.794  0.00  0.00    +0.152 HD
ATOM      4  C   UNL     1       9.348  -3.759  25.111  0.00  0.00    +0.401 C 
ATOM      5  O   UNL     1      10.038  -4.695  24.732  0.00  0.00    -0.226 OA
BRANCH   4   6
ATOM      6  O   UNL     1       8.863  -3.609  26.368  0.00  0.00    -0.445 OA
BRANCH   6   7
ATOM      7  C   UNL     1       7.537  -3.058  26.462  0.00  0.00    +0.278 C 
BRANCH   7   8
ATOM      8  C   UNL     1       6.558  -4.178  26.506  0.00  0.00    +0.046 A 
ATOM      9  S   UNL     1       4.926  -3.940  26.985  0.00  0.00    -0.077 S 
ATOM     10  C   UNL     1       4.631  -5.616  26.755  0.00  0.00    +0.156 A 
ATOM     11  N   UNL     1       5.655  -6.337  26.359  0.00  0.00    -0.255 NA
ATOM     12  C   UNL     1       6.756  -5.518  26.216  0.00  0.00    +0.125 A 
ENDBRANCH   7   8
ENDBRANCH   6   7
ENDBRANCH   4   6
ENDBRANCH   1   2
BRANCH   1  13
ATOM     13  C   UNL     1      10.231  -1.287  22.696  0.00  0.00    +0.137 C 
BRANCH  13  14
ATOM     14  O   UNL     1       9.749  -0.591  21.519  0.00  0.00    -0.390 OA
ATOM     15  H   UNL     1       8.780  -0.537  21.578  0.00  0.00    +0.210 HD
ENDBRANCH  13  14
BRANCH  13  16
ATOM     16  C   UNL     1      10.287  -0.185  23.798  0.00  0.00    +0.055 C 
BRANCH  16  17
ATOM     17  C   UNL     1       9.277   0.964  23.704  0.00  0.00    +0.080 C 
BRANCH  17  20
ATOM     18  C   UNL     1       5.809  -0.009  24.897  0.00  0.00    +0.109 C 
ATOM     19  C   UNL     1       6.849   0.464  23.917  0.00  0.00    +0.210 C 
ATOM     20  N   UNL     1       8.086   0.669  24.488  0.00  0.00    -0.312 N 
ATOM     21  H   UNL     1       8.174   0.573  25.493  0.00  0.00    +0.149 HD
ATOM     22  O   UNL     1       6.624   0.581  22.719  0.00  0.00    -0.276 OA
ENDBRANCH  17  20
BRANCH  17  23
ATOM     23  C   UNL     1       9.874   2.384  23.871  0.00  0.00    +0.057 C 
BRANCH  23  24
ATOM     24  C   UNL     1       9.150   3.679  23.592  0.00  0.00    -0.046 A 
ATOM     25  C   UNL     1       7.972   3.779  22.848  0.00  0.00    +0.004 A 
ATOM     26  C   UNL     1       7.484   5.033  22.455  0.00  0.00    +0.000 A 
ATOM     27  C   UNL     1       8.169   6.199  22.791  0.00  0.00    +0.000 A 
ATOM     28  C   UNL     1       9.334   6.121  23.543  0.00  0.00    +0.000 A 
ATOM     29  C   UNL     1       9.816   4.872  23.938  0.00  0.00    +0.004 A 
ENDBRANCH  23  24
ENDBRANCH  17  23
ENDBRANCH  16  17
ENDBRANCH  13  16
ENDBRANCH   1  13
BRANCH   1  30
ATOM     30  C   UNL     1       7.961  -2.476  22.096  0.00  0.00    +0.060 C 
BRANCH  30  31
ATOM     31  C   UNL     1       6.935  -3.534  22.447  0.00  0.00    -0.046 A 
ATOM     32  C   UNL     1       7.171  -4.889  22.179  0.00  0.00    +0.004 A 
ATOM     33  C   UNL     1       6.166  -5.835  22.390  0.00  0.00    +0.000 A 
ATOM     34  C   UNL     1       4.920  -5.432  22.864  0.00  0.00    +0.000 A 
ATOM     35  C   UNL     1       4.676  -4.087  23.130  0.00  0.00    +0.000 A 
ATOM     36  C   UNL     1       5.678  -3.141  22.924  0.00  0.00    +0.004 A 
ENDBRANCH  30  31
ENDBRANCH   1  30
TORSDOF 13
ENDMDL
MODEL 3
REMARK VINA RESULT:      -6.9      2.584      7.841
REMARK  Name = 
REMARK  14 active torsions:
REMARK  status: ('A' for Active; 'I' for Inactive)
REMARK    1  A    between atoms: C_1  and  C_2
REMARK    2  A    between atoms: N_4  and  C_5
REMARK    3  A    between atoms: C_5  and  C_7
REMARK    4  A    between atoms: C_5  and  C_14
REMARK    5  A    between atoms: C_7  and  C_8
REMARK    6  A    between atoms: C_14  and  C_15
REMARK    7  A    between atoms: C_15  and  C_17
REMARK    8  A    between atoms: C_15  and  O_36
REMARK    9  A    between atoms: C_17  and  C_19
REMARK   10  A    between atoms: C_17  and  N_26
REMARK   11  A    between atoms: C_19  and  C_20
REMARK   12  A    between atoms: C_27  and  O_29
REMARK   13  A    between atoms: O_29  and  C_30
REMARK   14  A    between atoms: C_30  and  C_31
REMARK                            x       y       z     vdW  Elec       q    Type
REMARK                         _______ _______ _______ _____ _____    ______ ____
ROOT
ATOM      1  C   UNL     1       8.429  -2.688  24.826  0.00  0.00    +0.109 C 
ENDROOT
BRANCH   1   2
ATOM      2  N   UNL     1       9.494  -1.712  24.502  0.00  0.00    -0.275 N 
ATOM      3  H   UNL     1      10.337  -1.719  25.054  0.00  0.00    +0.152 HD
ATOM      4  C   UNL     1       9.512  -0.893  23.417  0.00  0.00    +0.401 C 
ATOM      5  O   UNL     1       8.636  -0.813  22.568  0.00  0.00    -0.226 OA
BRANCH   4   6
ATOM      6  O   UNL     1      10.652  -0.159  23.430  0.00  0.00    -0.445 OA
BRANCH   6   7
ATOM      7  C   UNL     1      10.826   0.698  24.573  0.00  0.00    +0.278 C 
BRANCH   7   8
ATOM      8  C   UNL     1      10.057   1.952  24.349  0.00  0.00    +0.046 A 
ATOM      9  S   UNL     1      10.684   3.248  23.412  0.00  0.00    -0.077 S 
ATOM     10  C   UNL     1       9.246   4.138  23.711  0.00  0.00    +0.156 A 
ATOM     11  N   UNL     1       8.343   3.548  24.461  0.00  0.00    -0.255 NA
ATOM     12  C   UNL     1       8.803   2.300  24.826  0.00  0.00    +0.125 A 
ENDBRANCH   7   8
ENDBRANCH   6   7
ENDBRANCH   4   6
ENDBRANCH   1   2
BRANCH   1  13
ATOM     13  C   UNL     1       8.131  -2.714  26.369  0.00  0.00    +0.137 C 
BRANCH  13  14
ATOM     14  O   UNL     1       8.479  -1.401  26.877  0.00  0.00    -0.390 OA
ATOM     15  H   UNL     1       7.732  -0.804  26.701  0.00  0.00    +0.210 HD
ENDBRANCH  13  14
BRANCH  13  16
ATOM     16  C   UNL     1       6.659  -2.929  26.833  0.00  0.00    +0.055 C 
BRANCH  16  17
ATOM     17  C   UNL     1       6.275  -4.318  27.352  0.00  0.00    +0.080 C 
BRANCH  17  20
ATOM     18  C   UNL     1       4.019  -4.460  30.400  0.00  0.00    +0.109 C 
ATOM     19  C   UNL     1       5.184  -4.842  29.527  0.00  0.00    +0.210 C 
ATOM     20  N   UNL     1       5.166  -4.230  28.292  0.00  0.00    -0.312 N 
ATOM     21  H   UNL     1       4.362  -3.665  28.048  0.00  0.00    +0.149 HD
ATOM     22  O   UNL     1       6.091  -5.567  29.914  0.00  0.00    -0.276 OA
ENDBRANCH  17  20
BRANCH  17  23
ATOM     23  C   UNL     1       6.170  -5.423  26.271  0.00  0.00    +0.057 C 
BRANCH  23  24
ATOM     24  C   UNL     1       5.063  -5.554  25.253  0.00  0.00    -0.046 A 
ATOM     25  C   UNL     1       4.330  -4.480  24.744  0.00  0.00    +0.004 A 
ATOM     26  C   UNL     1       3.183  -4.706  23.971  0.00  0.00    +0.000 A 
ATOM     27  C   UNL     1       2.750  -6.003  23.703  0.00  0.00    +0.000 A 
ATOM     28  C   UNL     1       3.474  -7.084  24.189  0.00  0.00    +0.000 A 
ATOM     29  C   UNL     1       4.619  -6.859  24.955  0.00  0.00    +0.004 A 
ENDBRANCH  23  24
ENDBRANCH  17  23
ENDBRANCH  16  17
ENDBRANCH  13  16
ENDBRANCH   1  13
BRANCH   1  30
ATOM     30  C   UNL     1       8.761  -4.060  24.197  0.00  0.00    +0.060 C 
BRANCH  30  31
ATOM     31  C   UNL     1       7.819  -4.531  23.109  0.00  0.00    -0.046 A 
ATOM     32  C   UNL     1       6.952  -3.638  22.464  0.00  0.00    +0.004 A 
ATOM     33  C   UNL     1       6.002  -4.108  21.556  0.00  0.00    +0.000 A 
ATOM     34  C   UNL     1       5.909  -5.472  21.291  0.00  0.00    +0.000 A 
ATOM     35  C   UNL     1       6.764  -6.368  21.929  0.00  0.00    +0.000 A 
ATOM     36  C   UNL     1       7.717  -5.900  22.833  0.00  0.00    +0.004 A 
ENDBRANCH  30  31
ENDBRANCH   1  30
TORSDOF 13
ENDMDL
MODEL 4
REMARK VINA RESULT:      -6.8      2.178      5.233
REMARK  Name = 
REMARK  14 active torsions:
REMARK  status: ('A' for Active; 'I' for Inactive)
REMARK    1  A    between atoms: C_1  and  C_2
REMARK    2  A    between atoms: N_4  and  C_5
REMARK    3  A    between atoms: C_5  and  C_7
REMARK    4  A    between atoms: C_5  and  C_14
REMARK    5  A    between atoms: C_7  and  C_8
REMARK    6  A    between atoms: C_14  and  C_15
REMARK    7  A    between atoms: C_15  and  C_17
REMARK    8  A    between atoms: C_15  and  O_36
REMARK    9  A    between atoms: C_17  and  C_19
REMARK   10  A    between atoms: C_17  and  N_26
REMARK   11  A    between atoms: C_19  and  C_20
REMARK   12  A    between atoms: C_27  and  O_29
REMARK   13  A    between atoms: O_29  and  C_30
REMARK   14  A    between atoms: C_30  and  C_31
REMARK                            x       y       z     vdW  Elec       q    Type
REMARK                         _______ _______ _______ _____ _____    ______ ____
ROOT
ATOM      1  C   UNL     1       7.408  -0.125  25.775  0.00  0.00    +0.109 C 
ENDROOT
BRANCH   1   2
ATOM      2  N   UNL     1       6.251  -0.796  26.409  0.00  0.00    -0.275 N 
ATOM      3  H   UNL     1       6.092  -0.652  27.394  0.00  0.00    +0.152 HD
ATOM      4  C   UNL     1       5.274  -1.475  25.752  0.00  0.00    +0.401 C 
ATOM      5  O   UNL     1       5.224  -1.668  24.546  0.00  0.00    -0.226 OA
BRANCH   4   6
ATOM      6  O   UNL     1       4.364  -1.928  26.650  0.00  0.00    -0.445 OA
BRANCH   6   7
ATOM      7  C   UNL     1       4.896  -2.710  27.735  0.00  0.00    +0.278 C 
BRANCH   7   8
ATOM      8  C   UNL     1       5.216  -4.071  27.229  0.00  0.00    +0.046 A 
ATOM      9  S   UNL     1       4.026  -5.075  26.504  0.00  0.00    -0.077 S 
ATOM     10  C   UNL     1       5.211  -6.297  26.286  0.00  0.00    +0.156 A 
ATOM     11  N   UNL     1       6.420  -6.018  26.719  0.00  0.00    -0.255 NA
ATOM     12  C   UNL     1       6.425  -4.748  27.257  0.00  0.00    +0.125 A 
ENDBRANCH   7   8
ENDBRANCH   6   7
ENDBRANCH   4   6
ENDBRANCH   1   2
BRANCH   1  13
ATOM     13  C   UNL     1       8.761  -0.801  26.202  0.00  0.00    +0.137 C 
BRANCH  13  14
ATOM     14  O   UNL     1       8.904  -0.573  27.627  0.00  0.00    -0.390 OA
ATOM     15  H   UNL     1       9.706  -0.041  27.766  0.00  0.00    +0.210 HD
ENDBRANCH  13  14
BRANCH  13  16
ATOM     16  C   UNL     1       8.896  -2.346  26.044  0.00  0.00    +0.055 C 
BRANCH  16  17
ATOM     17  C   UNL     1       9.138  -2.897  24.634  0.00  0.00    +0.080 C 
BRANCH  17  20
ATOM     18  C   UNL     1       6.164  -4.709  23.129  0.00  0.00    +0.109 C 
ATOM     19  C   UNL     1       7.587  -4.536  23.586  0.00  0.00    +0.210 C 
ATOM     20  N   UNL     1       7.879  -3.254  23.997  0.00  0.00    -0.312 N 
ATOM     21  H   UNL     1       7.169  -2.540  23.882  0.00  0.00    +0.149 HD
ATOM     22  O   UNL     1       8.378  -5.469  23.653  0.00  0.00    -0.276 OA
ENDBRANCH  17  20
BRANCH  17  23
ATOM     23  C   UNL     1      10.138  -2.088  23.771  0.00  0.00    +0.057 C 
BRANCH  23  24
ATOM     24  C   UNL     1       9.869  -0.741  23.144  0.00  0.00    -0.046 A 
ATOM     25  C   UNL     1       9.190  -0.556  21.937  0.00  0.00    +0.004 A 
ATOM     26  C   UNL     1       9.170   0.702  21.319  0.00  0.00    +0.000 A 
ATOM     27  C   UNL     1       9.833   1.786  21.892  0.00  0.00    +0.000 A 
ATOM     28  C   UNL     1      10.502   1.624  23.098  0.00  0.00    +0.000 A 
ATOM     29  C   UNL     1      10.517   0.372  23.716  0.00  0.00    +0.004 A 
ENDBRANCH  23  24
ENDBRANCH  17  23
ENDBRANCH  16  17
ENDBRANCH  13  16
ENDBRANCH   1  13
BRANCH   1  30
ATOM     30  C   UNL     1       7.331   1.400  26.012  0.00  0.00    +0.060 C 
BRANCH  30  31
ATOM     31  C   UNL     1       7.071   2.245  24.783  0.00  0.00    -0.046 A 
ATOM     32  C   UNL     1       6.328   1.747  23.704  0.00  0.00    +0.004 A 
ATOM     33  C   UNL     1       6.207   2.489  22.528  0.00  0.00    +0.000 A 
ATOM     34  C   UNL     1       6.831   3.730  22.421  0.00  0.00    +0.000 A 
ATOM     35  C   UNL     1       7.574   4.232  23.487  0.00  0.00    +0.000 A 
ATOM     36  C   UNL     1       7.694   3.495  24.664  0.00  0.00    +0.004 A 
ENDBRANCH  30  31
ENDBRANCH   1  30
TORSDOF 13
ENDMDL
MODEL 5
REMARK VINA RESULT:      -6.8      2.657      5.160
REMARK  Name = 
REMARK  14 active torsions:
REMARK  status: ('A' for Active; 'I' for Inactive)
REMARK    1  A    between atoms: C_1  and  C_2
REMARK    2  A    between atoms: N_4  and  C_5
REMARK    3  A    between atoms: C_5  and  C_7
REMARK    4  A    between atoms: C_5  and  C_14
REMARK    5  A    between atoms: C_7  and  C_8
REMARK    6  A    between atoms: C_14  and  C_15
REMARK    7  A    between atoms: C_15  and  C_17
REMARK    8  A    between atoms: C_15  and  O_36
REMARK    9  A    between atoms: C_17  and  C_19
REMARK   10  A    between atoms: C_17  and  N_26
REMARK   11  A    between atoms: C_19  and  C_20
REMARK   12  A    between atoms: C_27  and  O_29
REMARK   13  A    between atoms: O_29  and  C_30
REMARK   14  A    between atoms: C_30  and  C_31
REMARK                            x       y       z     vdW  Elec       q    Type
REMARK                         _______ _______ _______ _____ _____    ______ ____
ROOT
ATOM      1  C   UNL     1       8.606  -1.168  25.489  0.00  0.00    +0.109 C 
ENDROOT
BRANCH   1   2
ATOM      2  N   UNL     1       8.554  -2.633  25.280  0.00  0.00    -0.275 N 
ATOM      3  H   UNL     1       7.811  -3.154  25.718  0.00  0.00    +0.152 HD
ATOM      4  C   UNL     1       9.331  -3.336  24.414  0.00  0.00    +0.401 C 
ATOM      5  O   UNL     1      10.214  -2.872  23.708  0.00  0.00    -0.226 OA
BRANCH   4   6
ATOM      6  O   UNL     1       8.986  -4.647  24.467  0.00  0.00    -0.445 OA
BRANCH   6   7
ATOM      7  C   UNL     1       7.583  -4.914  24.641  0.00  0.00    +0.278 C 
BRANCH   7   8
ATOM      8  C   UNL     1       6.925  -4.892  23.307  0.00  0.00    +0.046 A 
ATOM      9  S   UNL     1       7.253  -6.081  22.111  0.00  0.00    -0.077 S 
ATOM     10  C   UNL     1       6.160  -5.292  21.049  0.00  0.00    +0.156 A 
ATOM     11  N   UNL     1       5.579  -4.209  21.513  0.00  0.00    -0.255 NA
ATOM     12  C   UNL     1       6.013  -3.979  22.801  0.00  0.00    +0.125 A 
ENDBRANCH   7   8
ENDBRANCH   6   7
ENDBRANCH   4   6
ENDBRANCH   1   2
BRANCH   1  13
ATOM     13  C   UNL     1       8.092  -0.780  26.922  0.00  0.00    +0.137 C 
BRANCH  13  14
ATOM     14  O   UNL     1       9.271  -0.579  27.742  0.00  0.00    -0.390 OA
ATOM     15  H   UNL     1       9.965  -1.180  27.423  0.00  0.00    +0.210 HD
ENDBRANCH  13  14
BRANCH  13  16
ATOM     16  C   UNL     1       7.281   0.541  27.083  0.00  0.00    +0.055 C 
BRANCH  16  17
ATOM     17  C   UNL     1       5.929   0.635  26.367  0.00  0.00    +0.080 C 
BRANCH  17  20
ATOM     18  C   UNL     1       3.559  -2.149  27.382  0.00  0.00    +0.109 C 
ATOM     19  C   UNL     1       4.422  -1.343  26.448  0.00  0.00    +0.210 C 
ATOM     20  N   UNL     1       4.938  -0.203  27.026  0.00  0.00    -0.312 N 
ATOM     21  H   UNL     1       4.639   0.038  27.963  0.00  0.00    +0.149 HD
ATOM     22  O   UNL     1       4.692  -1.713  25.313  0.00  0.00    -0.276 OA
ENDBRANCH  17  20
BRANCH  17  23
ATOM     23  C   UNL     1       5.476   2.069  25.994  0.00  0.00    +0.057 C 
BRANCH  23  24
ATOM     24  C   UNL     1       5.881   2.823  24.750  0.00  0.00    -0.046 A 
ATOM     25  C   UNL     1       5.536   2.442  23.451  0.00  0.00    +0.004 A 
ATOM     26  C   UNL     1       6.127   3.069  22.346  0.00  0.00    +0.000 A 
ATOM     27  C   UNL     1       7.075   4.075  22.523  0.00  0.00    +0.000 A 
ATOM     28  C   UNL     1       7.421   4.477  23.807  0.00  0.00    +0.000 A 
ATOM     29  C   UNL     1       6.828   3.855  24.907  0.00  0.00    +0.004 A 
ENDBRANCH  23  24
ENDBRANCH  17  23
ENDBRANCH  16  17
ENDBRANCH  13  16
ENDBRANCH   1  13
BRANCH   1  30
ATOM     30  C   UNL     1       7.906  -0.442  24.319  0.00  0.00    +0.060 C 
BRANCH  30  31
ATOM     31  C   UNL     1       8.733   0.609  23.607  0.00  0.00    -0.046 A 
ATOM     32  C   UNL     1       8.783   0.666  22.208  0.00  0.00    +0.004 A 
ATOM     33  C   UNL     1       9.647   1.556  21.568  0.00  0.00    +0.000 A 
ATOM     34  C   UNL     1      10.471   2.390  22.323  0.00  0.00    +0.000 A 
ATOM     35  C   UNL     1      10.430   2.337  23.714  0.00  0.00    +0.000 A 
ATOM     36  C   UNL     1       9.564   1.452  24.355  0.00  0.00    +0.004 A 
ENDBRANCH  30  31
ENDBRANCH   1  30
TORSDOF 13
ENDMDL
MODEL 6
REMARK VINA RESULT:      -6.7      2.711      5.054
REMARK  Name = 
REMARK  14 active torsions:
REMARK  status: ('A' for Active; 'I' for Inactive)
REMARK    1  A    between atoms: C_1  and  C_2
REMARK    2  A    between atoms: N_4  and  C_5
REMARK    3  A    between atoms: C_5  and  C_7
REMARK    4  A    between atoms: C_5  and  C_14
REMARK    5  A    between atoms: C_7  and  C_8
REMARK    6  A    between atoms: C_14  and  C_15
REMARK    7  A    between atoms: C_15  and  C_17
REMARK    8  A    between atoms: C_15  and  O_36
REMARK    9  A    between atoms: C_17  and  C_19
REMARK   10  A    between atoms: C_17  and  N_26
REMARK   11  A    between atoms: C_19  and  C_20
REMARK   12  A    between atoms: C_27  and  O_29
REMARK   13  A    between atoms: O_29  and  C_30
REMARK   14  A    between atoms: C_30  and  C_31
REMARK                            x       y       z     vdW  Elec       q    Type
REMARK                         _______ _______ _______ _____ _____    ______ ____
ROOT
ATOM      1  C   UNL     1       9.125   0.570  22.943  0.00  0.00    +0.109 C 
ENDROOT
BRANCH   1   2
ATOM      2  N   UNL     1       8.857  -0.783  23.482  0.00  0.00    -0.275 N 
ATOM      3  H   UNL     1       8.060  -0.910  24.086  0.00  0.00    +0.152 HD
ATOM      4  C   UNL     1       9.500  -1.922  23.113  0.00  0.00    +0.401 C 
ATOM      5  O   UNL     1      10.420  -1.996  22.312  0.00  0.00    -0.226 OA
BRANCH   4   6
ATOM      6  O   UNL     1       8.972  -2.972  23.790  0.00  0.00    -0.445 OA
BRANCH   6   7
ATOM      7  C   UNL     1       7.550  -2.925  24.001  0.00  0.00    +0.278 C 
BRANCH   7   8
ATOM      8  C   UNL     1       6.925  -4.076  23.294  0.00  0.00    +0.046 A 
ATOM      9  S   UNL     1       5.236  -4.145  22.986  0.00  0.00    -0.077 S 
ATOM     10  C   UNL     1       5.453  -5.671  22.231  0.00  0.00    +0.156 A 
ATOM     11  N   UNL     1       6.682  -6.135  22.200  0.00  0.00    -0.255 NA
ATOM     12  C   UNL     1       7.524  -5.226  22.805  0.00  0.00    +0.125 A 
ENDBRANCH   7   8
ENDBRANCH   6   7
ENDBRANCH   4   6
ENDBRANCH   1   2
BRANCH   1  13
ATOM     13  C   UNL     1       9.558   1.560  24.085  0.00  0.00    +0.137 C 
BRANCH  13  14
ATOM     14  O   UNL     1       9.921   0.741  25.225  0.00  0.00    -0.390 OA
ATOM     15  H   UNL     1       9.907  -0.190  24.943  0.00  0.00    +0.210 HD
ENDBRANCH  13  14
BRANCH  13  16
ATOM     16  C   UNL     1      10.808   2.461  23.846  0.00  0.00    +0.055 C 
BRANCH  16  17
ATOM     17  C   UNL     1      10.579   3.970  23.713  0.00  0.00    +0.080 C 
BRANCH  17  20
ATOM     18  C   UNL     1      13.527   5.744  22.113  0.00  0.00    +0.109 C 
ATOM     19  C   UNL     1      12.543   5.411  23.202  0.00  0.00    +0.210 C 
ATOM     20  N   UNL     1      11.540   4.558  22.792  0.00  0.00    -0.312 N 
ATOM     21  H   UNL     1      11.497   4.305  21.812  0.00  0.00    +0.149 HD
ATOM     22  O   UNL     1      12.672   5.804  24.354  0.00  0.00    -0.276 OA
ENDBRANCH  17  20
BRANCH  17  23
ATOM     23  C   UNL     1       9.102   4.402  23.532  0.00  0.00    +0.057 C 
BRANCH  23  24
ATOM     24  C   UNL     1       8.159   4.795  24.644  0.00  0.00    -0.046 A 
ATOM     25  C   UNL     1       7.991   4.071  25.826  0.00  0.00    +0.004 A 
ATOM     26  C   UNL     1       6.946   4.382  26.707  0.00  0.00    +0.000 A 
ATOM     27  C   UNL     1       6.053   5.411  26.415  0.00  0.00    +0.000 A 
ATOM     28  C   UNL     1       6.213   6.151  25.251  0.00  0.00    +0.000 A 
ATOM     29  C   UNL     1       7.257   5.844  24.377  0.00  0.00    +0.004 A 
ENDBRANCH  23  24
ENDBRANCH  17  23
ENDBRANCH  16  17
ENDBRANCH  13  16
ENDBRANCH   1  13
BRANCH   1  30
ATOM     30  C   UNL     1       7.934   1.041  22.080  0.00  0.00    +0.060 C 
BRANCH  30  31
ATOM     31  C   UNL     1       6.810   1.728  22.828  0.00  0.00    -0.046 A 
ATOM     32  C   UNL     1       6.316   1.208  24.032  0.00  0.00    +0.004 A 
ATOM     33  C   UNL     1       5.198   1.779  24.642  0.00  0.00    +0.000 A 
ATOM     34  C   UNL     1       4.563   2.869  24.050  0.00  0.00    +0.000 A 
ATOM     35  C   UNL     1       5.045   3.391  22.851  0.00  0.00    +0.000 A 
ATOM     36  C   UNL     1       6.165   2.825  22.243  0.00  0.00    +0.004 A 
ENDBRANCH  30  31
ENDBRANCH   1  30
TORSDOF 13
ENDMDL
MODEL 7
REMARK VINA RESULT:      -6.6      2.490      4.749
REMARK  Name = 
REMARK  14 active torsions:
REMARK  status: ('A' for Active; 'I' for Inactive)
REMARK    1  A    between atoms: C_1  and  C_2
REMARK    2  A    between atoms: N_4  and  C_5
REMARK    3  A    between atoms: C_5  and  C_7
REMARK    4  A    between atoms: C_5  and  C_14
REMARK    5  A    between atoms: C_7  and  C_8
REMARK    6  A    between atoms: C_14  and  C_15
REMARK    7  A    between atoms: C_15  and  C_17
REMARK    8  A    between atoms: C_15  and  O_36
REMARK    9  A    between atoms: C_17  and  C_19
REMARK   10  A    between atoms: C_17  and  N_26
REMARK   11  A    between atoms: C_19  and  C_20
REMARK   12  A    between atoms: C_27  and  O_29
REMARK   13  A    between atoms: O_29  and  C_30
REMARK   14  A    between atoms: C_30  and  C_31
REMARK                            x       y       z     vdW  Elec       q    Type
REMARK                         _______ _______ _______ _____ _____    ______ ____
ROOT
ATOM      1  C   UNL     1       8.075  -2.073  23.022  0.00  0.00    +0.109 C 
ENDROOT
BRANCH   1   2
ATOM      2  N   UNL     1       7.360  -3.179  22.347  0.00  0.00    -0.275 N 
ATOM      3  H   UNL     1       6.778  -2.961  21.554  0.00  0.00    +0.152 HD
ATOM      4  C   UNL     1       7.535  -4.504  22.598  0.00  0.00    +0.401 C 
ATOM      5  O   UNL     1       8.278  -4.978  23.445  0.00  0.00    -0.226 OA
BRANCH   4   6
ATOM      6  O   UNL     1       6.737  -5.224  21.772  0.00  0.00    -0.445 OA
BRANCH   6   7
ATOM      7  C   UNL     1       6.110  -6.377  22.362  0.00  0.00    +0.278 C 
BRANCH   7   8
ATOM      8  C   UNL     1       4.982  -5.920  23.218  0.00  0.00    +0.046 A 
ATOM      9  S   UNL     1       4.535  -6.751  24.653  0.00  0.00    -0.077 S 
ATOM     10  C   UNL     1       3.276  -5.611  24.903  0.00  0.00    +0.156 A 
ATOM     11  N   UNL     1       3.159  -4.667  23.996  0.00  0.00    -0.255 NA
ATOM     12  C   UNL     1       4.132  -4.841  23.034  0.00  0.00    +0.125 A 
ENDBRANCH   7   8
ENDBRANCH   6   7
ENDBRANCH   4   6
ENDBRANCH   1   2
BRANCH   1  13
ATOM     13  C   UNL     1       7.067  -1.043  23.649  0.00  0.00    +0.137 C 
BRANCH  13  14
ATOM     14  O   UNL     1       5.751  -1.647  23.558  0.00  0.00    -0.390 OA
ATOM     15  H   UNL     1       5.209  -1.295  24.284  0.00  0.00    +0.210 HD
ENDBRANCH  13  14
BRANCH  13  16
ATOM     16  C   UNL     1       7.222  -0.683  25.158  0.00  0.00    +0.055 C 
BRANCH  16  17
ATOM     17  C   UNL     1       6.492   0.564  25.668  0.00  0.00    +0.080 C 
BRANCH  17  20
ATOM     18  C   UNL     1       4.326  -0.750  28.492  0.00  0.00    +0.109 C 
ATOM     19  C   UNL     1       4.700  -0.450  27.066  0.00  0.00    +0.210 C 
ATOM     20  N   UNL     1       5.851   0.300  26.948  0.00  0.00    -0.312 N 
ATOM     21  H   UNL     1       6.286   0.648  27.794  0.00  0.00    +0.149 HD
ATOM     22  O   UNL     1       4.078  -0.896  26.111  0.00  0.00    -0.276 OA
ENDBRANCH  17  20
BRANCH  17  23
ATOM     23  C   UNL     1       7.290   1.888  25.561  0.00  0.00    +0.057 C 
BRANCH  23  24
ATOM     24  C   UNL     1       7.164   2.903  24.450  0.00  0.00    -0.046 A 
ATOM     25  C   UNL     1       6.584   2.642  23.207  0.00  0.00    +0.004 A 
ATOM     26  C   UNL     1       6.699   3.568  22.161  0.00  0.00    +0.000 A 
ATOM     27  C   UNL     1       7.401   4.758  22.340  0.00  0.00    +0.000 A 
ATOM     28  C   UNL     1       7.973   5.042  23.573  0.00  0.00    +0.000 A 
ATOM     29  C   UNL     1       7.853   4.122  24.616  0.00  0.00    +0.004 A 
ENDBRANCH  23  24
ENDBRANCH  17  23
ENDBRANCH  16  17
ENDBRANCH  13  16
ENDBRANCH   1  13
BRANCH   1  30
ATOM     30  C   UNL     1       9.130  -1.466  22.071  0.00  0.00    +0.060 C 
BRANCH  30  31
ATOM     31  C   UNL     1       9.789  -0.189  22.548  0.00  0.00    -0.046 A 
ATOM     32  C   UNL     1      10.418  -0.121  23.799  0.00  0.00    +0.004 A 
ATOM     33  C   UNL     1      10.908   1.095  24.277  0.00  0.00    +0.000 A 
ATOM     34  C   UNL     1      10.767   2.252  23.513  0.00  0.00    +0.000 A 
ATOM     35  C   UNL     1      10.140   2.194  22.270  0.00  0.00    +0.000 A 
ATOM     36  C   UNL     1       9.654   0.980  21.787  0.00  0.00    +0.004 A 
ENDBRANCH  30  31
ENDBRANCH   1  30
TORSDOF 13
ENDMDL
MODEL 8
REMARK VINA RESULT:      -6.6      2.501      4.765
REMARK  Name = 
REMARK  14 active torsions:
REMARK  status: ('A' for Active; 'I' for Inactive)
REMARK    1  A    between atoms: C_1  and  C_2
REMARK    2  A    between atoms: N_4  and  C_5
REMARK    3  A    between atoms: C_5  and  C_7
REMARK    4  A    between atoms: C_5  and  C_14
REMARK    5  A    between atoms: C_7  and  C_8
REMARK    6  A    between atoms: C_14  and  C_15
REMARK    7  A    between atoms: C_15  and  C_17
REMARK    8  A    between atoms: C_15  and  O_36
REMARK    9  A    between atoms: C_17  and  C_19
REMARK   10  A    between atoms: C_17  and  N_26
REMARK   11  A    between atoms: C_19  and  C_20
REMARK   12  A    between atoms: C_27  and  O_29
REMARK   13  A    between atoms: O_29  and  C_30
REMARK   14  A    between atoms: C_30  and  C_31
REMARK                            x       y       z     vdW  Elec       q    Type
REMARK                         _______ _______ _______ _____ _____    ______ ____
ROOT
ATOM      1  C   UNL     1       8.576  -1.247  25.620  0.00  0.00    +0.109 C 
ENDROOT
BRANCH   1   2
ATOM      2  N   UNL     1       8.358  -2.710  25.564  0.00  0.00    -0.275 N 
ATOM      3  H   UNL     1       7.548  -3.094  26.025  0.00  0.00    +0.152 HD
ATOM      4  C   UNL     1       9.070  -3.587  24.806  0.00  0.00    +0.401 C 
ATOM      5  O   UNL     1      10.020  -3.305  24.091  0.00  0.00    -0.226 OA
BRANCH   4   6
ATOM      6  O   UNL     1       8.573  -4.836  24.983  0.00  0.00    -0.445 OA
BRANCH   6   7
ATOM      7  C   UNL     1       7.139  -4.948  24.937  0.00  0.00    +0.278 C 
BRANCH   7   8
ATOM      8  C   UNL     1       6.666  -5.542  26.216  0.00  0.00    +0.046 A 
ATOM      9  S   UNL     1       5.143  -6.325  26.346  0.00  0.00    -0.077 S 
ATOM     10  C   UNL     1       5.458  -6.626  28.007  0.00  0.00    +0.156 A 
ATOM     11  N   UNL     1       6.603  -6.181  28.471  0.00  0.00    -0.255 NA
ATOM     12  C   UNL     1       7.295  -5.562  27.451  0.00  0.00    +0.125 A 
ENDBRANCH   7   8
ENDBRANCH   6   7
ENDBRANCH   4   6
ENDBRANCH   1   2
BRANCH   1  13
ATOM     13  C   UNL     1       8.046  -0.646  26.973  0.00  0.00    +0.137 C 
BRANCH  13  14
ATOM     14  O   UNL     1       9.214  -0.377  27.789  0.00  0.00    -0.390 OA
ATOM     15  H   UNL     1       9.689   0.374  27.395  0.00  0.00    +0.210 HD
ENDBRANCH  13  14
BRANCH  13  16
ATOM     16  C   UNL     1       7.286   0.715  26.928  0.00  0.00    +0.055 C 
BRANCH  16  17
ATOM     17  C   UNL     1       5.844   0.704  26.412  0.00  0.00    +0.080 C 
BRANCH  17  20
ATOM     18  C   UNL     1       3.339  -1.289  28.449  0.00  0.00    +0.109 C 
ATOM     19  C   UNL     1       4.042  -0.818  27.205  0.00  0.00    +0.210 C 
ATOM     20  N   UNL     1       4.934   0.208  27.434  0.00  0.00    -0.312 N 
ATOM     21  H   UNL     1       4.979   0.605  28.364  0.00  0.00    +0.149 HD
ATOM     22  O   UNL     1       3.884  -1.352  26.114  0.00  0.00    -0.276 OA
ENDBRANCH  17  20
BRANCH  17  23
ATOM     23  C   UNL     1       5.400   1.986  25.662  0.00  0.00    +0.057 C 
BRANCH  23  24
ATOM     24  C   UNL     1       6.189   2.693  24.587  0.00  0.00    -0.046 A 
ATOM     25  C   UNL     1       7.113   3.712  24.828  0.00  0.00    +0.004 A 
ATOM     26  C   UNL     1       7.641   4.459  23.767  0.00  0.00    +0.000 A 
ATOM     27  C   UNL     1       7.247   4.205  22.454  0.00  0.00    +0.000 A 
ATOM     28  C   UNL     1       6.341   3.186  22.193  0.00  0.00    +0.000 A 
ATOM     29  C   UNL     1       5.820   2.438  23.250  0.00  0.00    +0.004 A 
ENDBRANCH  23  24
ENDBRANCH  17  23
ENDBRANCH  16  17
ENDBRANCH  13  16
ENDBRANCH   1  13
BRANCH   1  30
ATOM     30  C   UNL     1       8.022  -0.580  24.342  0.00  0.00    +0.060 C 
BRANCH  30  31
ATOM     31  C   UNL     1       8.957   0.388  23.647  0.00  0.00    -0.046 A 
ATOM     32  C   UNL     1       9.792   1.242  24.380  0.00  0.00    +0.004 A 
ATOM     33  C   UNL     1      10.552   2.216  23.729  0.00  0.00    +0.000 A 
ATOM     34  C   UNL     1      10.478   2.346  22.344  0.00  0.00    +0.000 A 
ATOM     35  C   UNL     1       9.648   1.503  21.607  0.00  0.00    +0.000 A 
ATOM     36  C   UNL     1       8.892   0.527  22.254  0.00  0.00    +0.004 A 
ENDBRANCH  30  31
ENDBRANCH   1  30
TORSDOF 13
ENDMDL
MODEL 9
REMARK VINA RESULT:      -6.6      2.463      4.545
REMARK  Name = 
REMARK  14 active torsions:
REMARK  status: ('A' for Active; 'I' for Inactive)
REMARK    1  A    between atoms: C_1  and  C_2
REMARK    2  A    between atoms: N_4  and  C_5
REMARK    3  A    between atoms: C_5  and  C_7
REMARK    4  A    between atoms: C_5  and  C_14
REMARK    5  A    between atoms: C_7  and  C_8
REMARK    6  A    between atoms: C_14  and  C_15
REMARK    7  A    between atoms: C_15  and  C_17
REMARK    8  A    between atoms: C_15  and  O_36
REMARK    9  A    between atoms: C_17  and  C_19
REMARK   10  A    between atoms: C_17  and  N_26
REMARK   11  A    between atoms: C_19  and  C_20
REMARK   12  A    between atoms: C_27  and  O_29
REMARK   13  A    between atoms: O_29  and  C_30
REMARK   14  A    between atoms: C_30  and  C_31
REMARK                            x       y       z     vdW  Elec       q    Type
REMARK                         _______ _______ _______ _____ _____    ______ ____
ROOT
ATOM      1  C   UNL     1       8.818   0.337  22.558  0.00  0.00    +0.109 C 
ENDROOT
BRANCH   1   2
ATOM      2  N   UNL     1       8.973  -0.861  23.413  0.00  0.00    -0.275 N 
ATOM      3  H   UNL     1       8.291  -1.027  24.137  0.00  0.00    +0.152 HD
ATOM      4  C   UNL     1       9.872  -1.862  23.217  0.00  0.00    +0.401 C 
ATOM      5  O   UNL     1      10.713  -1.903  22.330  0.00  0.00    -0.226 OA
BRANCH   4   6
ATOM      6  O   UNL     1       9.707  -2.806  24.176  0.00  0.00    -0.445 OA
BRANCH   6   7
ATOM      7  C   UNL     1       8.661  -3.764  23.932  0.00  0.00    +0.278 C 
BRANCH   7   8
ATOM      8  C   UNL     1       8.083  -4.182  25.237  0.00  0.00    +0.046 A 
ATOM      9  S   UNL     1       6.854  -3.273  26.020  0.00  0.00    -0.077 S 
ATOM     10  C   UNL     1       6.855  -4.409  27.307  0.00  0.00    +0.156 A 
ATOM     11  N   UNL     1       7.705  -5.405  27.202  0.00  0.00    -0.255 NA
ATOM     12  C   UNL     1       8.407  -5.278  26.021  0.00  0.00    +0.125 A 
ENDBRANCH   7   8
ENDBRANCH   6   7
ENDBRANCH   4   6
ENDBRANCH   1   2
BRANCH   1  13
ATOM     13  C   UNL     1      10.121   1.216  22.571  0.00  0.00    +0.137 C 
BRANCH  13  14
ATOM     14  O   UNL     1       9.960   2.206  21.524  0.00  0.00    -0.390 OA
ATOM     15  H   UNL     1      10.511   2.975  21.750  0.00  0.00    +0.210 HD
ENDBRANCH  13  14
BRANCH  13  16
ATOM     16  C   UNL     1      10.433   2.054  23.848  0.00  0.00    +0.055 C 
BRANCH  16  17
ATOM     17  C   UNL     1      10.357   3.580  23.731  0.00  0.00    +0.080 C 
BRANCH  17  20
ATOM     18  C   UNL     1      13.329   5.473  22.324  0.00  0.00    +0.109 C 
ATOM     19  C   UNL     1      12.132   5.243  23.208  0.00  0.00    +0.210 C 
ATOM     20  N   UNL     1      11.443   4.089  22.905  0.00  0.00    -0.312 N 
ATOM     21  H   UNL     1      11.731   3.556  22.094  0.00  0.00    +0.149 HD
ATOM     22  O   UNL     1      11.853   5.977  24.147  0.00  0.00    -0.276 OA
ENDBRANCH  17  20
BRANCH  17  23
ATOM     23  C   UNL     1       8.947   4.151  23.439  0.00  0.00    +0.057 C 
BRANCH  23  24
ATOM     24  C   UNL     1       7.870   4.401  24.467  0.00  0.00    -0.046 A 
ATOM     25  C   UNL     1       8.078   4.380  25.847  0.00  0.00    +0.004 A 
ATOM     26  C   UNL     1       6.990   4.407  26.731  0.00  0.00    +0.000 A 
ATOM     27  C   UNL     1       5.684   4.446  26.248  0.00  0.00    +0.000 A 
ATOM     28  C   UNL     1       5.457   4.482  24.878  0.00  0.00    +0.000 A 
ATOM     29  C   UNL     1       6.541   4.460  23.999  0.00  0.00    +0.004 A 
ENDBRANCH  23  24
ENDBRANCH  17  23
ENDBRANCH  16  17
ENDBRANCH  13  16
ENDBRANCH   1  13
BRANCH   1  30
ATOM     30  C   UNL     1       7.516   1.084  22.925  0.00  0.00    +0.060 C 
BRANCH  30  31
ATOM     31  C   UNL     1       6.989   0.840  24.323  0.00  0.00    -0.046 A 
ATOM     32  C   UNL     1       5.612   0.768  24.577  0.00  0.00    +0.004 A 
ATOM     33  C   UNL     1       5.140   0.671  25.887  0.00  0.00    +0.000 A 
ATOM     34  C   UNL     1       6.039   0.651  26.951  0.00  0.00    +0.000 A 
ATOM     35  C   UNL     1       7.409   0.726  26.709  0.00  0.00    +0.000 A 
ATOM     36  C   UNL     1       7.884   0.818  25.401  0.00  0.00    +0.004 A 
ENDBRANCH  30  31
ENDBRANCH   1  30
TORSDOF 13
ENDMDL
