MODEL 1
REMARK VINA RESULT:      -6.8      0.000      0.000
REMARK  Name = 
REMARK  11 active torsions:
REMARK  status: ('A' for Active; 'I' for Inactive)
REMARK    1  A    between atoms: C_1  and  C_2
REMARK    2  A    between atoms: C_2  and  C_3
REMARK    3  A    between atoms: C_2  and  C_4
REMARK    4  A    between atoms: C_2  and  C_5
REMARK    5  A    between atoms: C_7  and  N_28
REMARK    6  A    between atoms: C_9  and  C_13
REMARK    7  A    between atoms: C_10  and  O_11
REMARK    8  A    between atoms: O_11  and  C_12
REMARK    9  A    between atoms: C_20  and  N_23
REMARK   10  A    between atoms: N_23  and  S_24
REMARK   11  A    between atoms: S_24  and  C_27
REMARK                            x       y       z     vdW  Elec       q    Type
REMARK                         _______ _______ _______ _____ _____    ______ ____
ROOT
ATOM      1  C   UNL     1       8.618   0.841  24.166  0.00  0.00    +0.002 A 
ATOM      2  C   UNL     1       8.153  -0.474  23.887  0.00  0.00    +0.132 A 
ATOM      3  C   UNL     1       6.799  -0.851  24.164  0.00  0.00    +0.026 A 
ATOM      4  C   UNL     1       5.944   0.142  24.711  0.00  0.00    +0.038 A 
ATOM      5  C   UNL     1       6.378   1.411  25.105  0.00  0.00    +0.052 A 
ATOM      6  C   UNL     1       7.726   1.701  24.867  0.00  0.00    +0.034 A 
ENDROOT
BRANCH   3   7
ATOM      7  C   UNL     1       6.207  -2.211  23.909  0.00  0.00    -0.014 A 
ATOM      8  C   UNL     1       5.834  -2.609  22.606  0.00  0.00    +0.009 A 
ATOM      9  C   UNL     1       5.253  -3.855  22.337  0.00  0.00    +0.009 A 
ATOM     10  C   UNL     1       4.939  -4.724  23.384  0.00  0.00    -0.016 A 
ATOM     11  C   UNL     1       4.257  -5.929  23.157  0.00  0.00    +0.033 A 
ATOM     12  C   UNL     1       3.871  -6.731  24.229  0.00  0.00    +0.048 A 
ATOM     13  C   UNL     1       4.176  -6.352  25.535  0.00  0.00    +0.025 A 
ATOM     14  C   UNL     1       4.906  -5.186  25.765  0.00  0.00    +0.010 A 
ATOM     15  C   UNL     1       5.287  -4.357  24.698  0.00  0.00    -0.017 A 
ATOM     16  C   UNL     1       5.968  -3.148  24.926  0.00  0.00    +0.017 A 
BRANCH  12  17
ATOM     17  N   UNL     1       3.069  -7.886  23.988  0.00  0.00    -0.221 N 
ATOM     18  H   UNL     1       3.059  -8.564  24.755  0.00  0.00    +0.173 HD
BRANCH  17  19
ATOM     19  S   UNL     1       1.465  -7.616  23.486  0.00  0.00    +0.040 S 
ATOM     20  C   UNL     1       0.668  -9.103  24.047  0.00  0.00    +0.218 C 
ATOM     21  O   UNL     1       1.400  -7.553  22.045  0.00  0.00    -0.155 OA
ATOM     22  O   UNL     1       0.996  -6.523  24.309  0.00  0.00    -0.155 OA
ENDBRANCH  17  19
ENDBRANCH  12  17
ENDBRANCH   3   7
BRANCH   5  23
ATOM     23  N   UNL     1       5.462   2.377  25.705  0.00  0.00    -0.269 N 
ATOM     24  C   UNL     1       4.363   2.874  24.963  0.00  0.00    +0.334 A 
ATOM     25  O   UNL     1       4.010   2.515  23.839  0.00  0.00    -0.246 OA
ATOM     26  N   UNL     1       3.585   3.819  25.593  0.00  0.00    -0.275 N 
ATOM     27  H   UNL     1       2.788   4.148  25.076  0.00  0.00    +0.173 HD
ATOM     28  C   UNL     1       3.669   4.205  26.897  0.00  0.00    +0.254 A 
ATOM     29  O   UNL     1       2.854   4.942  27.434  0.00  0.00    -0.268 OA
ATOM     30  C   UNL     1       4.814   3.665  27.633  0.00  0.00    +0.088 A 
ATOM     31  C   UNL     1       5.634   2.809  27.020  0.00  0.00    +0.101 A 
ENDBRANCH   5  23
BRANCH   1  33
ATOM     32  C   UNL     1       9.998   3.017  23.789  0.00  0.00    +0.015 C 
ATOM     33  C   UNL     1       9.932   1.469  23.602  0.00  0.00    -0.009 C 
ATOM     34  C   UNL     1      11.205   0.960  24.308  0.00  0.00    +0.015 C 
ATOM     35  C   UNL     1      10.008   1.243  22.074  0.00  0.00    +0.015 C 
ENDBRANCH   1  33
BRANCH   2  36
ATOM     36  O   UNL     1       8.901  -1.346  23.132  0.00  0.00    -0.494 OA
ATOM     37  C   UNL     1       9.711  -2.290  23.825  0.00  0.00    +0.277 C 
ENDBRANCH   2  36
TORSDOF 6
ENDMDL
MODEL 2
REMARK VINA RESULT:      -6.5      3.349      5.822
REMARK  Name = 
REMARK  11 active torsions:
REMARK  status: ('A' for Active; 'I' for Inactive)
REMARK    1  A    between atoms: C_1  and  C_2
REMARK    2  A    between atoms: C_2  and  C_3
REMARK    3  A    between atoms: C_2  and  C_4
REMARK    4  A    between atoms: C_2  and  C_5
REMARK    5  A    between atoms: C_7  and  N_28
REMARK    6  A    between atoms: C_9  and  C_13
REMARK    7  A    between atoms: C_10  and  O_11
REMARK    8  A    between atoms: O_11  and  C_12
REMARK    9  A    between atoms: C_20  and  N_23
REMARK   10  A    between atoms: N_23  and  S_24
REMARK   11  A    between atoms: S_24  and  C_27
REMARK                            x       y       z     vdW  Elec       q    Type
REMARK                         _______ _______ _______ _____ _____    ______ ____
ROOT
ATOM      1  C   UNL     1       5.640   3.978  23.497  0.00  0.00    +0.002 A 
ATOM      2  C   UNL     1       5.428   2.689  24.062  0.00  0.00    +0.132 A 
ATOM      3  C   UNL     1       6.529   1.900  24.527  0.00  0.00    +0.026 A 
ATOM      4  C   UNL     1       7.829   2.460  24.414  0.00  0.00    +0.038 A 
ATOM      5  C   UNL     1       8.100   3.671  23.769  0.00  0.00    +0.052 A 
ATOM      6  C   UNL     1       6.990   4.369  23.279  0.00  0.00    +0.034 A 
ENDROOT
BRANCH   3   7
ATOM      7  C   UNL     1       6.417   0.528  25.138  0.00  0.00    -0.014 A 
ATOM      8  C   UNL     1       6.660   0.323  26.515  0.00  0.00    +0.009 A 
ATOM      9  C   UNL     1       6.595  -0.943  27.109  0.00  0.00    +0.009 A 
ATOM     10  C   UNL     1       6.367  -2.076  26.327  0.00  0.00    -0.016 A 
ATOM     11  C   UNL     1       6.407  -3.367  26.876  0.00  0.00    +0.033 A 
ATOM     12  C   UNL     1       6.271  -4.484  26.054  0.00  0.00    +0.048 A 
ATOM     13  C   UNL     1       6.078  -4.329  24.683  0.00  0.00    +0.025 A 
ATOM     14  C   UNL     1       5.979  -3.048  24.138  0.00  0.00    +0.010 A 
ATOM     15  C   UNL     1       6.130  -1.912  24.948  0.00  0.00    -0.017 A 
ATOM     16  C   UNL     1       6.094  -0.619  24.397  0.00  0.00    +0.017 A 
BRANCH  12  17
ATOM     17  N   UNL     1       6.440  -5.788  26.610  0.00  0.00    -0.221 N 
ATOM     18  H   UNL     1       7.282  -5.900  27.181  0.00  0.00    +0.173 HD
BRANCH  17  19
ATOM     19  S   UNL     1       5.119  -6.433  27.468  0.00  0.00    +0.040 S 
ATOM     20  C   UNL     1       4.160  -7.142  26.150  0.00  0.00    +0.218 C 
ATOM     21  O   UNL     1       4.365  -5.369  28.090  0.00  0.00    -0.155 OA
ATOM     22  O   UNL     1       5.674  -7.517  28.247  0.00  0.00    -0.155 OA
ENDBRANCH  17  19
ENDBRANCH  12  17
ENDBRANCH   3   7
BRANCH   5  23
ATOM     23  N   UNL     1       9.464   4.177  23.643  0.00  0.00    -0.269 N 
ATOM     24  C   UNL     1      10.468   3.379  23.040  0.00  0.00    +0.334 A 
ATOM     25  O   UNL     1      10.312   2.282  22.502  0.00  0.00    -0.246 OA
ATOM     26  N   UNL     1      11.734   3.918  23.013  0.00  0.00    -0.275 N 
ATOM     27  H   UNL     1      12.438   3.364  22.558  0.00  0.00    +0.173 HD
ATOM     28  C   UNL     1      12.086   5.188  23.361  0.00  0.00    +0.254 A 
ATOM     29  O   UNL     1      13.203   5.651  23.175  0.00  0.00    -0.268 OA
ATOM     30  C   UNL     1      11.020   5.983  23.973  0.00  0.00    +0.088 A 
ATOM     31  C   UNL     1       9.800   5.455  24.089  0.00  0.00    +0.101 A 
ENDBRANCH   5  23
BRANCH   1  33
ATOM     32  C   UNL     1       5.037   6.299  22.483  0.00  0.00    +0.015 C 
ATOM     33  C   UNL     1       4.532   5.058  23.283  0.00  0.00    -0.009 C 
ATOM     34  C   UNL     1       3.335   4.550  22.453  0.00  0.00    +0.015 C 
ATOM     35  C   UNL     1       4.072   5.618  24.649  0.00  0.00    +0.015 C 
ENDBRANCH   1  33
BRANCH   2  36
ATOM     36  O   UNL     1       4.167   2.261  24.399  0.00  0.00    -0.494 OA
ATOM     37  C   UNL     1       3.748   2.439  25.748  0.00  0.00    +0.277 C 
ENDBRANCH   2  36
TORSDOF 6
ENDMDL
MODEL 3
REMARK VINA RESULT:      -6.4      1.492      1.971
REMARK  Name = 
REMARK  11 active torsions:
REMARK  status: ('A' for Active; 'I' for Inactive)
REMARK    1  A    between atoms: C_1  and  C_2
REMARK    2  A    between atoms: C_2  and  C_3
REMARK    3  A    between atoms: C_2  and  C_4
REMARK    4  A    between atoms: C_2  and  C_5
REMARK    5  A    between atoms: C_7  and  N_28
REMARK    6  A    between atoms: C_9  and  C_13
REMARK    7  A    between atoms: C_10  and  O_11
REMARK    8  A    between atoms: O_11  and  C_12
REMARK    9  A    between atoms: C_20  and  N_23
REMARK   10  A    between atoms: N_23  and  S_24
REMARK   11  A    between atoms: S_24  and  C_27
REMARK                            x       y       z     vdW  Elec       q    Type
REMARK                         _______ _______ _______ _____ _____    ______ ____
ROOT
ATOM      1  C   UNL     1       8.570   1.499  24.037  0.00  0.00    +0.002 A 
ATOM      2  C   UNL     1       7.988   0.203  24.119  0.00  0.00    +0.132 A 
ATOM      3  C   UNL     1       6.579   0.041  24.322  0.00  0.00    +0.026 A 
ATOM      4  C   UNL     1       5.794   1.220  24.422  0.00  0.00    +0.038 A 
ATOM      5  C   UNL     1       6.330   2.510  24.457  0.00  0.00    +0.052 A 
ATOM      6  C   UNL     1       7.719   2.603  24.317  0.00  0.00    +0.034 A 
ENDROOT
BRANCH   3   7
ATOM      7  C   UNL     1       5.863  -1.279  24.426  0.00  0.00    -0.014 A 
ATOM      8  C   UNL     1       5.195  -1.652  25.614  0.00  0.00    +0.009 A 
ATOM      9  C   UNL     1       4.546  -2.885  25.755  0.00  0.00    +0.009 A 
ATOM     10  C   UNL     1       4.613  -3.837  24.736  0.00  0.00    -0.016 A 
ATOM     11  C   UNL     1       4.068  -5.120  24.894  0.00  0.00    +0.033 A 
ATOM     12  C   UNL     1       4.234  -6.080  23.898  0.00  0.00    +0.048 A 
ATOM     13  C   UNL     1       4.927  -5.770  22.730  0.00  0.00    +0.025 A 
ATOM     14  C   UNL     1       5.422  -4.479  22.541  0.00  0.00    +0.010 A 
ATOM     15  C   UNL     1       5.279  -3.504  23.541  0.00  0.00    -0.017 A 
ATOM     16  C   UNL     1       5.829  -2.219  23.384  0.00  0.00    +0.017 A 
BRANCH  12  17
ATOM     17  N   UNL     1       3.782  -7.414  24.129  0.00  0.00    -0.221 N 
ATOM     18  H   UNL     1       4.209  -7.873  24.938  0.00  0.00    +0.173 HD
BRANCH  17  19
ATOM     19  S   UNL     1       2.099  -7.653  24.201  0.00  0.00    +0.040 S 
ATOM     20  C   UNL     1       1.568  -6.852  22.706  0.00  0.00    +0.218 C 
ATOM     21  O   UNL     1       1.548  -6.954  25.340  0.00  0.00    -0.155 OA
ATOM     22  O   UNL     1       1.916  -9.078  24.032  0.00  0.00    -0.155 OA
ENDBRANCH  17  19
ENDBRANCH  12  17
ENDBRANCH   3   7
BRANCH   5  23
ATOM     23  N   UNL     1       5.476   3.685  24.607  0.00  0.00    -0.269 N 
ATOM     24  C   UNL     1       4.751   4.187  23.498  0.00  0.00    +0.334 A 
ATOM     25  O   UNL     1       4.680   3.683  22.376  0.00  0.00    -0.246 OA
ATOM     26  N   UNL     1       4.015   5.328  23.722  0.00  0.00    -0.275 N 
ATOM     27  H   UNL     1       3.478   5.665  22.942  0.00  0.00    +0.173 HD
ATOM     28  C   UNL     1       3.788   5.927  24.924  0.00  0.00    +0.254 A 
ATOM     29  O   UNL     1       3.004   6.854  25.077  0.00  0.00    -0.268 OA
ATOM     30  C   UNL     1       4.548   5.376  26.048  0.00  0.00    +0.088 A 
ATOM     31  C   UNL     1       5.336   4.319  25.842  0.00  0.00    +0.101 A 
ENDBRANCH   5  23
BRANCH   1  33
ATOM     32  C   UNL     1      10.366   3.323  23.559  0.00  0.00    +0.015 C 
ATOM     33  C   UNL     1       9.996   1.809  23.480  0.00  0.00    -0.009 C 
ATOM     34  C   UNL     1      11.125   1.115  24.270  0.00  0.00    +0.015 C 
ATOM     35  C   UNL     1      10.062   1.455  21.976  0.00  0.00    +0.015 C 
ENDBRANCH   1  33
BRANCH   2  36
ATOM     36  O   UNL     1       8.702  -0.919  23.773  0.00  0.00    -0.494 OA
ATOM     37  C   UNL     1       9.213  -1.727  24.828  0.00  0.00    +0.277 C 
ENDBRANCH   2  36
TORSDOF 6
ENDMDL
MODEL 4
REMARK VINA RESULT:      -6.3      3.817      9.940
REMARK  Name = 
REMARK  11 active torsions:
REMARK  status: ('A' for Active; 'I' for Inactive)
REMARK    1  A    between atoms: C_1  and  C_2
REMARK    2  A    between atoms: C_2  and  C_3
REMARK    3  A    between atoms: C_2  and  C_4
REMARK    4  A    between atoms: C_2  and  C_5
REMARK    5  A    between atoms: C_7  and  N_28
REMARK    6  A    between atoms: C_9  and  C_13
REMARK    7  A    between atoms: C_10  and  O_11
REMARK    8  A    between atoms: O_11  and  C_12
REMARK    9  A    between atoms: C_20  and  N_23
REMARK   10  A    between atoms: N_23  and  S_24
REMARK   11  A    between atoms: S_24  and  C_27
REMARK                            x       y       z     vdW  Elec       q    Type
REMARK                         _______ _______ _______ _____ _____    ______ ____
ROOT
ATOM      1  C   UNL     1       2.992  -5.423  27.866  0.00  0.00    +0.002 A 
ATOM      2  C   UNL     1       4.033  -4.477  27.656  0.00  0.00    +0.132 A 
ATOM      3  C   UNL     1       4.471  -4.145  26.333  0.00  0.00    +0.026 A 
ATOM      4  C   UNL     1       3.816  -4.785  25.249  0.00  0.00    +0.038 A 
ATOM      5  C   UNL     1       2.866  -5.799  25.404  0.00  0.00    +0.052 A 
ATOM      6  C   UNL     1       2.524  -6.125  26.721  0.00  0.00    +0.034 A 
ENDROOT
BRANCH   3   7
ATOM      7  C   UNL     1       5.561  -3.162  26.001  0.00  0.00    -0.014 A 
ATOM      8  C   UNL     1       6.912  -3.444  26.305  0.00  0.00    +0.009 A 
ATOM      9  C   UNL     1       7.948  -2.541  26.038  0.00  0.00    +0.009 A 
ATOM     10  C   UNL     1       7.661  -1.272  25.530  0.00  0.00    -0.016 A 
ATOM     11  C   UNL     1       8.664  -0.307  25.357  0.00  0.00    +0.033 A 
ATOM     12  C   UNL     1       8.335   0.981  24.940  0.00  0.00    +0.048 A 
ATOM     13  C   UNL     1       7.009   1.317  24.674  0.00  0.00    +0.025 A 
ATOM     14  C   UNL     1       6.014   0.346  24.788  0.00  0.00    +0.010 A 
ATOM     15  C   UNL     1       6.325  -0.951  25.223  0.00  0.00    -0.017 A 
ATOM     16  C   UNL     1       5.318  -1.917  25.401  0.00  0.00    +0.017 A 
BRANCH  12  17
ATOM     17  N   UNL     1       9.351   1.983  24.891  0.00  0.00    -0.221 N 
ATOM     18  H   UNL     1       9.802   2.174  25.790  0.00  0.00    +0.173 HD
BRANCH  17  19
ATOM     19  S   UNL     1      10.562   1.790  23.710  0.00  0.00    +0.040 S 
ATOM     20  C   UNL     1      11.021   3.480  23.402  0.00  0.00    +0.218 C 
ATOM     21  O   UNL     1       9.997   1.221  22.509  0.00  0.00    -0.155 OA
ATOM     22  O   UNL     1      11.659   1.151  24.402  0.00  0.00    -0.155 OA
ENDBRANCH  17  19
ENDBRANCH  12  17
ENDBRANCH   3   7
BRANCH   5  23
ATOM     23  N   UNL     1       2.258  -6.455  24.250  0.00  0.00    -0.269 N 
ATOM     24  C   UNL     1       2.443  -7.843  24.037  0.00  0.00    +0.334 A 
ATOM     25  O   UNL     1       3.016  -8.633  24.790  0.00  0.00    -0.246 OA
ATOM     26  N   UNL     1       1.877  -8.362  22.895  0.00  0.00    -0.275 N 
ATOM     27  H   UNL     1       1.984  -9.352  22.763  0.00  0.00    +0.173 HD
ATOM     28  C   UNL     1       1.034  -7.718  22.040  0.00  0.00    +0.254 A 
ATOM     29  O   UNL     1       0.448  -8.279  21.124  0.00  0.00    -0.268 OA
ATOM     30  C   UNL     1       0.862  -6.287  22.295  0.00  0.00    +0.088 A 
ATOM     31  C   UNL     1       1.468  -5.738  23.350  0.00  0.00    +0.101 A 
ENDBRANCH   5  23
BRANCH   1  33
ATOM     32  C   UNL     1       1.365  -6.925  29.236  0.00  0.00    +0.015 C 
ATOM     33  C   UNL     1       2.201  -5.608  29.200  0.00  0.00    -0.009 C 
ATOM     34  C   UNL     1       3.111  -5.718  30.440  0.00  0.00    +0.015 C 
ATOM     35  C   UNL     1       1.167  -4.469  29.360  0.00  0.00    +0.015 C 
ENDBRANCH   1  33
BRANCH   2  36
ATOM     36  O   UNL     1       4.486  -3.681  28.682  0.00  0.00    -0.494 OA
ATOM     37  C   UNL     1       4.026  -2.334  28.723  0.00  0.00    +0.277 C 
ENDBRANCH   2  36
TORSDOF 6
ENDMDL
MODEL 5
REMARK VINA RESULT:      -6.2      4.441      8.840
REMARK  Name = 
REMARK  11 active torsions:
REMARK  status: ('A' for Active; 'I' for Inactive)
REMARK    1  A    between atoms: C_1  and  C_2
REMARK    2  A    between atoms: C_2  and  C_3
REMARK    3  A    between atoms: C_2  and  C_4
REMARK    4  A    between atoms: C_2  and  C_5
REMARK    5  A    between atoms: C_7  and  N_28
REMARK    6  A    between atoms: C_9  and  C_13
REMARK    7  A    between atoms: C_10  and  O_11
REMARK    8  A    between atoms: O_11  and  C_12
REMARK    9  A    between atoms: C_20  and  N_23
REMARK   10  A    between atoms: N_23  and  S_24
REMARK   11  A    between atoms: S_24  and  C_27
REMARK                            x       y       z     vdW  Elec       q    Type
REMARK                         _______ _______ _______ _____ _____    ______ ____
ROOT
ATOM      1  C   UNL     1       4.547  -4.160  24.129  0.00  0.00    +0.002 A 
ATOM      2  C   UNL     1       5.589  -3.231  23.856  0.00  0.00    +0.132 A 
ATOM      3  C   UNL     1       5.794  -2.087  24.693  0.00  0.00    +0.026 A 
ATOM      4  C   UNL     1       4.928  -1.930  25.808  0.00  0.00    +0.038 A 
ATOM      5  C   UNL     1       3.824  -2.751  26.056  0.00  0.00    +0.052 A 
ATOM      6  C   UNL     1       3.638  -3.816  25.168  0.00  0.00    +0.034 A 
ENDROOT
BRANCH   3   7
ATOM      7  C   UNL     1       6.862  -1.045  24.494  0.00  0.00    -0.014 A 
ATOM      8  C   UNL     1       8.028  -1.037  25.291  0.00  0.00    +0.009 A 
ATOM      9  C   UNL     1       9.026  -0.065  25.153  0.00  0.00    +0.009 A 
ATOM     10  C   UNL     1       8.856   0.997  24.263  0.00  0.00    -0.016 A 
ATOM     11  C   UNL     1       9.787   2.044  24.184  0.00  0.00    +0.033 A 
ATOM     12  C   UNL     1       9.542   3.139  23.357  0.00  0.00    +0.048 A 
ATOM     13  C   UNL     1       8.382   3.195  22.588  0.00  0.00    +0.025 A 
ATOM     14  C   UNL     1       7.480   2.131  22.618  0.00  0.00    +0.010 A 
ATOM     15  C   UNL     1       7.701   1.028  23.458  0.00  0.00    -0.017 A 
ATOM     16  C   UNL     1       6.766  -0.019  23.540  0.00  0.00    +0.017 A 
BRANCH  12  17
ATOM     17  N   UNL     1      10.437   4.251  23.384  0.00  0.00    -0.221 N 
ATOM     18  H   UNL     1      10.822   4.509  22.471  0.00  0.00    +0.173 HD
BRANCH  17  19
ATOM     19  S   UNL     1       9.882   5.664  24.154  0.00  0.00    +0.040 S 
ATOM     20  C   UNL     1      11.415   6.417  24.649  0.00  0.00    +0.218 C 
ATOM     21  O   UNL     1       9.116   5.319  25.329  0.00  0.00    -0.155 OA
ATOM     22  O   UNL     1       9.315   6.468  23.094  0.00  0.00    -0.155 OA
ENDBRANCH  17  19
ENDBRANCH  12  17
ENDBRANCH   3   7
BRANCH   5  23
ATOM     23  N   UNL     1       2.940  -2.514  27.194  0.00  0.00    -0.269 N 
ATOM     24  C   UNL     1       1.689  -1.878  27.005  0.00  0.00    +0.334 A 
ATOM     25  O   UNL     1       1.183  -1.554  25.929  0.00  0.00    -0.246 OA
ATOM     26  N   UNL     1       0.948  -1.649  28.142  0.00  0.00    -0.275 N 
ATOM     27  H   UNL     1       0.048  -1.225  28.001  0.00  0.00    +0.173 HD
ATOM     28  C   UNL     1       1.220  -2.106  29.396  0.00  0.00    +0.254 A 
ATOM     29  O   UNL     1       0.445  -1.993  30.336  0.00  0.00    -0.268 OA
ATOM     30  C   UNL     1       2.518  -2.764  29.551  0.00  0.00    +0.088 A 
ATOM     31  C   UNL     1       3.296  -2.926  28.478  0.00  0.00    +0.101 A 
ENDBRANCH   5  23
BRANCH   1  33
ATOM     32  C   UNL     1       2.972  -6.015  23.203  0.00  0.00    +0.015 C 
ATOM     33  C   UNL     1       4.441  -5.595  23.522  0.00  0.00    -0.009 C 
ATOM     34  C   UNL     1       5.165  -5.741  22.168  0.00  0.00    +0.015 C 
ATOM     35  C   UNL     1       4.946  -6.638  24.546  0.00  0.00    +0.015 C 
ENDBRANCH   1  33
BRANCH   2  36
ATOM     36  O   UNL     1       6.572  -3.517  22.939  0.00  0.00    -0.494 OA
ATOM     37  C   UNL     1       7.777  -4.100  23.423  0.00  0.00    +0.277 C 
ENDBRANCH   2  36
TORSDOF 6
ENDMDL
MODEL 6
REMARK VINA RESULT:      -6.1      1.778      2.362
REMARK  Name = 
REMARK  11 active torsions:
REMARK  status: ('A' for Active; 'I' for Inactive)
REMARK    1  A    between atoms: C_1  and  C_2
REMARK    2  A    between atoms: C_2  and  C_3
REMARK    3  A    between atoms: C_2  and  C_4
REMARK    4  A    between atoms: C_2  and  C_5
REMARK    5  A    between atoms: C_7  and  N_28
REMARK    6  A    between atoms: C_9  and  C_13
REMARK    7  A    between atoms: C_10  and  O_11
REMARK    8  A    between atoms: O_11  and  C_12
REMARK    9  A    between atoms: C_20  and  N_23
REMARK   10  A    between atoms: N_23  and  S_24
REMARK   11  A    between atoms: S_24  and  C_27
REMARK                            x       y       z     vdW  Elec       q    Type
REMARK                         _______ _______ _______ _____ _____    ______ ____
ROOT
ATOM      1  C   UNL     1       8.526   0.655  24.893  0.00  0.00    +0.002 A 
ATOM      2  C   UNL     1       8.001  -0.663  24.791  0.00  0.00    +0.132 A 
ATOM      3  C   UNL     1       6.814  -1.040  25.500  0.00  0.00    +0.026 A 
ATOM      4  C   UNL     1       6.183  -0.045  26.291  0.00  0.00    +0.038 A 
ATOM      5  C   UNL     1       6.717   1.228  26.512  0.00  0.00    +0.052 A 
ATOM      6  C   UNL     1       7.911   1.518  25.842  0.00  0.00    +0.034 A 
ENDROOT
BRANCH   3   7
ATOM      7  C   UNL     1       6.177  -2.404  25.463  0.00  0.00    -0.014 A 
ATOM      8  C   UNL     1       6.640  -3.445  26.299  0.00  0.00    +0.009 A 
ATOM      9  C   UNL     1       6.091  -4.733  26.269  0.00  0.00    +0.009 A 
ATOM     10  C   UNL     1       5.107  -5.057  25.333  0.00  0.00    -0.016 A 
ATOM     11  C   UNL     1       4.618  -6.365  25.205  0.00  0.00    +0.033 A 
ATOM     12  C   UNL     1       3.708  -6.679  24.198  0.00  0.00    +0.048 A 
ATOM     13  C   UNL     1       3.261  -5.694  23.321  0.00  0.00    +0.025 A 
ATOM     14  C   UNL     1       3.698  -4.378  23.479  0.00  0.00    +0.010 A 
ATOM     15  C   UNL     1       4.628  -4.047  24.476  0.00  0.00    -0.017 A 
ATOM     16  C   UNL     1       5.121  -2.735  24.602  0.00  0.00    +0.017 A 
BRANCH  12  17
ATOM     17  N   UNL     1       3.319  -8.039  24.005  0.00  0.00    -0.221 N 
ATOM     18  H   UNL     1       4.030  -8.726  24.270  0.00  0.00    +0.173 HD
BRANCH  17  19
ATOM     19  S   UNL     1       1.832  -8.516  24.681  0.00  0.00    +0.040 S 
ATOM     20  C   UNL     1       0.769  -8.467  23.257  0.00  0.00    +0.218 C 
ATOM     21  O   UNL     1       1.388  -7.534  25.644  0.00  0.00    -0.155 OA
ATOM     22  O   UNL     1       2.017  -9.902  25.050  0.00  0.00    -0.155 OA
ENDBRANCH  17  19
ENDBRANCH  12  17
ENDBRANCH   3   7
BRANCH   5  23
ATOM     23  N   UNL     1       6.045   2.196  27.373  0.00  0.00    -0.269 N 
ATOM     24  C   UNL     1       6.303   2.211  28.766  0.00  0.00    +0.334 A 
ATOM     25  O   UNL     1       7.132   1.528  29.369  0.00  0.00    -0.246 OA
ATOM     26  N   UNL     1       5.584   3.123  29.506  0.00  0.00    -0.275 N 
ATOM     27  H   UNL     1       5.791   3.153  30.488  0.00  0.00    +0.173 HD
ATOM     28  C   UNL     1       4.776   4.107  29.021  0.00  0.00    +0.254 A 
ATOM     29  O   UNL     1       4.281   4.978  29.723  0.00  0.00    -0.268 OA
ATOM     30  C   UNL     1       4.539   4.063  27.577  0.00  0.00    +0.088 A 
ATOM     31  C   UNL     1       5.159   3.135  26.845  0.00  0.00    +0.101 A 
ENDBRANCH   5  23
BRANCH   1  33
ATOM     32  C   UNL     1       9.641   2.837  24.013  0.00  0.00    +0.015 C 
ATOM     33  C   UNL     1       9.579   1.280  23.925  0.00  0.00    -0.009 C 
ATOM     34  C   UNL     1      11.026   0.839  24.227  0.00  0.00    +0.015 C 
ATOM     35  C   UNL     1       9.193   0.973  22.459  0.00  0.00    +0.015 C 
ENDBRANCH   1  33
BRANCH   2  36
ATOM     36  O   UNL     1       8.463  -1.539  23.838  0.00  0.00    -0.494 OA
ATOM     37  C   UNL     1       9.509  -2.430  24.213  0.00  0.00    +0.277 C 
ENDBRANCH   2  36
TORSDOF 6
ENDMDL
MODEL 7
REMARK VINA RESULT:      -6.1      3.825     10.133
REMARK  Name = 
REMARK  11 active torsions:
REMARK  status: ('A' for Active; 'I' for Inactive)
REMARK    1  A    between atoms: C_1  and  C_2
REMARK    2  A    between atoms: C_2  and  C_3
REMARK    3  A    between atoms: C_2  and  C_4
REMARK    4  A    between atoms: C_2  and  C_5
REMARK    5  A    between atoms: C_7  and  N_28
REMARK    6  A    between atoms: C_9  and  C_13
REMARK    7  A    between atoms: C_10  and  O_11
REMARK    8  A    between atoms: O_11  and  C_12
REMARK    9  A    between atoms: C_20  and  N_23
REMARK   10  A    between atoms: N_23  and  S_24
REMARK   11  A    between atoms: S_24  and  C_27
REMARK                            x       y       z     vdW  Elec       q    Type
REMARK                         _______ _______ _______ _____ _____    ______ ____
ROOT
ATOM      1  C   UNL     1       2.452  -6.334  28.089  0.00  0.00    +0.002 A 
ATOM      2  C   UNL     1       3.267  -5.168  28.100  0.00  0.00    +0.132 A 
ATOM      3  C   UNL     1       3.603  -4.493  26.882  0.00  0.00    +0.026 A 
ATOM      4  C   UNL     1       3.079  -5.025  25.674  0.00  0.00    +0.038 A 
ATOM      5  C   UNL     1       2.367  -6.226  25.598  0.00  0.00    +0.052 A 
ATOM      6  C   UNL     1       2.123  -6.874  26.814  0.00  0.00    +0.034 A 
ENDROOT
BRANCH   3   7
ATOM      7  C   UNL     1       4.456  -3.257  26.782  0.00  0.00    -0.014 A 
ATOM      8  C   UNL     1       3.870  -1.975  26.672  0.00  0.00    +0.009 A 
ATOM      9  C   UNL     1       4.633  -0.808  26.546  0.00  0.00    +0.009 A 
ATOM     10  C   UNL     1       6.023  -0.885  26.437  0.00  0.00    -0.016 A 
ATOM     11  C   UNL     1       6.804   0.256  26.199  0.00  0.00    +0.033 A 
ATOM     12  C   UNL     1       8.178   0.137  25.999  0.00  0.00    +0.048 A 
ATOM     13  C   UNL     1       8.791  -1.113  26.051  0.00  0.00    +0.025 A 
ATOM     14  C   UNL     1       8.030  -2.245  26.345  0.00  0.00    +0.010 A 
ATOM     15  C   UNL     1       6.642  -2.146  26.533  0.00  0.00    -0.017 A 
ATOM     16  C   UNL     1       5.859  -3.290  26.768  0.00  0.00    +0.017 A 
BRANCH  12  17
ATOM     17  N   UNL     1       8.935   1.291  25.633  0.00  0.00    -0.221 N 
ATOM     18  H   UNL     1       9.568   1.631  26.362  0.00  0.00    +0.173 HD
BRANCH  17  19
ATOM     19  S   UNL     1       9.796   1.211  24.167  0.00  0.00    +0.040 S 
ATOM     20  C   UNL     1       9.859   2.926  23.705  0.00  0.00    +0.218 C 
ATOM     21  O   UNL     1       9.033   0.478  23.184  0.00  0.00    -0.155 OA
ATOM     22  O   UNL     1      11.132   0.802  24.540  0.00  0.00    -0.155 OA
ENDBRANCH  17  19
ENDBRANCH  12  17
ENDBRANCH   3   7
BRANCH   5  23
ATOM     23  N   UNL     1       1.892  -6.749  24.321  0.00  0.00    -0.269 N 
ATOM     24  C   UNL     1       2.130  -8.100  23.969  0.00  0.00    +0.334 A 
ATOM     25  O   UNL     1       2.644  -8.966  24.679  0.00  0.00    -0.246 OA
ATOM     26  N   UNL     1       1.692  -8.489  22.724  0.00  0.00    -0.275 N 
ATOM     27  H   UNL     1       1.835  -9.455  22.489  0.00  0.00    +0.173 HD
ATOM     28  C   UNL     1       0.923  -7.759  21.868  0.00  0.00    +0.254 A 
ATOM     29  O   UNL     1       0.444  -8.215  20.839  0.00  0.00    -0.268 OA
ATOM     30  C   UNL     1       0.693  -6.370  22.268  0.00  0.00    +0.088 A 
ATOM     31  C   UNL     1       1.178  -5.941  23.435  0.00  0.00    +0.101 A 
ENDBRANCH   5  23
BRANCH   1  33
ATOM     32  C   UNL     1       0.759  -8.103  28.974  0.00  0.00    +0.015 C 
ATOM     33  C   UNL     1       1.739  -6.944  29.337  0.00  0.00    -0.009 C 
ATOM     34  C   UNL     1       2.713  -7.590  30.343  0.00  0.00    +0.015 C 
ATOM     35  C   UNL     1       0.858  -5.869  30.018  0.00  0.00    +0.015 C 
ENDBRANCH   1  33
BRANCH   2  36
ATOM     36  O   UNL     1       3.558  -4.517  29.275  0.00  0.00    -0.494 OA
ATOM     37  C   UNL     1       4.787  -4.837  29.919  0.00  0.00    +0.277 C 
ENDBRANCH   2  36
TORSDOF 6
ENDMDL
MODEL 8
REMARK VINA RESULT:      -5.9      4.085      9.587
REMARK  Name = 
REMARK  11 active torsions:
REMARK  status: ('A' for Active; 'I' for Inactive)
REMARK    1  A    between atoms: C_1  and  C_2
REMARK    2  A    between atoms: C_2  and  C_3
REMARK    3  A    between atoms: C_2  and  C_4
REMARK    4  A    between atoms: C_2  and  C_5
REMARK    5  A    between atoms: C_7  and  N_28
REMARK    6  A    between atoms: C_9  and  C_13
REMARK    7  A    between atoms: C_10  and  O_11
REMARK    8  A    between atoms: O_11  and  C_12
REMARK    9  A    between atoms: C_20  and  N_23
REMARK   10  A    between atoms: N_23  and  S_24
REMARK   11  A    between atoms: S_24  and  C_27
REMARK                            x       y       z     vdW  Elec       q    Type
REMARK                         _______ _______ _______ _____ _____    ______ ____
ROOT
ATOM      1  C   UNL     1       5.201  -5.951  27.303  0.00  0.00    +0.002 A 
ATOM      2  C   UNL     1       6.042  -4.983  26.686  0.00  0.00    +0.132 A 
ATOM      3  C   UNL     1       5.903  -4.666  25.296  0.00  0.00    +0.026 A 
ATOM      4  C   UNL     1       4.888  -5.344  24.570  0.00  0.00    +0.038 A 
ATOM      5  C   UNL     1       4.111  -6.378  25.101  0.00  0.00    +0.052 A 
ATOM      6  C   UNL     1       4.335  -6.686  26.447  0.00  0.00    +0.034 A 
ENDROOT
BRANCH   3   7
ATOM      7  C   UNL     1       6.739  -3.664  24.547  0.00  0.00    -0.014 A 
ATOM      8  C   UNL     1       8.123  -3.874  24.349  0.00  0.00    +0.009 A 
ATOM      9  C   UNL     1       8.936  -2.949  23.684  0.00  0.00    +0.009 A 
ATOM     10  C   UNL     1       8.411  -1.726  23.262  0.00  0.00    -0.016 A 
ATOM     11  C   UNL     1       9.224  -0.735  22.694  0.00  0.00    +0.033 A 
ATOM     12  C   UNL     1       8.691   0.512  22.371  0.00  0.00    +0.048 A 
ATOM     13  C   UNL     1       7.342   0.779  22.594  0.00  0.00    +0.025 A 
ATOM     14  C   UNL     1       6.514  -0.221  23.104  0.00  0.00    +0.010 A 
ATOM     15  C   UNL     1       7.037  -1.476  23.451  0.00  0.00    -0.017 A 
ATOM     16  C   UNL     1       6.222  -2.468  24.025  0.00  0.00    +0.017 A 
BRANCH  12  17
ATOM     17  N   UNL     1       9.560   1.548  21.912  0.00  0.00    -0.221 N 
ATOM     18  H   UNL     1       9.191   2.095  21.129  0.00  0.00    +0.173 HD
BRANCH  17  19
ATOM     19  S   UNL     1      10.158   2.624  23.086  0.00  0.00    +0.040 S 
ATOM     20  C   UNL     1       8.770   3.714  23.301  0.00  0.00    +0.218 C 
ATOM     21  O   UNL     1      11.274   3.370  22.552  0.00  0.00    -0.155 OA
ATOM     22  O   UNL     1      10.289   1.830  24.288  0.00  0.00    -0.155 OA
ENDBRANCH  17  19
ENDBRANCH  12  17
ENDBRANCH   3   7
BRANCH   5  23
ATOM     23  N   UNL     1       3.112  -7.070  24.292  0.00  0.00    -0.269 N 
ATOM     24  C   UNL     1       2.832  -6.632  22.974  0.00  0.00    +0.334 A 
ATOM     25  O   UNL     1       3.416  -5.741  22.356  0.00  0.00    -0.246 OA
ATOM     26  N   UNL     1       1.838  -7.312  22.308  0.00  0.00    -0.275 N 
ATOM     27  H   UNL     1       1.663  -7.019  21.363  0.00  0.00    +0.173 HD
ATOM     28  C   UNL     1       1.213  -8.450  22.721  0.00  0.00    +0.254 A 
ATOM     29  O   UNL     1       0.443  -9.088  22.017  0.00  0.00    -0.268 OA
ATOM     30  C   UNL     1       1.533  -8.876  24.085  0.00  0.00    +0.088 A 
ATOM     31  C   UNL     1       2.433  -8.184  24.787  0.00  0.00    +0.101 A 
ENDBRANCH   5  23
BRANCH   1  33
ATOM     32  C   UNL     1       6.275  -6.726  29.545  0.00  0.00    +0.015 C 
ATOM     33  C   UNL     1       5.015  -6.129  28.844  0.00  0.00    -0.009 C 
ATOM     34  C   UNL     1       4.777  -4.800  29.589  0.00  0.00    +0.015 C 
ATOM     35  C   UNL     1       3.880  -7.141  29.123  0.00  0.00    +0.015 C 
ENDBRANCH   1  33
BRANCH   2  36
ATOM     36  O   UNL     1       6.842  -4.157  27.438  0.00  0.00    -0.494 OA
ATOM     37  C   UNL     1       6.509  -2.773  27.477  0.00  0.00    +0.277 C 
ENDBRANCH   2  36
TORSDOF 6
ENDMDL
MODEL 9
REMARK VINA RESULT:      -5.7      4.507      9.104
REMARK  Name = 
REMARK  11 active torsions:
REMARK  status: ('A' for Active; 'I' for Inactive)
REMARK    1  A    between atoms: C_1  and  C_2
REMARK    2  A    between atoms: C_2  and  C_3
REMARK    3  A    between atoms: C_2  and  C_4
REMARK    4  A    between atoms: C_2  and  C_5
REMARK    5  A    between atoms: C_7  and  N_28
REMARK    6  A    between atoms: C_9  and  C_13
REMARK    7  A    between atoms: C_10  and  O_11
REMARK    8  A    between atoms: O_11  and  C_12
REMARK    9  A    between atoms: C_20  and  N_23
REMARK   10  A    between atoms: N_23  and  S_24
REMARK   11  A    between atoms: S_24  and  C_27
REMARK                            x       y       z     vdW  Elec       q    Type
REMARK                         _______ _______ _______ _____ _____    ______ ____
ROOT
ATOM      1  C   UNL     1       5.881  -4.225  23.397  0.00  0.00    +0.002 A 
ATOM      2  C   UNL     1       6.436  -2.928  23.212  0.00  0.00    +0.132 A 
ATOM      3  C   UNL     1       6.382  -1.949  24.256  0.00  0.00    +0.026 A 
ATOM      4  C   UNL     1       5.769  -2.330  25.479  0.00  0.00    +0.038 A 
ATOM      5  C   UNL     1       5.114  -3.549  25.672  0.00  0.00    +0.052 A 
ATOM      6  C   UNL     1       5.145  -4.442  24.595  0.00  0.00    +0.034 A 
ENDROOT
BRANCH   3   7
ATOM      7  C   UNL     1       6.935  -0.551  24.165  0.00  0.00    -0.014 A 
ATOM      8  C   UNL     1       6.113   0.532  23.781  0.00  0.00    +0.009 A 
ATOM      9  C   UNL     1       6.601   1.838  23.656  0.00  0.00    +0.009 A 
ATOM     10  C   UNL     1       7.962   2.101  23.828  0.00  0.00    -0.016 A 
ATOM     11  C   UNL     1       8.497   3.377  23.601  0.00  0.00    +0.033 A 
ATOM     12  C   UNL     1       9.873   3.587  23.686  0.00  0.00    +0.048 A 
ATOM     13  C   UNL     1      10.725   2.536  24.014  0.00  0.00    +0.025 A 
ATOM     14  C   UNL     1      10.194   1.277  24.299  0.00  0.00    +0.010 A 
ATOM     15  C   UNL     1       8.814   1.043  24.201  0.00  0.00    -0.017 A 
ATOM     16  C   UNL     1       8.278  -0.237  24.426  0.00  0.00    +0.017 A 
BRANCH  12  17
ATOM     17  N   UNL     1      10.410   4.860  23.328  0.00  0.00    -0.221 N 
ATOM     18  H   UNL     1      10.437   5.042  22.321  0.00  0.00    +0.173 HD
BRANCH  17  19
ATOM     19  S   UNL     1       9.742   6.220  24.103  0.00  0.00    +0.040 S 
ATOM     20  C   UNL     1       8.937   5.467  25.498  0.00  0.00    +0.218 C 
ATOM     21  O   UNL     1       8.749   6.837  23.254  0.00  0.00    -0.155 OA
ATOM     22  O   UNL     1      10.879   6.965  24.596  0.00  0.00    -0.155 OA
ENDBRANCH  17  19
ENDBRANCH  12  17
ENDBRANCH   3   7
BRANCH   5  23
ATOM     23  N   UNL     1       4.460  -3.869  26.938  0.00  0.00    -0.269 N 
ATOM     24  C   UNL     1       5.204  -4.432  28.004  0.00  0.00    +0.334 A 
ATOM     25  O   UNL     1       6.421  -4.622  28.032  0.00  0.00    -0.246 OA
ATOM     26  N   UNL     1       4.493  -4.748  29.139  0.00  0.00    -0.275 N 
ATOM     27  H   UNL     1       5.029  -5.119  29.904  0.00  0.00    +0.173 HD
ATOM     28  C   UNL     1       3.193  -4.435  29.398  0.00  0.00    +0.254 A 
ATOM     29  O   UNL     1       2.661  -4.615  30.485  0.00  0.00    -0.268 OA
ATOM     30  C   UNL     1       2.458  -3.849  28.276  0.00  0.00    +0.088 A 
ATOM     31  C   UNL     1       3.103  -3.607  27.132  0.00  0.00    +0.101 A 
ENDBRANCH   5  23
BRANCH   1  33
ATOM     32  C   UNL     1       7.641  -5.986  22.636  0.00  0.00    +0.015 C 
ATOM     33  C   UNL     1       6.176  -5.466  22.496  0.00  0.00    -0.009 C 
ATOM     34  C   UNL     1       5.316  -6.696  22.849  0.00  0.00    +0.015 C 
ATOM     35  C   UNL     1       6.024  -5.082  21.006  0.00  0.00    +0.015 C 
ENDBRANCH   1  33
BRANCH   2  36
ATOM     36  O   UNL     1       7.243  -2.649  22.135  0.00  0.00    -0.494 OA
ATOM     37  C   UNL     1       8.651  -2.672  22.343  0.00  0.00    +0.277 C 
ENDBRANCH   2  36
TORSDOF 6
ENDMDL
