MODEL 1
REMARK VINA RESULT:      -6.6      0.000      0.000
REMARK  Name = 
REMARK  21 active torsions:
REMARK  status: ('A' for Active; 'I' for Inactive)
REMARK    1  A    between atoms: C_1  and  C_2
REMARK    2  A    between atoms: C_2  and  C_3
REMARK    3  A    between atoms: C_2  and  C_4
REMARK    4  A    between atoms: C_9  and  C_12
REMARK    5  A    between atoms: C_18  and  O_21
REMARK    6  A    between atoms: O_21  and  C_22
REMARK    7  A    between atoms: C_23  and  O_25
REMARK    8  A    between atoms: O_25  and  C_26
REMARK    9  A    between atoms: C_28  and  C_47
REMARK   10  A    between atoms: C_31  and  C_33
REMARK   11  A    between atoms: C_33  and  C_34
REMARK   12  A    between atoms: C_33  and  N_38
REMARK   13  A    between atoms: C_34  and  C_35
REMARK   14  A    between atoms: C_34  and  C_36
REMARK   15  A    between atoms: C_34  and  C_37
REMARK   16  A    between atoms: C_39  and  O_41
REMARK   17  A    between atoms: O_41  and  C_42
REMARK   18  A    between atoms: N_49  and  C_50
REMARK   19  A    between atoms: C_50  and  C_55
REMARK   20  A    between atoms: C_52  and  C_53
REMARK   21  A    between atoms: C_55  and  O_57
REMARK                            x       y       z     vdW  Elec       q    Type
REMARK                         _______ _______ _______ _____ _____    ______ ____
ROOT
ATOM      1  C   UNL     1       5.344  -1.780  26.540  0.00  0.00    +0.193 C 
ATOM      2  C   UNL     1       4.693  -3.007  27.220  0.00  0.00    +0.153 C 
ATOM      3  N   UNL     1       5.756  -4.018  27.289  0.00  0.00    -0.285 N 
ATOM      4  C   UNL     1       5.684  -5.312  27.794  0.00  0.00    +0.237 C 
ATOM      5  O   UNL     1       6.728  -5.972  27.892  0.00  0.00    -0.274 OA
ATOM      6  C   UNL     1       7.044  -3.417  26.909  0.00  0.00    +0.166 C 
ATOM      7  C   UNL     1       6.793  -1.911  27.025  0.00  0.00    +0.078 C 
ENDROOT
BRANCH   6   8
ATOM      8  C   UNL     1       7.398  -3.787  25.451  0.00  0.00    +0.235 C 
ATOM      9  N   UNL     1       6.363  -4.285  24.689  0.00  0.00    -0.298 N 
ATOM     10  H   UNL     1       5.412  -4.250  25.064  0.00  0.00    +0.150 HD
ATOM     11  O   UNL     1       8.506  -3.597  24.946  0.00  0.00    -0.274 OA
BRANCH   9  12
ATOM     12  C   UNL     1       6.556  -4.573  23.272  0.00  0.00    +0.138 C 
ATOM     13  C   UNL     1       6.085  -5.928  22.739  0.00  0.00    +0.048 C 
ATOM     14  C   UNL     1       7.551  -5.680  22.931  0.00  0.00    +0.048 C 
BRANCH  12  15
ATOM     15  C   UNL     1       6.567  -3.358  22.361  0.00  0.00    +0.329 C 
ATOM     16  O   UNL     1       5.542  -2.783  22.016  0.00  0.00    -0.249 OA
BRANCH  15  17
ATOM     17  O   UNL     1       7.804  -2.963  21.993  0.00  0.00    -0.479 OA
ATOM     18  H   UNL     1       8.130  -2.208  22.537  0.00  0.00    +0.295 HD
ENDBRANCH  15  17
ENDBRANCH  12  15
BRANCH  13  19
ATOM     19  C   UNL     1       5.608  -6.126  21.364  0.00  0.00    -0.028 C 
ATOM     20  C   UNL     1       6.366  -6.077  20.260  0.00  0.00    +0.004 C 
ENDBRANCH  13  19
ENDBRANCH   9  12
ENDBRANCH   6   8
BRANCH   1  21
ATOM     21  O   UNL     1       4.819  -0.503  26.916  0.00  0.00    -0.486 OA
BRANCH  21  24
ATOM     22  C   UNL     1       6.430   1.764  24.511  0.00  0.00    +0.094 A 
ATOM     23  C   UNL     1       6.296   0.711  25.401  0.00  0.00    +0.076 A 
ATOM     24  C   UNL     1       5.114   0.580  26.114  0.00  0.00    +0.132 A 
ATOM     25  C   UNL     1       4.147   1.609  26.015  0.00  0.00    +0.043 A 
ATOM     26  C   UNL     1       3.008   1.665  26.843  0.00  0.00    +0.017 A 
ATOM     27  C   UNL     1       2.105   2.728  26.768  0.00  0.00    +0.047 A 
ATOM     28  C   UNL     1       2.282   3.729  25.816  0.00  0.00    +0.136 A 
ATOM     29  C   UNL     1       3.391   3.653  24.956  0.00  0.00    +0.085 A 
ATOM     30 BR   UNL     1       3.608   4.991  23.592  0.00  0.00    -0.044 Br
ATOM     31  C   UNL     1       4.357   2.644  25.070  0.00  0.00    +0.093 A 
ATOM     32  N   UNL     1       5.469   2.685  24.311  0.00  0.00    -0.244 NA
BRANCH  22  39
ATOM     33  C   UNL     1      10.567   4.887  23.881  0.00  0.00    +0.221 C 
ATOM     34  N   UNL     1      10.506   3.821  23.003  0.00  0.00    -0.264 N 
ATOM     35  H   UNL     1      11.257   3.619  22.362  0.00  0.00    +0.157 HD
ATOM     36  C   UNL     1       9.487   2.919  23.103  0.00  0.00    +0.165 A 
ATOM     37  S   UNL     1       9.651   1.478  22.212  0.00  0.00    -0.060 S 
ATOM     38  C   UNL     1       8.175   0.913  22.904  0.00  0.00    +0.078 A 
ATOM     39  C   UNL     1       7.651   1.889  23.731  0.00  0.00    +0.098 A 
ATOM     40  N   UNL     1       8.401   3.042  23.809  0.00  0.00    -0.223 NA
ATOM     41  O   UNL     1       9.846   5.043  24.864  0.00  0.00    -0.275 OA
BRANCH  33  43
ATOM     42  C   UNL     1      12.146   6.617  24.797  0.00  0.00    +0.017 C 
ATOM     43  C   UNL     1      11.687   5.871  23.546  0.00  0.00    +0.069 C 
ATOM     44  C   UNL     1      12.865   5.131  22.918  0.00  0.00    +0.017 C 
ENDBRANCH  33  43
ENDBRANCH  22  39
BRANCH  28  45
ATOM     45  O   UNL     1       1.442   4.799  25.655  0.00  0.00    -0.494 OA
ATOM     46  C   UNL     1       0.744   5.274  26.797  0.00  0.00    +0.277 C 
ENDBRANCH  28  45
ENDBRANCH  21  24
ENDBRANCH   1  21
BRANCH   4  47
ATOM     47  C   UNL     1       4.289  -5.917  28.194  0.00  0.00    +0.168 C 
BRANCH  47  48
ATOM     48  N   UNL     1       3.218  -5.431  27.308  0.00  0.00    -0.269 N 
ATOM     49  H   UNL     1       3.103  -4.442  27.136  0.00  0.00    +0.153 HD
ATOM     50  C   UNL     1       2.268  -6.253  26.770  0.00  0.00    +0.401 C 
ATOM     51  O   UNL     1       2.289  -7.472  26.852  0.00  0.00    -0.226 OA
BRANCH  50  52
ATOM     52  O   UNL     1       1.288  -5.520  26.164  0.00  0.00    -0.447 OA
BRANCH  52  53
ATOM     53  C   UNL     1       1.113  -5.777  24.762  0.00  0.00    +0.178 C 
ATOM     54  C   UNL     1       0.502  -7.163  24.513  0.00  0.00    +0.045 C 
ATOM     55  C   UNL     1       1.013  -7.609  23.138  0.00  0.00    +0.004 C 
ATOM     56  C   UNL     1       2.024  -6.552  22.702  0.00  0.00    +0.004 C 
ATOM     57  C   UNL     1       2.433  -5.864  23.996  0.00  0.00    +0.045 C 
ENDBRANCH  52  53
ENDBRANCH  50  52
ENDBRANCH  47  48
BRANCH  47  58
ATOM     58  C   UNL     1       3.920  -5.666  29.706  0.00  0.00    -0.011 C 
ATOM     59  C   UNL     1       2.888  -4.528  29.826  0.00  0.00    +0.013 C 
ATOM     60  C   UNL     1       5.186  -5.229  30.484  0.00  0.00    +0.013 C 
ATOM     61  C   UNL     1       3.346  -6.909  30.420  0.00  0.00    +0.013 C 
ENDBRANCH  47  58
ENDBRANCH   4  47
TORSDOF 15
ENDMDL
MODEL 2
REMARK VINA RESULT:      -6.6      3.443     10.695
REMARK  Name = 
REMARK  21 active torsions:
REMARK  status: ('A' for Active; 'I' for Inactive)
REMARK    1  A    between atoms: C_1  and  C_2
REMARK    2  A    between atoms: C_2  and  C_3
REMARK    3  A    between atoms: C_2  and  C_4
REMARK    4  A    between atoms: C_9  and  C_12
REMARK    5  A    between atoms: C_18  and  O_21
REMARK    6  A    between atoms: O_21  and  C_22
REMARK    7  A    between atoms: C_23  and  O_25
REMARK    8  A    between atoms: O_25  and  C_26
REMARK    9  A    between atoms: C_28  and  C_47
REMARK   10  A    between atoms: C_31  and  C_33
REMARK   11  A    between atoms: C_33  and  C_34
REMARK   12  A    between atoms: C_33  and  N_38
REMARK   13  A    between atoms: C_34  and  C_35
REMARK   14  A    between atoms: C_34  and  C_36
REMARK   15  A    between atoms: C_34  and  C_37
REMARK   16  A    between atoms: C_39  and  O_41
REMARK   17  A    between atoms: O_41  and  C_42
REMARK   18  A    between atoms: N_49  and  C_50
REMARK   19  A    between atoms: C_50  and  C_55
REMARK   20  A    between atoms: C_52  and  C_53
REMARK   21  A    between atoms: C_55  and  O_57
REMARK                            x       y       z     vdW  Elec       q    Type
REMARK                         _______ _______ _______ _____ _____    ______ ____
ROOT
ATOM      1  C   UNL     1       4.443   1.394  26.555  0.00  0.00    +0.193 C 
ATOM      2  C   UNL     1       5.339   2.644  26.725  0.00  0.00    +0.153 C 
ATOM      3  N   UNL     1       4.417   3.786  26.689  0.00  0.00    -0.285 N 
ATOM      4  C   UNL     1       4.720   5.141  26.779  0.00  0.00    +0.237 C 
ATOM      5  O   UNL     1       3.790   5.955  26.869  0.00  0.00    -0.274 OA
ATOM      6  C   UNL     1       3.026   3.310  26.737  0.00  0.00    +0.166 C 
ATOM      7  C   UNL     1       3.151   1.867  27.234  0.00  0.00    +0.078 C 
ENDROOT
BRANCH   6   8
ATOM      8  C   UNL     1       2.404   3.333  25.322  0.00  0.00    +0.235 C 
ATOM      9  N   UNL     1       2.733   4.419  24.539  0.00  0.00    -0.298 N 
ATOM     10  H   UNL     1       3.461   5.060  24.862  0.00  0.00    +0.150 HD
ATOM     11  O   UNL     1       1.711   2.424  24.864  0.00  0.00    -0.274 OA
BRANCH   9  12
ATOM     12  C   UNL     1       2.284   4.497  23.153  0.00  0.00    +0.138 C 
ATOM     13  C   UNL     1       1.864   5.862  22.605  0.00  0.00    +0.048 C 
ATOM     14  C   UNL     1       0.815   4.842  22.930  0.00  0.00    +0.048 C 
BRANCH  12  15
ATOM     15  C   UNL     1       2.876   3.451  22.224  0.00  0.00    +0.329 C 
ATOM     16  O   UNL     1       4.058   3.446  21.903  0.00  0.00    -0.249 OA
BRANCH  15  17
ATOM     17  O   UNL     1       1.986   2.525  21.809  0.00  0.00    -0.479 OA
ATOM     18  H   UNL     1       1.291   2.348  22.487  0.00  0.00    +0.295 HD
ENDBRANCH  15  17
ENDBRANCH  12  15
BRANCH  13  19
ATOM     19  C   UNL     1       2.022   6.242  21.194  0.00  0.00    -0.028 C 
ATOM     20  C   UNL     1       2.927   7.106  20.716  0.00  0.00    +0.004 C 
ENDBRANCH  13  19
ENDBRANCH   9  12
ENDBRANCH   6   8
BRANCH   1  21
ATOM     21  O   UNL     1       4.912   0.197  27.181  0.00  0.00    -0.486 OA
BRANCH  21  24
ATOM     22  C   UNL     1       3.892  -3.033  25.751  0.00  0.00    +0.094 A 
ATOM     23  C   UNL     1       3.930  -1.968  26.636  0.00  0.00    +0.076 A 
ATOM     24  C   UNL     1       4.876  -0.973  26.450  0.00  0.00    +0.132 A 
ATOM     25  C   UNL     1       5.861  -1.155  25.450  0.00  0.00    +0.043 A 
ATOM     26  C   UNL     1       6.973  -0.300  25.313  0.00  0.00    +0.017 A 
ATOM     27  C   UNL     1       7.965  -0.543  24.359  0.00  0.00    +0.047 A 
ATOM     28  C   UNL     1       7.836  -1.610  23.473  0.00  0.00    +0.136 A 
ATOM     29  C   UNL     1       6.705  -2.437  23.575  0.00  0.00    +0.085 A 
ATOM     30 BR   UNL     1       6.479  -3.870  22.313  0.00  0.00    -0.044 Br
ATOM     31  C   UNL     1       5.741  -2.266  24.579  0.00  0.00    +0.093 A 
ATOM     32  N   UNL     1       4.744  -3.161  24.717  0.00  0.00    -0.244 NA
BRANCH  22  39
ATOM     33  C   UNL     1       1.421  -6.787  23.093  0.00  0.00    +0.221 C 
ATOM     34  N   UNL     1       0.978  -6.608  24.390  0.00  0.00    -0.264 N 
ATOM     35  H   UNL     1       0.299  -7.224  24.808  0.00  0.00    +0.157 HD
ATOM     36  C   UNL     1       1.580  -5.679  25.188  0.00  0.00    +0.165 A 
ATOM     37  S   UNL     1       1.203  -5.737  26.847  0.00  0.00    -0.060 S 
ATOM     38  C   UNL     1       2.333  -4.463  27.122  0.00  0.00    +0.078 A 
ATOM     39  C   UNL     1       2.880  -4.064  25.916  0.00  0.00    +0.098 A 
ATOM     40  N   UNL     1       2.415  -4.752  24.817  0.00  0.00    -0.223 NA
ATOM     41  O   UNL     1       2.424  -6.271  22.604  0.00  0.00    -0.275 OA
BRANCH  33  43
ATOM     42  C   UNL     1       1.136  -7.992  20.904  0.00  0.00    +0.017 C 
ATOM     43  C   UNL     1       0.556  -7.763  22.297  0.00  0.00    +0.069 C 
ATOM     44  C   UNL     1       0.443  -9.091  23.041  0.00  0.00    +0.017 C 
ENDBRANCH  33  43
ENDBRANCH  22  39
BRANCH  28  45
ATOM     45  O   UNL     1       8.745  -1.915  22.496  0.00  0.00    -0.494 OA
ATOM     46  C   UNL     1      10.124  -1.863  22.830  0.00  0.00    +0.277 C 
ENDBRANCH  28  45
ENDBRANCH  21  24
ENDBRANCH   1  21
BRANCH   4  47
ATOM     47  C   UNL     1       6.219   5.611  26.730  0.00  0.00    +0.168 C 
BRANCH  47  48
ATOM     48  N   UNL     1       7.089   4.573  26.153  0.00  0.00    -0.269 N 
ATOM     49  H   UNL     1       7.227   3.694  26.631  0.00  0.00    +0.153 HD
ATOM     50  C   UNL     1       7.835   4.772  25.024  0.00  0.00    +0.401 C 
ATOM     51  O   UNL     1       7.752   5.762  24.312  0.00  0.00    -0.226 OA
BRANCH  50  52
ATOM     52  O   UNL     1       8.697   3.731  24.830  0.00  0.00    -0.447 OA
BRANCH  52  53
ATOM     53  C   UNL     1       8.945   3.392  23.456  0.00  0.00    +0.178 C 
ATOM     54  C   UNL     1       7.689   2.830  22.777  0.00  0.00    +0.045 C 
ATOM     55  C   UNL     1       8.190   1.885  21.679  0.00  0.00    +0.004 C 
ATOM     56  C   UNL     1       9.704   1.801  21.855  0.00  0.00    +0.004 C 
ATOM     57  C   UNL     1       9.942   2.245  23.290  0.00  0.00    +0.045 C 
ENDBRANCH  52  53
ENDBRANCH  50  52
ENDBRANCH  47  48
BRANCH  47  58
ATOM     58  C   UNL     1       6.765   6.078  28.134  0.00  0.00    -0.011 C 
ATOM     59  C   UNL     1       5.809   7.108  28.767  0.00  0.00    +0.013 C 
ATOM     60  C   UNL     1       8.139   6.770  27.954  0.00  0.00    +0.013 C 
ATOM     61  C   UNL     1       6.958   4.923  29.141  0.00  0.00    +0.013 C 
ENDBRANCH  47  58
ENDBRANCH   4  47
TORSDOF 15
ENDMDL
MODEL 3
REMARK VINA RESULT:      -6.3      3.067      9.574
REMARK  Name = 
REMARK  21 active torsions:
REMARK  status: ('A' for Active; 'I' for Inactive)
REMARK    1  A    between atoms: C_1  and  C_2
REMARK    2  A    between atoms: C_2  and  C_3
REMARK    3  A    between atoms: C_2  and  C_4
REMARK    4  A    between atoms: C_9  and  C_12
REMARK    5  A    between atoms: C_18  and  O_21
REMARK    6  A    between atoms: O_21  and  C_22
REMARK    7  A    between atoms: C_23  and  O_25
REMARK    8  A    between atoms: O_25  and  C_26
REMARK    9  A    between atoms: C_28  and  C_47
REMARK   10  A    between atoms: C_31  and  C_33
REMARK   11  A    between atoms: C_33  and  C_34
REMARK   12  A    between atoms: C_33  and  N_38
REMARK   13  A    between atoms: C_34  and  C_35
REMARK   14  A    between atoms: C_34  and  C_36
REMARK   15  A    between atoms: C_34  and  C_37
REMARK   16  A    between atoms: C_39  and  O_41
REMARK   17  A    between atoms: O_41  and  C_42
REMARK   18  A    between atoms: N_49  and  C_50
REMARK   19  A    between atoms: C_50  and  C_55
REMARK   20  A    between atoms: C_52  and  C_53
REMARK   21  A    between atoms: C_55  and  O_57
REMARK                            x       y       z     vdW  Elec       q    Type
REMARK                         _______ _______ _______ _____ _____    ______ ____
ROOT
ATOM      1  C   UNL     1       5.185  -0.481  27.186  0.00  0.00    +0.193 C 
ATOM      2  C   UNL     1       4.733   0.789  26.428  0.00  0.00    +0.153 C 
ATOM      3  N   UNL     1       3.653   1.361  27.243  0.00  0.00    -0.285 N 
ATOM      4  C   UNL     1       2.892   2.498  26.992  0.00  0.00    +0.237 C 
ATOM      5  O   UNL     1       2.116   2.901  27.870  0.00  0.00    -0.274 OA
ATOM      6  C   UNL     1       3.577   0.661  28.535  0.00  0.00    +0.166 C 
ATOM      7  C   UNL     1       4.923  -0.063  28.639  0.00  0.00    +0.078 C 
ENDROOT
BRANCH   6   8
ATOM      8  C   UNL     1       2.421  -0.365  28.521  0.00  0.00    +0.235 C 
ATOM      9  N   UNL     1       2.781  -1.672  28.271  0.00  0.00    -0.298 N 
ATOM     10  H   UNL     1       3.773  -1.917  28.254  0.00  0.00    +0.150 HD
ATOM     11  O   UNL     1       1.250  -0.081  28.780  0.00  0.00    -0.274 OA
BRANCH   9  12
ATOM     12  C   UNL     1       1.788  -2.739  28.332  0.00  0.00    +0.138 C 
ATOM     13  C   UNL     1       1.618  -3.639  27.106  0.00  0.00    +0.048 C 
ATOM     14  C   UNL     1       0.581  -2.601  27.408  0.00  0.00    +0.048 C 
BRANCH  12  15
ATOM     15  C   UNL     1       1.509  -3.283  29.722  0.00  0.00    +0.329 C 
ATOM     16  O   UNL     1       0.443  -3.105  30.299  0.00  0.00    -0.249 OA
BRANCH  15  17
ATOM     17  O   UNL     1       2.531  -3.994  30.245  0.00  0.00    -0.479 OA
ATOM     18  H   UNL     1       2.902  -4.640  29.598  0.00  0.00    +0.295 HD
ENDBRANCH  15  17
ENDBRANCH  12  15
BRANCH  13  19
ATOM     19  C   UNL     1       1.210  -5.048  27.197  0.00  0.00    -0.028 C 
ATOM     20  C   UNL     1       2.021  -6.105  27.059  0.00  0.00    +0.004 C 
ENDBRANCH  13  19
ENDBRANCH   9  12
ENDBRANCH   6   8
BRANCH   1  21
ATOM     21  O   UNL     1       6.558  -0.850  27.026  0.00  0.00    -0.486 OA
BRANCH  21  24
ATOM     22  C   UNL     1       7.016  -2.681  23.871  0.00  0.00    +0.094 A 
ATOM     23  C   UNL     1       6.664  -2.454  25.192  0.00  0.00    +0.076 A 
ATOM     24  C   UNL     1       6.982  -1.236  25.771  0.00  0.00    +0.132 A 
ATOM     25  C   UNL     1       7.782  -0.326  25.038  0.00  0.00    +0.043 A 
ATOM     26  C   UNL     1       8.318   0.846  25.608  0.00  0.00    +0.017 A 
ATOM     27  C   UNL     1       9.159   1.690  24.879  0.00  0.00    +0.047 A 
ATOM     28  C   UNL     1       9.432   1.420  23.541  0.00  0.00    +0.136 A 
ATOM     29  C   UNL     1       8.861   0.278  22.954  0.00  0.00    +0.085 A 
ATOM     30 BR   UNL     1       9.173  -0.069  21.089  0.00  0.00    -0.044 Br
ATOM     31  C   UNL     1       8.086  -0.631  23.688  0.00  0.00    +0.093 A 
ATOM     32  N   UNL     1       7.669  -1.778  23.117  0.00  0.00    -0.244 NA
BRANCH  22  39
ATOM     33  C   UNL     1       2.946  -5.880  23.192  0.00  0.00    +0.221 C 
ATOM     34  N   UNL     1       4.141  -6.346  22.678  0.00  0.00    -0.264 N 
ATOM     35  H   UNL     1       4.190  -7.193  22.132  0.00  0.00    +0.157 HD
ATOM     36  C   UNL     1       5.263  -5.574  22.766  0.00  0.00    +0.165 A 
ATOM     37  S   UNL     1       6.604  -6.065  21.839  0.00  0.00    -0.060 S 
ATOM     38  C   UNL     1       7.449  -4.656  22.366  0.00  0.00    +0.078 A 
ATOM     39  C   UNL     1       6.654  -3.942  23.242  0.00  0.00    +0.098 A 
ATOM     40  N   UNL     1       5.417  -4.498  23.481  0.00  0.00    -0.223 NA
ATOM     41  O   UNL     1       2.747  -4.745  23.619  0.00  0.00    -0.275 OA
BRANCH  33  43
ATOM     42  C   UNL     1       2.137  -8.102  24.049  0.00  0.00    +0.017 C 
ATOM     43  C   UNL     1       1.827  -6.920  23.134  0.00  0.00    +0.069 C 
ATOM     44  C   UNL     1       0.499  -6.285  23.534  0.00  0.00    +0.017 C 
ENDBRANCH  33  43
ENDBRANCH  22  39
BRANCH  28  45
ATOM     45  O   UNL     1      10.228   2.198  22.743  0.00  0.00    -0.494 OA
ATOM     46  C   UNL     1      10.963   3.246  23.356  0.00  0.00    +0.277 C 
ENDBRANCH  28  45
ENDBRANCH  21  24
ENDBRANCH   1  21
BRANCH   4  47
ATOM     47  C   UNL     1       3.005   3.221  25.601  0.00  0.00    +0.168 C 
BRANCH  47  48
ATOM     48  N   UNL     1       3.735   4.495  25.715  0.00  0.00    -0.269 N 
ATOM     49  H   UNL     1       3.253   5.341  25.985  0.00  0.00    +0.153 HD
ATOM     50  C   UNL     1       5.049   4.633  25.361  0.00  0.00    +0.401 C 
ATOM     51  O   UNL     1       5.778   3.702  25.053  0.00  0.00    -0.226 OA
BRANCH  50  52
ATOM     52  O   UNL     1       5.411   5.949  25.372  0.00  0.00    -0.447 OA
BRANCH  52  53
ATOM     53  C   UNL     1       6.284   6.350  24.304  0.00  0.00    +0.178 C 
ATOM     54  C   UNL     1       5.907   5.670  22.981  0.00  0.00    +0.045 C 
ATOM     55  C   UNL     1       7.207   5.564  22.174  0.00  0.00    +0.004 C 
ATOM     56  C   UNL     1       8.319   6.036  23.108  0.00  0.00    +0.004 C 
ATOM     57  C   UNL     1       7.729   5.892  24.502  0.00  0.00    +0.045 C 
ENDBRANCH  52  53
ENDBRANCH  50  52
ENDBRANCH  47  48
BRANCH  47  58
ATOM     58  C   UNL     1       1.607   3.440  24.906  0.00  0.00    -0.011 C 
ATOM     59  C   UNL     1       0.996   4.787  25.339  0.00  0.00    +0.013 C 
ATOM     60  C   UNL     1       0.628   2.323  25.345  0.00  0.00    +0.013 C 
ATOM     61  C   UNL     1       1.670   3.418  23.363  0.00  0.00    +0.013 C 
ENDBRANCH  47  58
ENDBRANCH   4  47
TORSDOF 15
ENDMDL
MODEL 4
REMARK VINA RESULT:      -5.6      3.567      8.850
REMARK  Name = 
REMARK  21 active torsions:
REMARK  status: ('A' for Active; 'I' for Inactive)
REMARK    1  A    between atoms: C_1  and  C_2
REMARK    2  A    between atoms: C_2  and  C_3
REMARK    3  A    between atoms: C_2  and  C_4
REMARK    4  A    between atoms: C_9  and  C_12
REMARK    5  A    between atoms: C_18  and  O_21
REMARK    6  A    between atoms: O_21  and  C_22
REMARK    7  A    between atoms: C_23  and  O_25
REMARK    8  A    between atoms: O_25  and  C_26
REMARK    9  A    between atoms: C_28  and  C_47
REMARK   10  A    between atoms: C_31  and  C_33
REMARK   11  A    between atoms: C_33  and  C_34
REMARK   12  A    between atoms: C_33  and  N_38
REMARK   13  A    between atoms: C_34  and  C_35
REMARK   14  A    between atoms: C_34  and  C_36
REMARK   15  A    between atoms: C_34  and  C_37
REMARK   16  A    between atoms: C_39  and  O_41
REMARK   17  A    between atoms: O_41  and  C_42
REMARK   18  A    between atoms: N_49  and  C_50
REMARK   19  A    between atoms: C_50  and  C_55
REMARK   20  A    between atoms: C_52  and  C_53
REMARK   21  A    between atoms: C_55  and  O_57
REMARK                            x       y       z     vdW  Elec       q    Type
REMARK                         _______ _______ _______ _____ _____    ______ ____
ROOT
ATOM      1  C   UNL     1       2.360   0.386  27.124  0.00  0.00    +0.193 C 
ATOM      2  C   UNL     1       3.583   1.224  27.566  0.00  0.00    +0.153 C 
ATOM      3  N   UNL     1       3.165   2.624  27.415  0.00  0.00    -0.285 N 
ATOM      4  C   UNL     1       3.905   3.776  27.661  0.00  0.00    +0.237 C 
ATOM      5  O   UNL     1       3.334   4.874  27.608  0.00  0.00    -0.274 OA
ATOM      6  C   UNL     1       1.723   2.689  27.134  0.00  0.00    +0.166 C 
ATOM      7  C   UNL     1       1.207   1.306  27.545  0.00  0.00    +0.078 C 
ENDROOT
BRANCH   6   8
ATOM      8  C   UNL     1       1.482   2.919  25.625  0.00  0.00    +0.235 C 
ATOM      9  N   UNL     1       2.095   4.027  25.081  0.00  0.00    -0.298 N 
ATOM     10  H   UNL     1       2.774   4.544  25.644  0.00  0.00    +0.150 HD
ATOM     11  O   UNL     1       0.847   2.145  24.907  0.00  0.00    -0.274 OA
BRANCH   9  12
ATOM     12  C   UNL     1       2.020   4.288  23.647  0.00  0.00    +0.138 C 
ATOM     13  C   UNL     1       1.608   5.688  23.187  0.00  0.00    +0.048 C 
ATOM     14  C   UNL     1       0.631   4.557  23.075  0.00  0.00    +0.048 C 
BRANCH  12  15
ATOM     15  C   UNL     1       2.947   3.445  22.788  0.00  0.00    +0.329 C 
ATOM     16  O   UNL     1       2.986   3.544  21.568  0.00  0.00    -0.249 OA
BRANCH  15  17
ATOM     17  O   UNL     1       3.730   2.603  23.494  0.00  0.00    -0.479 OA
ATOM     18  H   UNL     1       4.677   2.663  23.225  0.00  0.00    +0.295 HD
ENDBRANCH  15  17
ENDBRANCH  12  15
BRANCH  13  19
ATOM     19  C   UNL     1       2.087   6.294  21.937  0.00  0.00    -0.028 C 
ATOM     20  C   UNL     1       1.372   6.429  20.812  0.00  0.00    +0.004 C 
ENDBRANCH  13  19
ENDBRANCH   9  12
ENDBRANCH   6   8
BRANCH   1  21
ATOM     21  O   UNL     1       2.217  -0.892  27.751  0.00  0.00    -0.486 OA
BRANCH  21  24
ATOM     22  C   UNL     1       4.604  -2.924  25.829  0.00  0.00    +0.094 A 
ATOM     23  C   UNL     1       3.703  -1.908  26.105  0.00  0.00    +0.076 A 
ATOM     24  C   UNL     1       3.026  -1.921  27.314  0.00  0.00    +0.132 A 
ATOM     25  C   UNL     1       3.170  -3.048  28.158  0.00  0.00    +0.043 A 
ATOM     26  C   UNL     1       2.379  -3.244  29.307  0.00  0.00    +0.017 A 
ATOM     27  C   UNL     1       2.498  -4.399  30.085  0.00  0.00    +0.047 A 
ATOM     28  C   UNL     1       3.459  -5.357  29.770  0.00  0.00    +0.136 A 
ATOM     29  C   UNL     1       4.282  -5.144  28.652  0.00  0.00    +0.085 A 
ATOM     30 BR   UNL     1       5.659  -6.424  28.248  0.00  0.00    -0.044 Br
ATOM     31  C   UNL     1       4.123  -4.036  27.807  0.00  0.00    +0.093 A 
ATOM     32  N   UNL     1       4.848  -3.941  26.675  0.00  0.00    -0.244 NA
BRANCH  22  39
ATOM     33  C   UNL     1       9.085  -1.195  23.781  0.00  0.00    +0.221 C 
ATOM     34  N   UNL     1       8.228  -1.796  22.878  0.00  0.00    -0.264 N 
ATOM     35  H   UNL     1       8.501  -1.968  21.922  0.00  0.00    +0.157 HD
ATOM     36  C   UNL     1       7.045  -2.319  23.312  0.00  0.00    +0.165 A 
ATOM     37  S   UNL     1       6.202  -3.314  22.218  0.00  0.00    -0.060 S 
ATOM     38  C   UNL     1       5.025  -3.617  23.442  0.00  0.00    +0.078 A 
ATOM     39  C   UNL     1       5.347  -2.899  24.579  0.00  0.00    +0.098 A 
ATOM     40  N   UNL     1       6.491  -2.139  24.476  0.00  0.00    -0.223 NA
ATOM     41  O   UNL     1       8.949  -1.197  25.003  0.00  0.00    -0.275 OA
BRANCH  33  43
ATOM     42  C   UNL     1       9.902   0.096  21.784  0.00  0.00    +0.017 C 
ATOM     43  C   UNL     1      10.295  -0.545  23.113  0.00  0.00    +0.069 C 
ATOM     44  C   UNL     1      10.906   0.504  24.038  0.00  0.00    +0.017 C 
ENDBRANCH  33  43
ENDBRANCH  22  39
BRANCH  28  45
ATOM     45  O   UNL     1       3.662  -6.509  30.482  0.00  0.00    -0.494 OA
ATOM     46  C   UNL     1       2.708  -7.552  30.345  0.00  0.00    +0.277 C 
ENDBRANCH  28  45
ENDBRANCH  21  24
ENDBRANCH   1  21
BRANCH   4  47
ATOM     47  C   UNL     1       5.444   3.665  27.964  0.00  0.00    +0.168 C 
BRANCH  47  48
ATOM     48  N   UNL     1       6.132   2.838  26.959  0.00  0.00    -0.269 N 
ATOM     49  H   UNL     1       5.755   1.940  26.687  0.00  0.00    +0.153 HD
ATOM     50  C   UNL     1       7.348   3.168  26.430  0.00  0.00    +0.401 C 
ATOM     51  O   UNL     1       7.916   4.232  26.627  0.00  0.00    -0.226 OA
BRANCH  50  52
ATOM     52  O   UNL     1       7.843   2.135  25.687  0.00  0.00    -0.447 OA
BRANCH  52  53
ATOM     53  C   UNL     1       7.960   2.397  24.279  0.00  0.00    +0.178 C 
ATOM     54  C   UNL     1       7.535   3.831  23.935  0.00  0.00    +0.045 C 
ATOM     55  C   UNL     1       7.011   3.782  22.495  0.00  0.00    +0.004 C 
ATOM     56  C   UNL     1       6.996   2.307  22.103  0.00  0.00    +0.004 C 
ATOM     57  C   UNL     1       7.000   1.564  23.430  0.00  0.00    +0.045 C 
ENDBRANCH  52  53
ENDBRANCH  50  52
ENDBRANCH  47  48
BRANCH  47  58
ATOM     58  C   UNL     1       5.749   3.143  29.420  0.00  0.00    -0.011 C 
ATOM     59  C   UNL     1       6.090   1.640  29.392  0.00  0.00    +0.013 C 
ATOM     60  C   UNL     1       4.492   3.317  30.308  0.00  0.00    +0.013 C 
ATOM     61  C   UNL     1       6.912   3.885  30.116  0.00  0.00    +0.013 C 
ENDBRANCH  47  58
ENDBRANCH   4  47
TORSDOF 15
ENDMDL
MODEL 5
REMARK VINA RESULT:      -5.6      3.329      8.834
REMARK  Name = 
REMARK  21 active torsions:
REMARK  status: ('A' for Active; 'I' for Inactive)
REMARK    1  A    between atoms: C_1  and  C_2
REMARK    2  A    between atoms: C_2  and  C_3
REMARK    3  A    between atoms: C_2  and  C_4
REMARK    4  A    between atoms: C_9  and  C_12
REMARK    5  A    between atoms: C_18  and  O_21
REMARK    6  A    between atoms: O_21  and  C_22
REMARK    7  A    between atoms: C_23  and  O_25
REMARK    8  A    between atoms: O_25  and  C_26
REMARK    9  A    between atoms: C_28  and  C_47
REMARK   10  A    between atoms: C_31  and  C_33
REMARK   11  A    between atoms: C_33  and  C_34
REMARK   12  A    between atoms: C_33  and  N_38
REMARK   13  A    between atoms: C_34  and  C_35
REMARK   14  A    between atoms: C_34  and  C_36
REMARK   15  A    between atoms: C_34  and  C_37
REMARK   16  A    between atoms: C_39  and  O_41
REMARK   17  A    between atoms: O_41  and  C_42
REMARK   18  A    between atoms: N_49  and  C_50
REMARK   19  A    between atoms: C_50  and  C_55
REMARK   20  A    between atoms: C_52  and  C_53
REMARK   21  A    between atoms: C_55  and  O_57
REMARK                            x       y       z     vdW  Elec       q    Type
REMARK                         _______ _______ _______ _____ _____    ______ ____
ROOT
ATOM      1  C   UNL     1       3.387   1.420  26.447  0.00  0.00    +0.193 C 
ATOM      2  C   UNL     1       3.612   2.737  27.228  0.00  0.00    +0.153 C 
ATOM      3  N   UNL     1       2.379   3.512  27.037  0.00  0.00    -0.285 N 
ATOM      4  C   UNL     1       2.077   4.782  27.517  0.00  0.00    +0.237 C 
ATOM      5  O   UNL     1       0.926   5.217  27.368  0.00  0.00    -0.274 OA
ATOM      6  C   UNL     1       1.354   2.674  26.396  0.00  0.00    +0.166 C 
ATOM      7  C   UNL     1       1.871   1.247  26.597  0.00  0.00    +0.078 C 
ENDROOT
BRANCH   6   8
ATOM      8  C   UNL     1       1.265   3.000  24.887  0.00  0.00    +0.235 C 
ATOM      9  N   UNL     1       1.998   4.087  24.463  0.00  0.00    -0.298 N 
ATOM     10  H   UNL     1       2.658   4.522  25.111  0.00  0.00    +0.150 HD
ATOM     11  O   UNL     1       0.645   2.313  24.074  0.00  0.00    -0.274 OA
BRANCH   9  12
ATOM     12  C   UNL     1       2.069   4.426  23.046  0.00  0.00    +0.138 C 
ATOM     13  C   UNL     1       2.132   5.906  22.659  0.00  0.00    +0.048 C 
ATOM     14  C   UNL     1       0.857   5.144  22.455  0.00  0.00    +0.048 C 
BRANCH  12  15
ATOM     15  C   UNL     1       2.724   3.379  22.162  0.00  0.00    +0.329 C 
ATOM     16  O   UNL     1       2.191   2.946  21.147  0.00  0.00    -0.249 OA
BRANCH  15  17
ATOM     17  O   UNL     1       3.944   2.992  22.587  0.00  0.00    -0.479 OA
ATOM     18  H   UNL     1       3.913   2.136  23.077  0.00  0.00    +0.295 HD
ENDBRANCH  15  17
ENDBRANCH  12  15
BRANCH  13  19
ATOM     19  C   UNL     1       2.828   6.391  21.459  0.00  0.00    -0.028 C 
ATOM     20  C   UNL     1       2.300   6.473  20.231  0.00  0.00    +0.004 C 
ENDBRANCH  13  19
ENDBRANCH   9  12
ENDBRANCH   6   8
BRANCH   1  21
ATOM     21  O   UNL     1       4.062   0.267  26.958  0.00  0.00    -0.486 OA
BRANCH  21  24
ATOM     22  C   UNL     1       6.797  -0.379  24.587  0.00  0.00    +0.094 A 
ATOM     23  C   UNL     1       5.800   0.320  25.247  0.00  0.00    +0.076 A 
ATOM     24  C   UNL     1       4.988  -0.354  26.145  0.00  0.00    +0.132 A 
ATOM     25  C   UNL     1       5.112  -1.761  26.244  0.00  0.00    +0.043 A 
ATOM     26  C   UNL     1       4.206  -2.555  26.976  0.00  0.00    +0.017 A 
ATOM     27  C   UNL     1       4.315  -3.947  27.002  0.00  0.00    +0.047 A 
ATOM     28  C   UNL     1       5.372  -4.578  26.350  0.00  0.00    +0.136 A 
ATOM     29  C   UNL     1       6.304  -3.787  25.657  0.00  0.00    +0.085 A 
ATOM     30 BR   UNL     1       7.807  -4.639  24.812  0.00  0.00    -0.044 Br
ATOM     31  C   UNL     1       6.167  -2.396  25.544  0.00  0.00    +0.093 A 
ATOM     32  N   UNL     1       7.012  -1.696  24.762  0.00  0.00    -0.244 NA
BRANCH  22  39
ATOM     33  C   UNL     1       8.950   4.312  23.801  0.00  0.00    +0.221 C 
ATOM     34  N   UNL     1       9.212   3.381  22.813  0.00  0.00    -0.264 N 
ATOM     35  H   UNL     1       9.849   3.576  22.056  0.00  0.00    +0.157 HD
ATOM     36  C   UNL     1       8.730   2.111  22.936  0.00  0.00    +0.165 A 
ATOM     37  S   UNL     1       9.353   0.949  21.858  0.00  0.00    -0.060 S 
ATOM     38  C   UNL     1       8.425  -0.260  22.667  0.00  0.00    +0.078 A 
ATOM     39  C   UNL     1       7.679   0.327  23.672  0.00  0.00    +0.098 A 
ATOM     40  N   UNL     1       7.845   1.689  23.792  0.00  0.00    -0.223 NA
ATOM     41  O   UNL     1       8.420   4.073  24.884  0.00  0.00    -0.275 OA
BRANCH  33  43
ATOM     42  C   UNL     1       8.397   6.766  23.804  0.00  0.00    +0.017 C 
ATOM     43  C   UNL     1       9.443   5.714  23.444  0.00  0.00    +0.069 C 
ATOM     44  C   UNL     1      10.752   6.011  24.171  0.00  0.00    +0.017 C 
ENDBRANCH  33  43
ENDBRANCH  22  39
BRANCH  28  45
ATOM     45  O   UNL     1       5.571  -5.933  26.333  0.00  0.00    -0.494 OA
ATOM     46  C   UNL     1       5.367  -6.649  27.542  0.00  0.00    +0.277 C 
ENDBRANCH  28  45
ENDBRANCH  21  24
ENDBRANCH   1  21
BRANCH   4  47
ATOM     47  C   UNL     1       3.198   5.646  28.202  0.00  0.00    +0.168 C 
BRANCH  47  48
ATOM     48  N   UNL     1       4.502   4.963  28.163  0.00  0.00    -0.269 N 
ATOM     49  H   UNL     1       4.675   4.154  28.743  0.00  0.00    +0.153 HD
ATOM     50  C   UNL     1       5.567   5.434  27.448  0.00  0.00    +0.401 C 
ATOM     51  O   UNL     1       5.508   6.375  26.670  0.00  0.00    -0.226 OA
BRANCH  50  52
ATOM     52  O   UNL     1       6.696   4.729  27.750  0.00  0.00    -0.447 OA
BRANCH  52  53
ATOM     53  C   UNL     1       6.477   3.505  28.469  0.00  0.00    +0.178 C 
ATOM     54  C   UNL     1       7.160   3.528  29.844  0.00  0.00    +0.045 C 
ATOM     55  C   UNL     1       7.491   2.068  30.175  0.00  0.00    +0.004 C 
ATOM     56  C   UNL     1       7.139   1.263  28.926  0.00  0.00    +0.004 C 
ATOM     57  C   UNL     1       7.128   2.292  27.805  0.00  0.00    +0.045 C 
ENDBRANCH  52  53
ENDBRANCH  50  52
ENDBRANCH  47  48
BRANCH  47  58
ATOM     58  C   UNL     1       2.834   6.069  29.677  0.00  0.00    -0.011 C 
ATOM     59  C   UNL     1       4.064   6.674  30.382  0.00  0.00    +0.013 C 
ATOM     60  C   UNL     1       2.403   4.819  30.485  0.00  0.00    +0.013 C 
ATOM     61  C   UNL     1       1.682   7.094  29.763  0.00  0.00    +0.013 C 
ENDBRANCH  47  58
ENDBRANCH   4  47
TORSDOF 15
ENDMDL
MODEL 6
REMARK VINA RESULT:      -5.4      2.142      4.248
REMARK  Name = 
REMARK  21 active torsions:
REMARK  status: ('A' for Active; 'I' for Inactive)
REMARK    1  A    between atoms: C_1  and  C_2
REMARK    2  A    between atoms: C_2  and  C_3
REMARK    3  A    between atoms: C_2  and  C_4
REMARK    4  A    between atoms: C_9  and  C_12
REMARK    5  A    between atoms: C_18  and  O_21
REMARK    6  A    between atoms: O_21  and  C_22
REMARK    7  A    between atoms: C_23  and  O_25
REMARK    8  A    between atoms: O_25  and  C_26
REMARK    9  A    between atoms: C_28  and  C_47
REMARK   10  A    between atoms: C_31  and  C_33
REMARK   11  A    between atoms: C_33  and  C_34
REMARK   12  A    between atoms: C_33  and  N_38
REMARK   13  A    between atoms: C_34  and  C_35
REMARK   14  A    between atoms: C_34  and  C_36
REMARK   15  A    between atoms: C_34  and  C_37
REMARK   16  A    between atoms: C_39  and  O_41
REMARK   17  A    between atoms: O_41  and  C_42
REMARK   18  A    between atoms: N_49  and  C_50
REMARK   19  A    between atoms: C_50  and  C_55
REMARK   20  A    between atoms: C_52  and  C_53
REMARK   21  A    between atoms: C_55  and  O_57
REMARK                            x       y       z     vdW  Elec       q    Type
REMARK                         _______ _______ _______ _____ _____    ______ ____
ROOT
ATOM      1  C   UNL     1       5.708   0.408  26.613  0.00  0.00    +0.193 C 
ATOM      2  C   UNL     1       4.824  -0.852  26.459  0.00  0.00    +0.153 C 
ATOM      3  N   UNL     1       5.766  -1.968  26.308  0.00  0.00    -0.285 N 
ATOM      4  C   UNL     1       5.483  -3.316  26.116  0.00  0.00    +0.237 C 
ATOM      5  O   UNL     1       6.415  -4.131  26.148  0.00  0.00    -0.274 OA
ATOM      6  C   UNL     1       7.136  -1.507  26.582  0.00  0.00    +0.166 C 
ATOM      7  C   UNL     1       6.935  -0.181  27.321  0.00  0.00    +0.078 C 
ENDROOT
BRANCH   6   8
ATOM      8  C   UNL     1       7.896  -1.268  25.258  0.00  0.00    +0.235 C 
ATOM      9  N   UNL     1       7.282  -0.425  24.357  0.00  0.00    -0.298 N 
ATOM     10  H   UNL     1       6.456   0.100  24.653  0.00  0.00    +0.150 HD
ATOM     11  O   UNL     1       9.013  -1.729  25.017  0.00  0.00    -0.274 OA
BRANCH   9  12
ATOM     12  C   UNL     1       7.953  -0.049  23.117  0.00  0.00    +0.138 C 
ATOM     13  C   UNL     1       8.302   1.426  22.903  0.00  0.00    +0.048 C 
ATOM     14  C   UNL     1       7.157   0.822  22.149  0.00  0.00    +0.048 C 
BRANCH  12  15
ATOM     15  C   UNL     1       8.812  -1.135  22.492  0.00  0.00    +0.329 C 
ATOM     16  O   UNL     1      10.035  -1.122  22.548  0.00  0.00    -0.249 OA
BRANCH  15  17
ATOM     17  O   UNL     1       8.102  -2.115  21.894  0.00  0.00    -0.479 OA
ATOM     18  H   UNL     1       7.753  -2.768  22.545  0.00  0.00    +0.295 HD
ENDBRANCH  15  17
ENDBRANCH  12  15
BRANCH  13  19
ATOM     19  C   UNL     1       9.467   1.868  22.124  0.00  0.00    -0.028 C 
ATOM     20  C   UNL     1      10.583   2.410  22.629  0.00  0.00    +0.004 C 
ENDBRANCH  13  19
ENDBRANCH   9  12
ENDBRANCH   6   8
BRANCH   1  21
ATOM     21  O   UNL     1       5.156   1.469  27.398  0.00  0.00    -0.486 OA
BRANCH  21  24
ATOM     22  C   UNL     1       5.373   4.372  25.152  0.00  0.00    +0.094 A 
ATOM     23  C   UNL     1       5.767   3.221  25.815  0.00  0.00    +0.076 A 
ATOM     24  C   UNL     1       4.931   2.682  26.780  0.00  0.00    +0.132 A 
ATOM     25  C   UNL     1       3.775   3.408  27.155  0.00  0.00    +0.043 A 
ATOM     26  C   UNL     1       2.972   3.044  28.254  0.00  0.00    +0.017 A 
ATOM     27  C   UNL     1       1.874   3.817  28.640  0.00  0.00    +0.047 A 
ATOM     28  C   UNL     1       1.512   4.937  27.897  0.00  0.00    +0.136 A 
ATOM     29  C   UNL     1       2.282   5.277  26.772  0.00  0.00    +0.085 A 
ATOM     30 BR   UNL     1       1.751   6.780  25.697  0.00  0.00    -0.044 Br
ATOM     31  C   UNL     1       3.438   4.568  26.416  0.00  0.00    +0.093 A 
ATOM     32  N   UNL     1       4.216   5.008  25.408  0.00  0.00    -0.244 NA
BRANCH  22  39
ATOM     33  C   UNL     1      10.333   5.718  24.232  0.00  0.00    +0.221 C 
ATOM     34  N   UNL     1       9.454   6.008  23.205  0.00  0.00    -0.264 N 
ATOM     35  H   UNL     1       9.774   6.362  22.317  0.00  0.00    +0.157 HD
ATOM     36  C   UNL     1       8.138   5.664  23.323  0.00  0.00    +0.165 A 
ATOM     37  S   UNL     1       7.193   5.759  21.911  0.00  0.00    -0.060 S 
ATOM     38  C   UNL     1       5.856   5.121  22.795  0.00  0.00    +0.078 A 
ATOM     39  C   UNL     1       6.226   4.925  24.112  0.00  0.00    +0.098 A 
ATOM     40  N   UNL     1       7.528   5.269  24.402  0.00  0.00    -0.223 NA
ATOM     41  O   UNL     1      10.074   5.039  25.223  0.00  0.00    -0.275 OA
BRANCH  33  43
ATOM     42  C   UNL     1      12.319   6.836  25.296  0.00  0.00    +0.017 C 
ATOM     43  C   UNL     1      11.731   6.289  23.997  0.00  0.00    +0.069 C 
ATOM     44  C   UNL     1      12.648   5.214  23.422  0.00  0.00    +0.017 C 
ENDBRANCH  33  43
ENDBRANCH  22  39
BRANCH  28  45
ATOM     45  O   UNL     1       0.444   5.744  28.188  0.00  0.00    -0.494 OA
ATOM     46  C   UNL     1       0.550   6.609  29.308  0.00  0.00    +0.277 C 
ENDBRANCH  28  45
ENDBRANCH  21  24
ENDBRANCH   1  21
BRANCH   4  47
ATOM     47  C   UNL     1       4.005  -3.770  25.830  0.00  0.00    +0.168 C 
BRANCH  47  48
ATOM     48  N   UNL     1       3.441  -4.514  26.968  0.00  0.00    -0.269 N 
ATOM     49  H   UNL     1       3.674  -5.487  27.111  0.00  0.00    +0.153 HD
ATOM     50  C   UNL     1       2.505  -3.986  27.812  0.00  0.00    +0.401 C 
ATOM     51  O   UNL     1       2.148  -2.817  27.795  0.00  0.00    -0.226 OA
BRANCH  50  52
ATOM     52  O   UNL     1       2.010  -4.950  28.642  0.00  0.00    -0.447 OA
BRANCH  52  53
ATOM     53  C   UNL     1       2.882  -5.335  29.718  0.00  0.00    +0.178 C 
ATOM     54  C   UNL     1       4.054  -4.356  29.873  0.00  0.00    +0.045 C 
ATOM     55  C   UNL     1       5.211  -5.173  30.459  0.00  0.00    +0.004 C 
ATOM     56  C   UNL     1       4.735  -6.623  30.477  0.00  0.00    +0.004 C 
ATOM     57  C   UNL     1       3.600  -6.661  29.466  0.00  0.00    +0.045 C 
ENDBRANCH  52  53
ENDBRANCH  50  52
ENDBRANCH  47  48
BRANCH  47  58
ATOM     58  C   UNL     1       3.863  -4.598  24.495  0.00  0.00    -0.011 C 
ATOM     59  C   UNL     1       2.384  -4.683  24.070  0.00  0.00    +0.013 C 
ATOM     60  C   UNL     1       4.363  -6.046  24.728  0.00  0.00    +0.013 C 
ATOM     61  C   UNL     1       4.668  -4.016  23.314  0.00  0.00    +0.013 C 
ENDBRANCH  47  58
ENDBRANCH   4  47
TORSDOF 15
ENDMDL
MODEL 7
REMARK VINA RESULT:      -5.3      3.322      9.495
REMARK  Name = 
REMARK  21 active torsions:
REMARK  status: ('A' for Active; 'I' for Inactive)
REMARK    1  A    between atoms: C_1  and  C_2
REMARK    2  A    between atoms: C_2  and  C_3
REMARK    3  A    between atoms: C_2  and  C_4
REMARK    4  A    between atoms: C_9  and  C_12
REMARK    5  A    between atoms: C_18  and  O_21
REMARK    6  A    between atoms: O_21  and  C_22
REMARK    7  A    between atoms: C_23  and  O_25
REMARK    8  A    between atoms: O_25  and  C_26
REMARK    9  A    between atoms: C_28  and  C_47
REMARK   10  A    between atoms: C_31  and  C_33
REMARK   11  A    between atoms: C_33  and  C_34
REMARK   12  A    between atoms: C_33  and  N_38
REMARK   13  A    between atoms: C_34  and  C_35
REMARK   14  A    between atoms: C_34  and  C_36
REMARK   15  A    between atoms: C_34  and  C_37
REMARK   16  A    between atoms: C_39  and  O_41
REMARK   17  A    between atoms: O_41  and  C_42
REMARK   18  A    between atoms: N_49  and  C_50
REMARK   19  A    between atoms: C_50  and  C_55
REMARK   20  A    between atoms: C_52  and  C_53
REMARK   21  A    between atoms: C_55  and  O_57
REMARK                            x       y       z     vdW  Elec       q    Type
REMARK                         _______ _______ _______ _____ _____    ______ ____
ROOT
ATOM      1  C   UNL     1       6.682   0.551  26.336  0.00  0.00    +0.193 C 
ATOM      2  C   UNL     1       5.897   1.836  25.983  0.00  0.00    +0.153 C 
ATOM      3  N   UNL     1       5.723   1.792  24.525  0.00  0.00    -0.285 N 
ATOM      4  C   UNL     1       5.101   2.725  23.702  0.00  0.00    +0.237 C 
ATOM      5  O   UNL     1       4.930   2.446  22.507  0.00  0.00    -0.274 OA
ATOM      6  C   UNL     1       6.143   0.479  24.010  0.00  0.00    +0.166 C 
ATOM      7  C   UNL     1       6.170  -0.411  25.256  0.00  0.00    +0.078 C 
ENDROOT
BRANCH   6   8
ATOM      8  C   UNL     1       7.557   0.574  23.392  0.00  0.00    +0.235 C 
ATOM      9  N   UNL     1       8.360   1.580  23.883  0.00  0.00    -0.298 N 
ATOM     10  H   UNL     1       8.051   2.105  24.704  0.00  0.00    +0.150 HD
ATOM     11  O   UNL     1       7.996  -0.225  22.563  0.00  0.00    -0.274 OA
BRANCH   9  12
ATOM     12  C   UNL     1       9.747   1.702  23.446  0.00  0.00    +0.138 C 
ATOM     13  C   UNL     1      10.279   3.096  23.108  0.00  0.00    +0.048 C 
ATOM     14  C   UNL     1       9.970   2.135  22.000  0.00  0.00    +0.048 C 
BRANCH  12  15
ATOM     15  C   UNL     1      10.688   0.635  23.980  0.00  0.00    +0.329 C 
ATOM     16  O   UNL     1      11.216   0.714  25.082  0.00  0.00    -0.249 OA
BRANCH  15  17
ATOM     17  O   UNL     1      10.866  -0.405  23.139  0.00  0.00    -0.479 OA
ATOM     18  H   UNL     1      11.816  -0.534  22.905  0.00  0.00    +0.295 HD
ENDBRANCH  15  17
ENDBRANCH  12  15
BRANCH  13  19
ATOM     19  C   UNL     1      11.683   3.485  23.294  0.00  0.00    -0.028 C 
ATOM     20  C   UNL     1      12.130   4.735  23.474  0.00  0.00    +0.004 C 
ENDBRANCH  13  19
ENDBRANCH   9  12
ENDBRANCH   6   8
BRANCH   1  21
ATOM     21  O   UNL     1       6.432   0.002  27.634  0.00  0.00    -0.486 OA
BRANCH  21  24
ATOM     22  C   UNL     1       4.220  -2.936  27.641  0.00  0.00    +0.094 A 
ATOM     23  C   UNL     1       5.300  -2.134  27.307  0.00  0.00    +0.076 A 
ATOM     24  C   UNL     1       5.344  -0.834  27.784  0.00  0.00    +0.132 A 
ATOM     25  C   UNL     1       4.214  -0.327  28.471  0.00  0.00    +0.043 A 
ATOM     26  C   UNL     1       4.084   1.032  28.821  0.00  0.00    +0.017 A 
ATOM     27  C   UNL     1       2.929   1.516  29.440  0.00  0.00    +0.047 A 
ATOM     28  C   UNL     1       1.902   0.641  29.785  0.00  0.00    +0.136 A 
ATOM     29  C   UNL     1       2.047  -0.722  29.481  0.00  0.00    +0.085 A 
ATOM     30 BR   UNL     1       0.669  -1.952  30.015  0.00  0.00    -0.044 Br
ATOM     31  C   UNL     1       3.158  -1.218  28.783  0.00  0.00    +0.093 A 
ATOM     32  N   UNL     1       3.194  -2.509  28.399  0.00  0.00    -0.244 NA
BRANCH  22  39
ATOM     33  C   UNL     1       1.564  -6.091  24.439  0.00  0.00    +0.221 C 
ATOM     34  N   UNL     1       2.549  -6.714  25.181  0.00  0.00    -0.264 N 
ATOM     35  H   UNL     1       2.791  -7.682  25.035  0.00  0.00    +0.157 HD
ATOM     36  C   UNL     1       3.331  -5.977  26.023  0.00  0.00    +0.165 A 
ATOM     37  S   UNL     1       4.714  -6.746  26.652  0.00  0.00    -0.060 S 
ATOM     38  C   UNL     1       5.151  -5.268  27.425  0.00  0.00    +0.078 A 
ATOM     39  C   UNL     1       4.183  -4.313  27.177  0.00  0.00    +0.098 A 
ATOM     40  N   UNL     1       3.134  -4.746  26.396  0.00  0.00    -0.223 NA
ATOM     41  O   UNL     1       1.396  -4.876  24.354  0.00  0.00    -0.275 OA
BRANCH  33  43
ATOM     42  C   UNL     1       0.523  -6.616  22.211  0.00  0.00    +0.017 C 
ATOM     43  C   UNL     1       0.696  -7.075  23.657  0.00  0.00    +0.069 C 
ATOM     44  C   UNL     1       1.319  -8.467  23.691  0.00  0.00    +0.017 C 
ENDBRANCH  33  43
ENDBRANCH  22  39
BRANCH  28  45
ATOM     45  O   UNL     1       0.742   1.019  30.409  0.00  0.00    -0.494 OA
ATOM     46  C   UNL     1       0.449   2.406  30.483  0.00  0.00    +0.277 C 
ENDBRANCH  28  45
ENDBRANCH  21  24
ENDBRANCH   1  21
BRANCH   4  47
ATOM     47  C   UNL     1       4.662   4.115  24.291  0.00  0.00    +0.168 C 
BRANCH  47  48
ATOM     48  N   UNL     1       3.280   4.449  23.907  0.00  0.00    -0.269 N 
ATOM     49  H   UNL     1       3.088   5.263  23.340  0.00  0.00    +0.153 HD
ATOM     50  C   UNL     1       2.193   3.766  24.375  0.00  0.00    +0.401 C 
ATOM     51  O   UNL     1       2.259   2.740  25.036  0.00  0.00    -0.226 OA
BRANCH  50  52
ATOM     52  O   UNL     1       1.039   4.408  24.027  0.00  0.00    -0.447 OA
BRANCH  52  53
ATOM     53  C   UNL     1       0.608   4.198  22.673  0.00  0.00    +0.178 C 
ATOM     54  C   UNL     1       1.180   2.898  22.093  0.00  0.00    +0.045 C 
ATOM     55  C   UNL     1       1.291   3.122  20.581  0.00  0.00    +0.004 C 
ATOM     56  C   UNL     1       0.934   4.588  20.346  0.00  0.00    +0.004 C 
ATOM     57  C   UNL     1       1.143   5.249  21.700  0.00  0.00    +0.045 C 
ENDBRANCH  52  53
ENDBRANCH  50  52
ENDBRANCH  47  48
BRANCH  47  58
ATOM     58  C   UNL     1       5.647   5.285  23.906  0.00  0.00    -0.011 C 
ATOM     59  C   UNL     1       7.081   4.748  23.739  0.00  0.00    +0.013 C 
ATOM     60  C   UNL     1       5.674   6.336  25.044  0.00  0.00    +0.013 C 
ATOM     61  C   UNL     1       5.257   6.023  22.606  0.00  0.00    +0.013 C 
ENDBRANCH  47  58
ENDBRANCH   4  47
TORSDOF 15
ENDMDL
MODEL 8
REMARK VINA RESULT:      -5.2      2.412      4.150
REMARK  Name = 
REMARK  21 active torsions:
REMARK  status: ('A' for Active; 'I' for Inactive)
REMARK    1  A    between atoms: C_1  and  C_2
REMARK    2  A    between atoms: C_2  and  C_3
REMARK    3  A    between atoms: C_2  and  C_4
REMARK    4  A    between atoms: C_9  and  C_12
REMARK    5  A    between atoms: C_18  and  O_21
REMARK    6  A    between atoms: O_21  and  C_22
REMARK    7  A    between atoms: C_23  and  O_25
REMARK    8  A    between atoms: O_25  and  C_26
REMARK    9  A    between atoms: C_28  and  C_47
REMARK   10  A    between atoms: C_31  and  C_33
REMARK   11  A    between atoms: C_33  and  C_34
REMARK   12  A    between atoms: C_33  and  N_38
REMARK   13  A    between atoms: C_34  and  C_35
REMARK   14  A    between atoms: C_34  and  C_36
REMARK   15  A    between atoms: C_34  and  C_37
REMARK   16  A    between atoms: C_39  and  O_41
REMARK   17  A    between atoms: O_41  and  C_42
REMARK   18  A    between atoms: N_49  and  C_50
REMARK   19  A    between atoms: C_50  and  C_55
REMARK   20  A    between atoms: C_52  and  C_53
REMARK   21  A    between atoms: C_55  and  O_57
REMARK                            x       y       z     vdW  Elec       q    Type
REMARK                         _______ _______ _______ _____ _____    ______ ____
ROOT
ATOM      1  C   UNL     1       6.800   0.496  27.155  0.00  0.00    +0.193 C 
ATOM      2  C   UNL     1       6.064  -0.817  26.797  0.00  0.00    +0.153 C 
ATOM      3  N   UNL     1       7.127  -1.789  26.511  0.00  0.00    -0.285 N 
ATOM      4  C   UNL     1       6.998  -3.117  26.119  0.00  0.00    +0.237 C 
ATOM      5  O   UNL     1       8.015  -3.822  26.059  0.00  0.00    -0.274 OA
ATOM      6  C   UNL     1       8.434  -1.227  26.887  0.00  0.00    +0.166 C 
ATOM      7  C   UNL     1       8.077  -0.053  27.804  0.00  0.00    +0.078 C 
ENDROOT
BRANCH   6   8
ATOM      8  C   UNL     1       9.176  -0.715  25.631  0.00  0.00    +0.235 C 
ATOM      9  N   UNL     1       8.574  -0.991  24.423  0.00  0.00    -0.298 N 
ATOM     10  H   UNL     1       7.627  -1.376  24.419  0.00  0.00    +0.150 HD
ATOM     11  O   UNL     1      10.206  -0.039  25.673  0.00  0.00    -0.274 OA
BRANCH   9  12
ATOM     12  C   UNL     1       9.132  -0.470  23.180  0.00  0.00    +0.138 C 
ATOM     13  C   UNL     1       9.368   1.038  23.069  0.00  0.00    +0.048 C 
ATOM     14  C   UNL     1       8.216   0.416  22.339  0.00  0.00    +0.048 C 
BRANCH  12  15
ATOM     15  C   UNL     1      10.017  -1.438  22.413  0.00  0.00    +0.329 C 
ATOM     16  O   UNL     1      10.871  -2.125  22.960  0.00  0.00    -0.249 OA
BRANCH  15  17
ATOM     17  O   UNL     1       9.757  -1.484  21.090  0.00  0.00    -0.479 OA
ATOM     18  H   UNL     1       9.385  -0.633  20.756  0.00  0.00    +0.295 HD
ENDBRANCH  15  17
ENDBRANCH  12  15
BRANCH  13  19
ATOM     19  C   UNL     1      10.445   1.623  22.258  0.00  0.00    -0.028 C 
ATOM     20  C   UNL     1      10.326   2.690  21.457  0.00  0.00    +0.004 C 
ENDBRANCH  13  19
ENDBRANCH   9  12
ENDBRANCH   6   8
BRANCH   1  21
ATOM     21  O   UNL     1       6.124   1.363  28.070  0.00  0.00    -0.486 OA
BRANCH  21  24
ATOM     22  C   UNL     1       5.510   4.413  26.110  0.00  0.00    +0.094 A 
ATOM     23  C   UNL     1       6.210   3.350  26.657  0.00  0.00    +0.076 A 
ATOM     24  C   UNL     1       5.573   2.526  27.572  0.00  0.00    +0.132 A 
ATOM     25  C   UNL     1       4.281   2.888  28.022  0.00  0.00    +0.043 A 
ATOM     26  C   UNL     1       3.634   2.229  29.087  0.00  0.00    +0.017 A 
ATOM     27  C   UNL     1       2.386   2.651  29.553  0.00  0.00    +0.047 A 
ATOM     28  C   UNL     1       1.723   3.700  28.922  0.00  0.00    +0.136 A 
ATOM     29  C   UNL     1       2.342   4.329  27.830  0.00  0.00    +0.085 A 
ATOM     30 BR   UNL     1       1.406   5.732  26.906  0.00  0.00    -0.044 Br
ATOM     31  C   UNL     1       3.631   3.982  27.399  0.00  0.00    +0.093 A 
ATOM     32  N   UNL     1       4.236   4.699  26.433  0.00  0.00    -0.244 NA
BRANCH  22  39
ATOM     33  C   UNL     1      10.189   5.385  24.005  0.00  0.00    +0.221 C 
ATOM     34  N   UNL     1       9.173   6.215  23.569  0.00  0.00    -0.264 N 
ATOM     35  H   UNL     1       9.317   6.886  22.831  0.00  0.00    +0.157 HD
ATOM     36  C   UNL     1       7.901   6.025  24.025  0.00  0.00    +0.165 A 
ATOM     37  S   UNL     1       6.664   6.865  23.212  0.00  0.00    -0.060 S 
ATOM     38  C   UNL     1       5.504   6.074  24.214  0.00  0.00    +0.078 A 
ATOM     39  C   UNL     1       6.157   5.261  25.121  0.00  0.00    +0.098 A 
ATOM     40  N   UNL     1       7.531   5.268  25.017  0.00  0.00    -0.223 NA
ATOM     41  O   UNL     1      10.039   4.372  24.685  0.00  0.00    -0.275 OA
BRANCH  33  43
ATOM     42  C   UNL     1      12.282   6.666  24.554  0.00  0.00    +0.017 C 
ATOM     43  C   UNL     1      11.567   5.817  23.506  0.00  0.00    +0.069 C 
ATOM     44  C   UNL     1      12.409   4.592  23.164  0.00  0.00    +0.017 C 
ENDBRANCH  33  43
ENDBRANCH  22  39
BRANCH  28  45
ATOM     45  O   UNL     1       0.492   4.170  29.296  0.00  0.00    -0.494 OA
ATOM     46  C   UNL     1       0.443   5.331  30.112  0.00  0.00    +0.277 C 
ENDBRANCH  28  45
ENDBRANCH  21  24
ENDBRANCH   1  21
BRANCH   4  47
ATOM     47  C   UNL     1       5.584  -3.683  25.731  0.00  0.00    +0.168 C 
BRANCH  47  48
ATOM     48  N   UNL     1       5.210  -4.826  26.580  0.00  0.00    -0.269 N 
ATOM     49  H   UNL     1       5.877  -5.561  26.774  0.00  0.00    +0.153 HD
ATOM     50  C   UNL     1       3.942  -5.021  27.050  0.00  0.00    +0.401 C 
ATOM     51  O   UNL     1       3.035  -4.209  26.934  0.00  0.00    -0.226 OA
BRANCH  50  52
ATOM     52  O   UNL     1       3.829  -6.251  27.630  0.00  0.00    -0.447 OA
BRANCH  52  53
ATOM     53  C   UNL     1       2.674  -7.009  27.236  0.00  0.00    +0.178 C 
ATOM     54  C   UNL     1       2.773  -7.472  25.776  0.00  0.00    +0.045 C 
ATOM     55  C   UNL     1       1.330  -7.586  25.270  0.00  0.00    +0.004 C 
ATOM     56  C   UNL     1       0.448  -7.038  26.390  0.00  0.00    +0.004 C 
ATOM     57  C   UNL     1       1.387  -6.184  27.227  0.00  0.00    +0.045 C 
ENDBRANCH  52  53
ENDBRANCH  50  52
ENDBRANCH  47  48
BRANCH  47  58
ATOM     58  C   UNL     1       5.469  -4.060  24.204  0.00  0.00    -0.011 C 
ATOM     59  C   UNL     1       5.809  -2.843  23.322  0.00  0.00    +0.013 C 
ATOM     60  C   UNL     1       4.013  -4.477  23.880  0.00  0.00    +0.013 C 
ATOM     61  C   UNL     1       6.388  -5.228  23.783  0.00  0.00    +0.013 C 
ENDBRANCH  47  58
ENDBRANCH   4  47
TORSDOF 15
ENDMDL
MODEL 9
REMARK VINA RESULT:      -5.2      3.544     10.606
REMARK  Name = 
REMARK  21 active torsions:
REMARK  status: ('A' for Active; 'I' for Inactive)
REMARK    1  A    between atoms: C_1  and  C_2
REMARK    2  A    between atoms: C_2  and  C_3
REMARK    3  A    between atoms: C_2  and  C_4
REMARK    4  A    between atoms: C_9  and  C_12
REMARK    5  A    between atoms: C_18  and  O_21
REMARK    6  A    between atoms: O_21  and  C_22
REMARK    7  A    between atoms: C_23  and  O_25
REMARK    8  A    between atoms: O_25  and  C_26
REMARK    9  A    between atoms: C_28  and  C_47
REMARK   10  A    between atoms: C_31  and  C_33
REMARK   11  A    between atoms: C_33  and  C_34
REMARK   12  A    between atoms: C_33  and  N_38
REMARK   13  A    between atoms: C_34  and  C_35
REMARK   14  A    between atoms: C_34  and  C_36
REMARK   15  A    between atoms: C_34  and  C_37
REMARK   16  A    between atoms: C_39  and  O_41
REMARK   17  A    between atoms: O_41  and  C_42
REMARK   18  A    between atoms: N_49  and  C_50
REMARK   19  A    between atoms: C_50  and  C_55
REMARK   20  A    between atoms: C_52  and  C_53
REMARK   21  A    between atoms: C_55  and  O_57
REMARK                            x       y       z     vdW  Elec       q    Type
REMARK                         _______ _______ _______ _____ _____    ______ ____
ROOT
ATOM      1  C   UNL     1       4.153   2.048  25.741  0.00  0.00    +0.193 C 
ATOM      2  C   UNL     1       4.090   3.211  26.759  0.00  0.00    +0.153 C 
ATOM      3  N   UNL     1       4.232   4.433  25.957  0.00  0.00    -0.285 N 
ATOM      4  C   UNL     1       4.262   5.753  26.394  0.00  0.00    +0.237 C 
ATOM      5  O   UNL     1       4.250   6.661  25.551  0.00  0.00    -0.274 OA
ATOM      6  C   UNL     1       4.150   4.105  24.525  0.00  0.00    +0.166 C 
ATOM      7  C   UNL     1       3.525   2.707  24.506  0.00  0.00    +0.078 C 
ENDROOT
BRANCH   6   8
ATOM      8  C   UNL     1       5.565   4.064  23.904  0.00  0.00    +0.235 C 
ATOM      9  N   UNL     1       6.505   4.878  24.497  0.00  0.00    -0.298 N 
ATOM     10  H   UNL     1       6.273   5.341  25.379  0.00  0.00    +0.150 HD
ATOM     11  O   UNL     1       5.886   3.313  22.981  0.00  0.00    -0.274 OA
BRANCH   9  12
ATOM     12  C   UNL     1       7.896   4.846  24.059  0.00  0.00    +0.138 C 
ATOM     13  C   UNL     1       8.680   3.543  24.232  0.00  0.00    +0.048 C 
ATOM     14  C   UNL     1       8.952   4.695  25.151  0.00  0.00    +0.048 C 
BRANCH  12  15
ATOM     15  C   UNL     1       8.237   5.796  22.923  0.00  0.00    +0.329 C 
ATOM     16  O   UNL     1       9.069   6.687  23.036  0.00  0.00    -0.249 OA
BRANCH  15  17
ATOM     17  O   UNL     1       7.558   5.549  21.783  0.00  0.00    -0.479 OA
ATOM     18  H   UNL     1       6.753   6.113  21.702  0.00  0.00    +0.295 HD
ENDBRANCH  15  17
ENDBRANCH  12  15
BRANCH  13  19
ATOM     19  C   UNL     1       9.760   3.131  23.325  0.00  0.00    -0.028 C 
ATOM     20  C   UNL     1       9.662   2.199  22.367  0.00  0.00    +0.004 C 
ENDBRANCH  13  19
ENDBRANCH   9  12
ENDBRANCH   6   8
BRANCH   1  21
ATOM     21  O   UNL     1       3.420   0.871  26.091  0.00  0.00    -0.486 OA
BRANCH  21  24
ATOM     22  C   UNL     1       4.383  -2.347  27.588  0.00  0.00    +0.094 A 
ATOM     23  C   UNL     1       3.645  -1.195  27.369  0.00  0.00    +0.076 A 
ATOM     24  C   UNL     1       4.133  -0.241  26.490  0.00  0.00    +0.132 A 
ATOM     25  C   UNL     1       5.436  -0.411  25.963  0.00  0.00    +0.043 A 
ATOM     26  C   UNL     1       6.094   0.591  25.222  0.00  0.00    +0.017 A 
ATOM     27  C   UNL     1       7.405   0.420  24.771  0.00  0.00    +0.047 A 
ATOM     28  C   UNL     1       8.068  -0.784  24.991  0.00  0.00    +0.136 A 
ATOM     29  C   UNL     1       7.400  -1.805  25.688  0.00  0.00    +0.085 A 
ATOM     30 BR   UNL     1       8.278  -3.497  25.938  0.00  0.00    -0.044 Br
ATOM     31  C   UNL     1       6.117  -1.625  26.226  0.00  0.00    +0.093 A 
ATOM     32  N   UNL     1       5.569  -2.584  26.998  0.00  0.00    -0.244 NA
BRANCH  22  39
ATOM     33  C   UNL     1       1.510  -6.706  27.553  0.00  0.00    +0.221 C 
ATOM     34  N   UNL     1       1.899  -6.278  28.809  0.00  0.00    -0.264 N 
ATOM     35  H   UNL     1       1.718  -6.827  29.635  0.00  0.00    +0.157 HD
ATOM     36  C   UNL     1       2.685  -5.170  28.933  0.00  0.00    +0.165 A 
ATOM     37  S   UNL     1       3.381  -4.893  30.461  0.00  0.00    -0.060 S 
ATOM     38  C   UNL     1       4.214  -3.532  29.806  0.00  0.00    +0.078 A 
ATOM     39  C   UNL     1       3.861  -3.371  28.479  0.00  0.00    +0.098 A 
ATOM     40  N   UNL     1       2.963  -4.301  28.005  0.00  0.00    -0.223 NA
ATOM     41  O   UNL     1       1.921  -6.254  26.486  0.00  0.00    -0.275 OA
BRANCH  33  43
ATOM     42  C   UNL     1       0.817  -8.875  26.485  0.00  0.00    +0.017 C 
ATOM     43  C   UNL     1       0.525  -7.873  27.600  0.00  0.00    +0.069 C 
ATOM     44  C   UNL     1       0.599  -8.568  28.957  0.00  0.00    +0.017 C 
ENDBRANCH  33  43
ENDBRANCH  22  39
BRANCH  28  45
ATOM     45  O   UNL     1       9.345  -1.051  24.572  0.00  0.00    -0.494 OA
ATOM     46  C   UNL     1       9.536  -1.418  23.214  0.00  0.00    +0.277 C 
ENDBRANCH  28  45
ENDBRANCH  21  24
ENDBRANCH   1  21
BRANCH   4  47
ATOM     47  C   UNL     1       4.345   6.064  27.933  0.00  0.00    +0.168 C 
BRANCH  47  48
ATOM     48  N   UNL     1       5.382   5.253  28.591  0.00  0.00    -0.269 N 
ATOM     49  H   UNL     1       5.131   4.559  29.281  0.00  0.00    +0.153 HD
ATOM     50  C   UNL     1       6.720   5.460  28.399  0.00  0.00    +0.401 C 
ATOM     51  O   UNL     1       7.184   6.231  27.572  0.00  0.00    -0.226 OA
BRANCH  50  52
ATOM     52  O   UNL     1       7.451   4.713  29.278  0.00  0.00    -0.447 OA
BRANCH  52  53
ATOM     53  C   UNL     1       6.994   3.362  29.457  0.00  0.00    +0.178 C 
ATOM     54  C   UNL     1       7.849   2.609  30.485  0.00  0.00    +0.045 C 
ATOM     55  C   UNL     1       7.787   1.130  30.084  0.00  0.00    +0.004 C 
ATOM     56  C   UNL     1       7.036   1.087  28.755  0.00  0.00    +0.004 C 
ATOM     57  C   UNL     1       7.159   2.500  28.206  0.00  0.00    +0.045 C 
ENDBRANCH  52  53
ENDBRANCH  50  52
ENDBRANCH  47  48
BRANCH  47  58
ATOM     58  C   UNL     1       2.959   5.901  28.669  0.00  0.00    -0.011 C 
ATOM     59  C   UNL     1       1.802   5.936  27.652  0.00  0.00    +0.013 C 
ATOM     60  C   UNL     1       2.751   7.081  29.651  0.00  0.00    +0.013 C 
ATOM     61  C   UNL     1       2.840   4.595  29.486  0.00  0.00    +0.013 C 
ENDBRANCH  47  58
ENDBRANCH   4  47
TORSDOF 15
ENDMDL
