MODEL 1
REMARK VINA RESULT:      -7.2      0.000      0.000
REMARK  Name = 
REMARK  16 active torsions:
REMARK  status: ('A' for Active; 'I' for Inactive)
REMARK    1  A    between atoms: C_1  and  C_2
REMARK    2  A    between atoms: C_2  and  C_3
REMARK    3  A    between atoms: C_2  and  O_4
REMARK    4  A    between atoms: O_4  and  C_5
REMARK    5  A    between atoms: C_5  and  C_7
REMARK    6  A    between atoms: C_7  and  C_8
REMARK    7  A    between atoms: C_7  and  N_9
REMARK    8  A    between atoms: N_9  and  P_10
REMARK    9  A    between atoms: P_10  and  O_12
REMARK   10  A    between atoms: P_10  and  O_30
REMARK   11  A    between atoms: O_12  and  C_13
REMARK   12  A    between atoms: C_13  and  C_14
REMARK   13  A    between atoms: C_15  and  O_29
REMARK   14  A    between atoms: C_16  and  C_27
REMARK   15  A    between atoms: C_17  and  N_19
REMARK   16  A    between atoms: O_30  and  C_31
REMARK                            x       y       z     vdW  Elec       q    Type
REMARK                         _______ _______ _______ _____ _____    ______ ____
ROOT
ATOM      1  O   UNL     1       8.627  -3.326  26.328  0.00  0.00    -0.284 OA
ENDROOT
BRANCH   1   2
ATOM      2  P   UNL     1       7.599  -4.591  26.072  0.00  0.00    +0.462 P 
ATOM      3  O   UNL     1       8.291  -5.448  27.161  0.00  0.00    -0.228 OA
BRANCH   2   4
ATOM      4  N   UNL     1       6.276  -4.248  27.090  0.00  0.00    -0.199 NA
ATOM      5  H   UNL     1       6.568  -4.629  27.988  0.00  0.00    +0.135 HD
BRANCH   4   6
ATOM      6  C   UNL     1       4.964  -4.843  26.722  0.00  0.00    +0.171 C 
ATOM      7  C   UNL     1       3.927  -4.430  27.763  0.00  0.00    +0.036 C 
BRANCH   6   8
ATOM      8  C   UNL     1       5.031  -6.375  26.591  0.00  0.00    +0.325 C 
ATOM      9  O   UNL     1       5.325  -7.141  27.501  0.00  0.00    -0.249 OA
BRANCH   8  10
ATOM     10  O   UNL     1       4.773  -6.761  25.307  0.00  0.00    -0.461 OA
BRANCH  10  12
ATOM     11  C   UNL     1       3.454  -6.254  23.354  0.00  0.00    +0.052 C 
ATOM     12  C   UNL     1       3.419  -6.587  24.842  0.00  0.00    +0.170 C 
ATOM     13  C   UNL     1       2.662  -7.891  25.076  0.00  0.00    +0.052 C 
ENDBRANCH  10  12
ENDBRANCH   8  10
ENDBRANCH   6   8
ENDBRANCH   4   6
ENDBRANCH   2   4
BRANCH   2  14
ATOM     14  O   UNL     1       6.827  -3.634  24.855  0.00  0.00    -0.413 OA
BRANCH  14  15
ATOM     15  C   UNL     1       6.661  -4.170  23.603  0.00  0.00    +0.131 A 
ATOM     16  C   UNL     1       7.289  -5.395  23.374  0.00  0.00    +0.046 A 
ATOM     17  C   UNL     1       7.178  -6.016  22.130  0.00  0.00    +0.004 A 
ATOM     18  C   UNL     1       6.443  -5.411  21.111  0.00  0.00    +0.000 A 
ATOM     19  C   UNL     1       5.823  -4.184  21.338  0.00  0.00    +0.004 A 
ATOM     20  C   UNL     1       5.931  -3.560  22.582  0.00  0.00    +0.046 A 
ENDBRANCH  14  15
ENDBRANCH   2  14
ENDBRANCH   1   2
BRANCH   1  21
ATOM     21  C   UNL     1       8.043  -2.024  26.352  0.00  0.00    +0.206 C 
BRANCH  21  22
ATOM     22  C   UNL     1       8.778  -0.912  25.577  0.00  0.00    +0.179 C 
ATOM     23  O   UNL     1       7.858  -0.009  24.913  0.00  0.00    -0.345 OA
ATOM     24  C   UNL     1       8.511   0.465  23.707  0.00  0.00    +0.263 C 
ATOM     25  C   UNL     1       9.951  -0.073  23.692  0.00  0.00    +0.182 C 
ATOM     26  C   UNL     1      11.013   0.866  24.254  0.00  0.00    +0.055 C 
ATOM     27  F   UNL     1      10.322  -0.372  22.414  0.00  0.00    -0.235 F 
ATOM     28  C   UNL     1       9.819  -1.343  24.534  0.00  0.00    +0.187 C 
BRANCH  24  29
ATOM     29  N   UNL     1       8.356   1.917  23.539  0.00  0.00    -0.271 N 
ATOM     30  C   UNL     1       8.227   2.473  22.271  0.00  0.00    +0.331 A 
ATOM     31  O   UNL     1       8.285   1.848  21.214  0.00  0.00    -0.246 OA
ATOM     32  N   UNL     1       7.964   3.820  22.236  0.00  0.00    -0.275 N 
ATOM     33  H   UNL     1       7.794   4.203  21.323  0.00  0.00    +0.173 HD
ATOM     34  C   UNL     1       7.556   4.570  23.299  0.00  0.00    +0.254 A 
ATOM     35  O   UNL     1       7.026   5.666  23.178  0.00  0.00    -0.268 OA
ATOM     36  C   UNL     1       7.752   3.954  24.618  0.00  0.00    +0.088 A 
ATOM     37  C   UNL     1       8.130   2.677  24.678  0.00  0.00    +0.098 A 
ENDBRANCH  24  29
BRANCH  28  38
ATOM     38  O   UNL     1       9.427  -2.466  23.750  0.00  0.00    -0.386 OA
ATOM     39  H   UNL     1       9.908  -2.436  22.890  0.00  0.00    +0.210 HD
ENDBRANCH  28  38
ENDBRANCH  21  22
ENDBRANCH   1  21
TORSDOF 12
ENDMDL
MODEL 2
REMARK VINA RESULT:      -7.0      1.781      2.290
REMARK  Name = 
REMARK  16 active torsions:
REMARK  status: ('A' for Active; 'I' for Inactive)
REMARK    1  A    between atoms: C_1  and  C_2
REMARK    2  A    between atoms: C_2  and  C_3
REMARK    3  A    between atoms: C_2  and  O_4
REMARK    4  A    between atoms: O_4  and  C_5
REMARK    5  A    between atoms: C_5  and  C_7
REMARK    6  A    between atoms: C_7  and  C_8
REMARK    7  A    between atoms: C_7  and  N_9
REMARK    8  A    between atoms: N_9  and  P_10
REMARK    9  A    between atoms: P_10  and  O_12
REMARK   10  A    between atoms: P_10  and  O_30
REMARK   11  A    between atoms: O_12  and  C_13
REMARK   12  A    between atoms: C_13  and  C_14
REMARK   13  A    between atoms: C_15  and  O_29
REMARK   14  A    between atoms: C_16  and  C_27
REMARK   15  A    between atoms: C_17  and  N_19
REMARK   16  A    between atoms: O_30  and  C_31
REMARK                            x       y       z     vdW  Elec       q    Type
REMARK                         _______ _______ _______ _____ _____    ______ ____
ROOT
ATOM      1  O   UNL     1       8.542  -2.177  25.556  0.00  0.00    -0.284 OA
ENDROOT
BRANCH   1   2
ATOM      2  P   UNL     1       8.014  -3.732  25.726  0.00  0.00    +0.462 P 
ATOM      3  O   UNL     1       9.174  -4.081  26.692  0.00  0.00    -0.228 OA
BRANCH   2   4
ATOM      4  N   UNL     1       6.891  -3.639  27.005  0.00  0.00    -0.199 NA
ATOM      5  H   UNL     1       7.397  -4.044  27.789  0.00  0.00    +0.135 HD
BRANCH   4   6
ATOM      6  C   UNL     1       5.608  -4.369  26.836  0.00  0.00    +0.171 C 
ATOM      7  C   UNL     1       4.610  -3.858  27.872  0.00  0.00    +0.036 C 
BRANCH   6   8
ATOM      8  C   UNL     1       5.782  -5.894  26.947  0.00  0.00    +0.325 C 
ATOM      9  O   UNL     1       6.285  -6.471  27.903  0.00  0.00    -0.249 OA
BRANCH   8  10
ATOM     10  O   UNL     1       5.351  -6.513  25.809  0.00  0.00    -0.461 OA
BRANCH  10  12
ATOM     11  C   UNL     1       3.899  -6.515  23.885  0.00  0.00    +0.052 C 
ATOM     12  C   UNL     1       4.012  -6.202  25.373  0.00  0.00    +0.170 C 
ATOM     13  C   UNL     1       3.037  -7.060  26.173  0.00  0.00    +0.052 C 
ENDBRANCH  10  12
ENDBRANCH   8  10
ENDBRANCH   6   8
ENDBRANCH   4   6
ENDBRANCH   2   4
BRANCH   2  14
ATOM     14  O   UNL     1       6.720  -3.342  24.647  0.00  0.00    -0.413 OA
BRANCH  14  15
ATOM     15  C   UNL     1       6.615  -4.034  23.467  0.00  0.00    +0.131 A 
ATOM     16  C   UNL     1       7.376  -5.201  23.373  0.00  0.00    +0.046 A 
ATOM     17  C   UNL     1       7.337  -5.970  22.210  0.00  0.00    +0.004 A 
ATOM     18  C   UNL     1       6.540  -5.572  21.137  0.00  0.00    +0.000 A 
ATOM     19  C   UNL     1       5.788  -4.402  21.228  0.00  0.00    +0.004 A 
ATOM     20  C   UNL     1       5.824  -3.631  22.391  0.00  0.00    +0.046 A 
ENDBRANCH  14  15
ENDBRANCH   2  14
ENDBRANCH   1   2
BRANCH   1  21
ATOM     21  C   UNL     1       9.345  -1.897  24.411  0.00  0.00    +0.206 C 
BRANCH  21  22
ATOM     22  C   UNL     1       9.072  -0.572  23.672  0.00  0.00    +0.179 C 
ATOM     23  O   UNL     1       9.545   0.578  24.418  0.00  0.00    -0.345 OA
ATOM     24  C   UNL     1       8.663   1.689  24.105  0.00  0.00    +0.263 C 
ATOM     25  C   UNL     1       7.677   1.233  23.017  0.00  0.00    +0.182 C 
ATOM     26  C   UNL     1       8.078   1.562  21.583  0.00  0.00    +0.055 C 
ATOM     27  F   UNL     1       6.456   1.803  23.229  0.00  0.00    -0.235 F 
ATOM     28  C   UNL     1       7.624  -0.277  23.255  0.00  0.00    +0.187 C 
BRANCH  24  29
ATOM     29  N   UNL     1       9.416   2.920  23.828  0.00  0.00    -0.271 N 
ATOM     30  C   UNL     1       8.887   4.163  24.159  0.00  0.00    +0.331 A 
ATOM     31  O   UNL     1       7.771   4.353  24.638  0.00  0.00    -0.246 OA
ATOM     32  N   UNL     1       9.725   5.234  23.971  0.00  0.00    -0.275 N 
ATOM     33  H   UNL     1       9.369   6.120  24.284  0.00  0.00    +0.173 HD
ATOM     34  C   UNL     1      11.070   5.155  23.764  0.00  0.00    +0.254 A 
ATOM     35  O   UNL     1      11.826   6.103  23.922  0.00  0.00    -0.268 OA
ATOM     36  C   UNL     1      11.572   3.830  23.376  0.00  0.00    +0.088 A 
ATOM     37  C   UNL     1      10.739   2.790  23.431  0.00  0.00    +0.098 A 
ENDBRANCH  24  29
BRANCH  28  38
ATOM     38  O   UNL     1       6.653  -0.630  24.235  0.00  0.00    -0.386 OA
ATOM     39  H   UNL     1       5.762  -0.357  23.912  0.00  0.00    +0.210 HD
ENDBRANCH  28  38
ENDBRANCH  21  22
ENDBRANCH   1  21
TORSDOF 12
ENDMDL
MODEL 3
REMARK VINA RESULT:      -6.9      2.805      8.403
REMARK  Name = 
REMARK  16 active torsions:
REMARK  status: ('A' for Active; 'I' for Inactive)
REMARK    1  A    between atoms: C_1  and  C_2
REMARK    2  A    between atoms: C_2  and  C_3
REMARK    3  A    between atoms: C_2  and  O_4
REMARK    4  A    between atoms: O_4  and  C_5
REMARK    5  A    between atoms: C_5  and  C_7
REMARK    6  A    between atoms: C_7  and  C_8
REMARK    7  A    between atoms: C_7  and  N_9
REMARK    8  A    between atoms: N_9  and  P_10
REMARK    9  A    between atoms: P_10  and  O_12
REMARK   10  A    between atoms: P_10  and  O_30
REMARK   11  A    between atoms: O_12  and  C_13
REMARK   12  A    between atoms: C_13  and  C_14
REMARK   13  A    between atoms: C_15  and  O_29
REMARK   14  A    between atoms: C_16  and  C_27
REMARK   15  A    between atoms: C_17  and  N_19
REMARK   16  A    between atoms: O_30  and  C_31
REMARK                            x       y       z     vdW  Elec       q    Type
REMARK                         _______ _______ _______ _____ _____    ______ ____
ROOT
ATOM      1  O   UNL     1      10.141   0.560  22.501  0.00  0.00    -0.284 OA
ENDROOT
BRANCH   1   2
ATOM      2  P   UNL     1       9.017   1.724  22.178  0.00  0.00    +0.462 P 
ATOM      3  O   UNL     1       8.669   1.088  20.809  0.00  0.00    -0.228 OA
BRANCH   2   4
ATOM      4  N   UNL     1       7.593   1.119  22.894  0.00  0.00    -0.199 NA
ATOM      5  H   UNL     1       7.454   0.229  22.420  0.00  0.00    +0.135 HD
BRANCH   4   6
ATOM      6  C   UNL     1       6.360   1.936  22.748  0.00  0.00    +0.171 C 
ATOM      7  C   UNL     1       6.722   3.259  22.079  0.00  0.00    +0.036 C 
BRANCH   6   8
ATOM      8  C   UNL     1       5.654   2.177  24.094  0.00  0.00    +0.325 C 
ATOM      9  O   UNL     1       4.865   1.400  24.617  0.00  0.00    -0.249 OA
BRANCH   8  10
ATOM     10  O   UNL     1       5.983   3.402  24.600  0.00  0.00    -0.461 OA
BRANCH  10  12
ATOM     11  C   UNL     1       7.291   3.262  26.620  0.00  0.00    +0.052 C 
ATOM     12  C   UNL     1       5.913   3.548  26.033  0.00  0.00    +0.170 C 
ATOM     13  C   UNL     1       5.488   4.979  26.346  0.00  0.00    +0.052 C 
ENDBRANCH  10  12
ENDBRANCH   8  10
ENDBRANCH   6   8
ENDBRANCH   4   6
ENDBRANCH   2   4
BRANCH   2  14
ATOM     14  O   UNL     1       9.407   2.434  23.706  0.00  0.00    -0.413 OA
BRANCH  14  15
ATOM     15  C   UNL     1      10.070   3.635  23.724  0.00  0.00    +0.131 A 
ATOM     16  C   UNL     1      11.417   3.595  23.363  0.00  0.00    +0.046 A 
ATOM     17  C   UNL     1      12.174   4.767  23.354  0.00  0.00    +0.004 A 
ATOM     18  C   UNL     1      11.587   5.980  23.710  0.00  0.00    +0.000 A 
ATOM     19  C   UNL     1      10.244   6.018  24.080  0.00  0.00    +0.004 A 
ATOM     20  C   UNL     1       9.483   4.847  24.088  0.00  0.00    +0.046 A 
ENDBRANCH  14  15
ENDBRANCH   2  14
ENDBRANCH   1   2
BRANCH   1  21
ATOM     21  C   UNL     1       9.951  -0.705  21.870  0.00  0.00    +0.206 C 
BRANCH  21  22
ATOM     22  C   UNL     1       9.408  -1.851  22.745  0.00  0.00    +0.179 C 
ATOM     23  O   UNL     1       7.971  -2.002  22.618  0.00  0.00    -0.345 OA
ATOM     24  C   UNL     1       7.472  -2.487  23.893  0.00  0.00    +0.263 C 
ATOM     25  C   UNL     1       8.675  -2.768  24.808  0.00  0.00    +0.182 C 
ATOM     26  C   UNL     1       9.174  -4.209  24.817  0.00  0.00    +0.055 C 
ATOM     27  F   UNL     1       8.363  -2.448  26.097  0.00  0.00    -0.235 F 
ATOM     28  C   UNL     1       9.727  -1.811  24.246  0.00  0.00    +0.187 C 
BRANCH  24  29
ATOM     29  N   UNL     1       6.513  -3.586  23.719  0.00  0.00    -0.271 N 
ATOM     30  C   UNL     1       5.461  -3.756  24.612  0.00  0.00    +0.331 A 
ATOM     31  O   UNL     1       5.269  -3.075  25.618  0.00  0.00    -0.246 OA
ATOM     32  N   UNL     1       4.557  -4.736  24.286  0.00  0.00    -0.275 N 
ATOM     33  H   UNL     1       3.757  -4.804  24.891  0.00  0.00    +0.173 HD
ATOM     34  C   UNL     1       4.454  -5.339  23.068  0.00  0.00    +0.254 A 
ATOM     35  O   UNL     1       3.459  -5.955  22.710  0.00  0.00    -0.268 OA
ATOM     36  C   UNL     1       5.609  -5.164  22.178  0.00  0.00    +0.088 A 
ATOM     37  C   UNL     1       6.566  -4.306  22.534  0.00  0.00    +0.098 A 
ENDBRANCH  24  29
BRANCH  28  38
ATOM     38  O   UNL     1       9.632  -0.513  24.827  0.00  0.00    -0.386 OA
ATOM     39  H   UNL     1       9.899   0.156  24.154  0.00  0.00    +0.210 HD
ENDBRANCH  28  38
ENDBRANCH  21  22
ENDBRANCH   1  21
TORSDOF 12
ENDMDL
MODEL 4
REMARK VINA RESULT:      -6.8      2.985      8.335
REMARK  Name = 
REMARK  16 active torsions:
REMARK  status: ('A' for Active; 'I' for Inactive)
REMARK    1  A    between atoms: C_1  and  C_2
REMARK    2  A    between atoms: C_2  and  C_3
REMARK    3  A    between atoms: C_2  and  O_4
REMARK    4  A    between atoms: O_4  and  C_5
REMARK    5  A    between atoms: C_5  and  C_7
REMARK    6  A    between atoms: C_7  and  C_8
REMARK    7  A    between atoms: C_7  and  N_9
REMARK    8  A    between atoms: N_9  and  P_10
REMARK    9  A    between atoms: P_10  and  O_12
REMARK   10  A    between atoms: P_10  and  O_30
REMARK   11  A    between atoms: O_12  and  C_13
REMARK   12  A    between atoms: C_13  and  C_14
REMARK   13  A    between atoms: C_15  and  O_29
REMARK   14  A    between atoms: C_16  and  C_27
REMARK   15  A    between atoms: C_17  and  N_19
REMARK   16  A    between atoms: O_30  and  C_31
REMARK                            x       y       z     vdW  Elec       q    Type
REMARK                         _______ _______ _______ _____ _____    ______ ____
ROOT
ATOM      1  O   UNL     1      10.279   0.288  23.243  0.00  0.00    -0.284 OA
ENDROOT
BRANCH   1   2
ATOM      2  P   UNL     1       9.391   1.374  22.374  0.00  0.00    +0.462 P 
ATOM      3  O   UNL     1       9.384   0.457  21.126  0.00  0.00    -0.228 OA
BRANCH   2   4
ATOM      4  N   UNL     1       7.779   0.976  22.757  0.00  0.00    -0.199 NA
ATOM      5  H   UNL     1       7.357   0.811  21.846  0.00  0.00    +0.135 HD
BRANCH   4   6
ATOM      6  C   UNL     1       6.979   2.001  23.477  0.00  0.00    +0.171 C 
ATOM      7  C   UNL     1       5.948   1.295  24.354  0.00  0.00    +0.036 C 
BRANCH   6   8
ATOM      8  C   UNL     1       6.296   2.992  22.517  0.00  0.00    +0.325 C 
ATOM      9  O   UNL     1       6.880   3.855  21.875  0.00  0.00    -0.249 OA
BRANCH   8  10
ATOM     10  O   UNL     1       4.942   2.815  22.524  0.00  0.00    -0.461 OA
BRANCH  10  12
ATOM     11  C   UNL     1       2.701   3.636  22.186  0.00  0.00    +0.052 C 
ATOM     12  C   UNL     1       4.136   4.010  22.543  0.00  0.00    +0.170 C 
ATOM     13  C   UNL     1       4.197   4.605  23.947  0.00  0.00    +0.052 C 
ENDBRANCH  10  12
ENDBRANCH   8  10
ENDBRANCH   6   8
ENDBRANCH   4   6
ENDBRANCH   2   4
BRANCH   2  14
ATOM     14  O   UNL     1       9.401   2.399  23.768  0.00  0.00    -0.413 OA
BRANCH  14  15
ATOM     15  C   UNL     1      10.106   3.575  23.716  0.00  0.00    +0.131 A 
ATOM     16  C   UNL     1      11.440   3.471  23.322  0.00  0.00    +0.046 A 
ATOM     17  C   UNL     1      12.238   4.613  23.243  0.00  0.00    +0.004 A 
ATOM     18  C   UNL     1      11.703   5.860  23.560  0.00  0.00    +0.000 A 
ATOM     19  C   UNL     1      10.372   5.963  23.962  0.00  0.00    +0.004 A 
ATOM     20  C   UNL     1       9.572   4.822  24.042  0.00  0.00    +0.046 A 
ENDBRANCH  14  15
ENDBRANCH   2  14
ENDBRANCH   1   2
BRANCH   1  21
ATOM     21  C   UNL     1      10.132  -1.086  22.888  0.00  0.00    +0.206 C 
BRANCH  21  22
ATOM     22  C   UNL     1       9.212  -1.945  23.778  0.00  0.00    +0.179 C 
ATOM     23  O   UNL     1       7.863  -2.028  23.250  0.00  0.00    -0.345 OA
ATOM     24  C   UNL     1       6.963  -2.153  24.382  0.00  0.00    +0.263 C 
ATOM     25  C   UNL     1       7.807  -2.280  25.661  0.00  0.00    +0.182 C 
ATOM     26  C   UNL     1       8.083  -3.704  26.131  0.00  0.00    +0.055 C 
ATOM     27  F   UNL     1       7.189  -1.635  26.692  0.00  0.00    -0.235 F 
ATOM     28  C   UNL     1       9.095  -1.560  25.259  0.00  0.00    +0.187 C 
BRANCH  24  29
ATOM     29  N   UNL     1       5.952  -3.196  24.161  0.00  0.00    -0.271 N 
ATOM     30  C   UNL     1       4.666  -3.055  24.670  0.00  0.00    +0.331 A 
ATOM     31  O   UNL     1       4.279  -2.121  25.369  0.00  0.00    -0.246 OA
ATOM     32  N   UNL     1       3.771  -4.028  24.300  0.00  0.00    -0.275 N 
ATOM     33  H   UNL     1       2.824  -3.882  24.605  0.00  0.00    +0.173 HD
ATOM     34  C   UNL     1       3.956  -4.926  23.291  0.00  0.00    +0.254 A 
ATOM     35  O   UNL     1       3.038  -5.551  22.777  0.00  0.00    -0.268 OA
ATOM     36  C   UNL     1       5.339  -5.067  22.818  0.00  0.00    +0.088 A 
ATOM     37  C   UNL     1       6.257  -4.208  23.261  0.00  0.00    +0.098 A 
ENDBRANCH  24  29
BRANCH  28  38
ATOM     38  O   UNL     1       9.017  -0.157  25.491  0.00  0.00    -0.386 OA
ATOM     39  H   UNL     1       9.139   0.315  24.634  0.00  0.00    +0.210 HD
ENDBRANCH  28  38
ENDBRANCH  21  22
ENDBRANCH   1  21
TORSDOF 12
ENDMDL
MODEL 5
REMARK VINA RESULT:      -6.8      2.578      8.614
REMARK  Name = 
REMARK  16 active torsions:
REMARK  status: ('A' for Active; 'I' for Inactive)
REMARK    1  A    between atoms: C_1  and  C_2
REMARK    2  A    between atoms: C_2  and  C_3
REMARK    3  A    between atoms: C_2  and  O_4
REMARK    4  A    between atoms: O_4  and  C_5
REMARK    5  A    between atoms: C_5  and  C_7
REMARK    6  A    between atoms: C_7  and  C_8
REMARK    7  A    between atoms: C_7  and  N_9
REMARK    8  A    between atoms: N_9  and  P_10
REMARK    9  A    between atoms: P_10  and  O_12
REMARK   10  A    between atoms: P_10  and  O_30
REMARK   11  A    between atoms: O_12  and  C_13
REMARK   12  A    between atoms: C_13  and  C_14
REMARK   13  A    between atoms: C_15  and  O_29
REMARK   14  A    between atoms: C_16  and  C_27
REMARK   15  A    between atoms: C_17  and  N_19
REMARK   16  A    between atoms: O_30  and  C_31
REMARK                            x       y       z     vdW  Elec       q    Type
REMARK                         _______ _______ _______ _____ _____    ______ ____
ROOT
ATOM      1  O   UNL     1       8.424  -1.890  22.025  0.00  0.00    -0.284 OA
ENDROOT
BRANCH   1   2
ATOM      2  P   UNL     1       9.117  -1.107  23.302  0.00  0.00    +0.462 P 
ATOM      3  O   UNL     1      10.389  -1.988  23.227  0.00  0.00    -0.228 OA
BRANCH   2   4
ATOM      4  N   UNL     1       9.913   0.216  22.579  0.00  0.00    -0.199 NA
ATOM      5  H   UNL     1      10.498  -0.222  21.871  0.00  0.00    +0.135 HD
BRANCH   4   6
ATOM      6  C   UNL     1      10.770   1.055  23.456  0.00  0.00    +0.171 C 
ATOM      7  C   UNL     1      10.589   0.601  24.902  0.00  0.00    +0.036 C 
BRANCH   6   8
ATOM      8  C   UNL     1      10.467   2.557  23.310  0.00  0.00    +0.325 C 
ATOM      9  O   UNL     1      11.296   3.451  23.425  0.00  0.00    -0.249 OA
BRANCH   8  10
ATOM     10  O   UNL     1       9.134   2.761  23.091  0.00  0.00    -0.461 OA
BRANCH  10  12
ATOM     11  C   UNL     1       7.396   4.400  22.775  0.00  0.00    +0.052 C 
ATOM     12  C   UNL     1       8.566   3.962  23.650  0.00  0.00    +0.170 C 
ATOM     13  C   UNL     1       8.084   3.650  25.064  0.00  0.00    +0.052 C 
ENDBRANCH  10  12
ENDBRANCH   8  10
ENDBRANCH   6   8
ENDBRANCH   4   6
ENDBRANCH   2   4
BRANCH   2  14
ATOM     14  O   UNL     1       7.697  -0.123  23.386  0.00  0.00    -0.413 OA
BRANCH  14  15
ATOM     15  C   UNL     1       6.960  -0.128  24.544  0.00  0.00    +0.131 A 
ATOM     16  C   UNL     1       7.379  -1.021  25.531  0.00  0.00    +0.046 A 
ATOM     17  C   UNL     1       6.691  -1.099  26.742  0.00  0.00    +0.004 A 
ATOM     18  C   UNL     1       5.579  -0.288  26.965  0.00  0.00    +0.000 A 
ATOM     19  C   UNL     1       5.155   0.596  25.975  0.00  0.00    +0.004 A 
ATOM     20  C   UNL     1       5.843   0.678  24.763  0.00  0.00    +0.046 A 
ENDBRANCH  14  15
ENDBRANCH   2  14
ENDBRANCH   1   2
BRANCH   1  21
ATOM     21  C   UNL     1       8.064  -3.255  22.233  0.00  0.00    +0.206 C 
BRANCH  21  22
ATOM     22  C   UNL     1       6.881  -3.531  23.181  0.00  0.00    +0.179 C 
ATOM     23  O   UNL     1       7.068  -4.747  23.950  0.00  0.00    -0.345 OA
ATOM     24  C   UNL     1       5.754  -5.312  24.193  0.00  0.00    +0.263 C 
ATOM     25  C   UNL     1       4.698  -4.332  23.657  0.00  0.00    +0.182 C 
ATOM     26  C   UNL     1       4.119  -3.361  24.681  0.00  0.00    +0.055 C 
ATOM     27  F   UNL     1       3.648  -5.023  23.128  0.00  0.00    -0.235 F 
ATOM     28  C   UNL     1       5.477  -3.599  22.564  0.00  0.00    +0.187 C 
BRANCH  24  29
ATOM     29  N   UNL     1       5.596  -5.742  25.590  0.00  0.00    -0.271 N 
ATOM     30  C   UNL     1       4.822  -6.853  25.905  0.00  0.00    +0.331 A 
ATOM     31  O   UNL     1       4.177  -7.520  25.098  0.00  0.00    -0.246 OA
ATOM     32  N   UNL     1       4.844  -7.238  27.223  0.00  0.00    -0.275 N 
ATOM     33  H   UNL     1       4.347  -8.085  27.433  0.00  0.00    +0.173 HD
ATOM     34  C   UNL     1       5.746  -6.811  28.153  0.00  0.00    +0.254 A 
ATOM     35  O   UNL     1       5.945  -7.398  29.207  0.00  0.00    -0.268 OA
ATOM     36  C   UNL     1       6.508  -5.610  27.788  0.00  0.00    +0.088 A 
ATOM     37  C   UNL     1       6.406  -5.142  26.543  0.00  0.00    +0.098 A 
ENDBRANCH  24  29
BRANCH  28  38
ATOM     38  O   UNL     1       5.422  -4.286  21.318  0.00  0.00    -0.386 OA
ATOM     39  H   UNL     1       4.889  -3.752  20.683  0.00  0.00    +0.210 HD
ENDBRANCH  28  38
ENDBRANCH  21  22
ENDBRANCH   1  21
TORSDOF 12
ENDMDL
MODEL 6
REMARK VINA RESULT:      -6.7      2.686      4.695
REMARK  Name = 
REMARK  16 active torsions:
REMARK  status: ('A' for Active; 'I' for Inactive)
REMARK    1  A    between atoms: C_1  and  C_2
REMARK    2  A    between atoms: C_2  and  C_3
REMARK    3  A    between atoms: C_2  and  O_4
REMARK    4  A    between atoms: O_4  and  C_5
REMARK    5  A    between atoms: C_5  and  C_7
REMARK    6  A    between atoms: C_7  and  C_8
REMARK    7  A    between atoms: C_7  and  N_9
REMARK    8  A    between atoms: N_9  and  P_10
REMARK    9  A    between atoms: P_10  and  O_12
REMARK   10  A    between atoms: P_10  and  O_30
REMARK   11  A    between atoms: O_12  and  C_13
REMARK   12  A    between atoms: C_13  and  C_14
REMARK   13  A    between atoms: C_15  and  O_29
REMARK   14  A    between atoms: C_16  and  C_27
REMARK   15  A    between atoms: C_17  and  N_19
REMARK   16  A    between atoms: O_30  and  C_31
REMARK                            x       y       z     vdW  Elec       q    Type
REMARK                         _______ _______ _______ _____ _____    ______ ____
ROOT
ATOM      1  O   UNL     1       7.642  -1.385  24.306  0.00  0.00    -0.284 OA
ENDROOT
BRANCH   1   2
ATOM      2  P   UNL     1       9.070  -1.952  24.909  0.00  0.00    +0.462 P 
ATOM      3  O   UNL     1       8.407  -2.368  26.246  0.00  0.00    -0.228 OA
BRANCH   2   4
ATOM      4  N   UNL     1       9.127  -3.565  24.361  0.00  0.00    -0.199 NA
ATOM      5  H   UNL     1       8.724  -3.508  23.428  0.00  0.00    +0.135 HD
BRANCH   4   6
ATOM      6  C   UNL     1       8.373  -4.577  25.147  0.00  0.00    +0.171 C 
ATOM      7  C   UNL     1       9.305  -5.739  25.478  0.00  0.00    +0.036 C 
BRANCH   6   8
ATOM      8  C   UNL     1       7.116  -5.074  24.410  0.00  0.00    +0.325 C 
ATOM      9  O   UNL     1       6.114  -5.514  24.958  0.00  0.00    -0.249 OA
BRANCH   8  10
ATOM     10  O   UNL     1       7.293  -5.010  23.057  0.00  0.00    -0.461 OA
BRANCH  10  12
ATOM     11  C   UNL     1       6.005  -3.348  21.879  0.00  0.00    +0.052 C 
ATOM     12  C   UNL     1       6.106  -4.821  22.260  0.00  0.00    +0.170 C 
ATOM     13  C   UNL     1       6.228  -5.686  21.010  0.00  0.00    +0.052 C 
ENDBRANCH  10  12
ENDBRANCH   8  10
ENDBRANCH   6   8
ENDBRANCH   4   6
ENDBRANCH   2   4
BRANCH   2  14
ATOM     14  O   UNL     1       9.811  -1.487  23.417  0.00  0.00    -0.413 OA
BRANCH  14  15
ATOM     15  C   UNL     1       9.957  -0.151  23.143  0.00  0.00    +0.131 A 
ATOM     16  C   UNL     1      10.598   0.608  24.123  0.00  0.00    +0.046 A 
ATOM     17  C   UNL     1      10.789   1.977  23.935  0.00  0.00    +0.004 A 
ATOM     18  C   UNL     1      10.336   2.590  22.767  0.00  0.00    +0.000 A 
ATOM     19  C   UNL     1       9.688   1.834  21.793  0.00  0.00    +0.004 A 
ATOM     20  C   UNL     1       9.496   0.464  21.978  0.00  0.00    +0.046 A 
ENDBRANCH  14  15
ENDBRANCH   2  14
ENDBRANCH   1   2
BRANCH   1  21
ATOM     21  C   UNL     1       6.636  -1.046  25.259  0.00  0.00    +0.206 C 
BRANCH  21  22
ATOM     22  C   UNL     1       6.393   0.453  25.518  0.00  0.00    +0.179 C 
ATOM     23  O   UNL     1       7.220   1.295  24.676  0.00  0.00    -0.345 OA
ATOM     24  C   UNL     1       7.505   2.508  25.422  0.00  0.00    +0.263 C 
ATOM     25  C   UNL     1       6.711   2.464  26.738  0.00  0.00    +0.182 C 
ATOM     26  C   UNL     1       5.361   3.174  26.717  0.00  0.00    +0.055 C 
ATOM     27  F   UNL     1       7.442   3.031  27.741  0.00  0.00    -0.235 F 
ATOM     28  C   UNL     1       6.552   0.959  26.959  0.00  0.00    +0.187 C 
BRANCH  24  29
ATOM     29  N   UNL     1       7.332   3.709  24.595  0.00  0.00    -0.271 N 
ATOM     30  C   UNL     1       8.014   4.882  24.898  0.00  0.00    +0.331 A 
ATOM     31  O   UNL     1       8.748   5.043  25.872  0.00  0.00    -0.246 OA
ATOM     32  N   UNL     1       7.875   5.903  23.990  0.00  0.00    -0.275 N 
ATOM     33  H   UNL     1       8.430   6.720  24.172  0.00  0.00    +0.173 HD
ATOM     34  C   UNL     1       7.375   5.771  22.729  0.00  0.00    +0.254 A 
ATOM     35  O   UNL     1       7.559   6.601  21.849  0.00  0.00    -0.268 OA
ATOM     36  C   UNL     1       6.627   4.534  22.472  0.00  0.00    +0.088 A 
ATOM     37  C   UNL     1       6.644   3.573  23.397  0.00  0.00    +0.098 A 
ENDBRANCH  24  29
BRANCH  28  38
ATOM     38  O   UNL     1       7.664   0.402  27.652  0.00  0.00    -0.386 OA
ATOM     39  H   UNL     1       8.495   0.766  27.267  0.00  0.00    +0.210 HD
ENDBRANCH  28  38
ENDBRANCH  21  22
ENDBRANCH   1  21
TORSDOF 12
ENDMDL
MODEL 7
REMARK VINA RESULT:      -6.6      2.575      4.749
REMARK  Name = 
REMARK  16 active torsions:
REMARK  status: ('A' for Active; 'I' for Inactive)
REMARK    1  A    between atoms: C_1  and  C_2
REMARK    2  A    between atoms: C_2  and  C_3
REMARK    3  A    between atoms: C_2  and  O_4
REMARK    4  A    between atoms: O_4  and  C_5
REMARK    5  A    between atoms: C_5  and  C_7
REMARK    6  A    between atoms: C_7  and  C_8
REMARK    7  A    between atoms: C_7  and  N_9
REMARK    8  A    between atoms: N_9  and  P_10
REMARK    9  A    between atoms: P_10  and  O_12
REMARK   10  A    between atoms: P_10  and  O_30
REMARK   11  A    between atoms: O_12  and  C_13
REMARK   12  A    between atoms: C_13  and  C_14
REMARK   13  A    between atoms: C_15  and  O_29
REMARK   14  A    between atoms: C_16  and  C_27
REMARK   15  A    between atoms: C_17  and  N_19
REMARK   16  A    between atoms: O_30  and  C_31
REMARK                            x       y       z     vdW  Elec       q    Type
REMARK                         _______ _______ _______ _____ _____    ______ ____
ROOT
ATOM      1  O   UNL     1       7.540  -1.530  23.721  0.00  0.00    -0.284 OA
ENDROOT
BRANCH   1   2
ATOM      2  P   UNL     1       8.764  -2.636  23.684  0.00  0.00    +0.462 P 
ATOM      3  O   UNL     1       8.121  -3.471  24.819  0.00  0.00    -0.228 OA
BRANCH   2   4
ATOM      4  N   UNL     1       8.265  -3.749  22.494  0.00  0.00    -0.199 NA
ATOM      5  H   UNL     1       8.148  -3.169  21.666  0.00  0.00    +0.135 HD
BRANCH   4   6
ATOM      6  C   UNL     1       6.999  -4.488  22.743  0.00  0.00    +0.171 C 
ATOM      7  C   UNL     1       7.185  -5.941  22.316  0.00  0.00    +0.036 C 
BRANCH   6   8
ATOM      8  C   UNL     1       5.798  -3.853  22.021  0.00  0.00    +0.325 C 
ATOM      9  O   UNL     1       5.675  -3.778  20.804  0.00  0.00    -0.249 OA
BRANCH   8  10
ATOM     10  O   UNL     1       4.914  -3.331  22.922  0.00  0.00    -0.461 OA
BRANCH  10  12
ATOM     11  C   UNL     1       4.058  -3.352  25.175  0.00  0.00    +0.052 C 
ATOM     12  C   UNL     1       4.488  -4.205  23.986  0.00  0.00    +0.170 C 
ATOM     13  C   UNL     1       3.316  -5.039  23.479  0.00  0.00    +0.052 C 
ENDBRANCH  10  12
ENDBRANCH   8  10
ENDBRANCH   6   8
ENDBRANCH   4   6
ENDBRANCH   2   4
BRANCH   2  14
ATOM     14  O   UNL     1       9.482  -1.702  22.417  0.00  0.00    -0.413 OA
BRANCH  14  15
ATOM     15  C   UNL     1       9.865  -0.412  22.686  0.00  0.00    +0.131 A 
ATOM     16  C   UNL     1      10.523  -0.210  23.900  0.00  0.00    +0.046 A 
ATOM     17  C   UNL     1      10.948   1.068  24.261  0.00  0.00    +0.004 A 
ATOM     18  C   UNL     1      10.712   2.148  23.411  0.00  0.00    +0.000 A 
ATOM     19  C   UNL     1      10.047   1.947  22.203  0.00  0.00    +0.004 A 
ATOM     20  C   UNL     1       9.622   0.669  21.838  0.00  0.00    +0.046 A 
ENDBRANCH  14  15
ENDBRANCH   2  14
ENDBRANCH   1   2
BRANCH   1  21
ATOM     21  C   UNL     1       6.984  -1.235  25.002  0.00  0.00    +0.206 C 
BRANCH  21  22
ATOM     22  C   UNL     1       6.625   0.236  25.288  0.00  0.00    +0.179 C 
ATOM     23  O   UNL     1       7.432   1.158  24.511  0.00  0.00    -0.345 OA
ATOM     24  C   UNL     1       7.596   2.363  25.303  0.00  0.00    +0.263 C 
ATOM     25  C   UNL     1       6.744   2.227  26.575  0.00  0.00    +0.182 C 
ATOM     26  C   UNL     1       5.351   2.844  26.506  0.00  0.00    +0.055 C 
ATOM     27  F   UNL     1       7.385   2.811  27.628  0.00  0.00    -0.235 F 
ATOM     28  C   UNL     1       6.680   0.709  26.748  0.00  0.00    +0.187 C 
BRANCH  24  29
ATOM     29  N   UNL     1       7.380   3.575  24.499  0.00  0.00    -0.271 N 
ATOM     30  C   UNL     1       7.962   4.782  24.869  0.00  0.00    +0.331 A 
ATOM     31  O   UNL     1       8.633   4.964  25.883  0.00  0.00    -0.246 OA
ATOM     32  N   UNL     1       7.797   5.818  23.983  0.00  0.00    -0.275 N 
ATOM     33  H   UNL     1       8.284   6.666  24.215  0.00  0.00    +0.173 HD
ATOM     34  C   UNL     1       7.371   5.690  22.694  0.00  0.00    +0.254 A 
ATOM     35  O   UNL     1       7.540   6.557  21.847  0.00  0.00    -0.268 OA
ATOM     36  C   UNL     1       6.727   4.413  22.366  0.00  0.00    +0.088 A 
ATOM     37  C   UNL     1       6.765   3.428  23.265  0.00  0.00    +0.098 A 
ENDBRANCH  24  29
BRANCH  28  38
ATOM     38  O   UNL     1       7.793   0.207  27.481  0.00  0.00    -0.386 OA
ATOM     39  H   UNL     1       7.508  -0.590  27.985  0.00  0.00    +0.210 HD
ENDBRANCH  28  38
ENDBRANCH  21  22
ENDBRANCH   1  21
TORSDOF 12
ENDMDL
MODEL 8
REMARK VINA RESULT:      -6.5      2.916      9.385
REMARK  Name = 
REMARK  16 active torsions:
REMARK  status: ('A' for Active; 'I' for Inactive)
REMARK    1  A    between atoms: C_1  and  C_2
REMARK    2  A    between atoms: C_2  and  C_3
REMARK    3  A    between atoms: C_2  and  O_4
REMARK    4  A    between atoms: O_4  and  C_5
REMARK    5  A    between atoms: C_5  and  C_7
REMARK    6  A    between atoms: C_7  and  C_8
REMARK    7  A    between atoms: C_7  and  N_9
REMARK    8  A    between atoms: N_9  and  P_10
REMARK    9  A    between atoms: P_10  and  O_12
REMARK   10  A    between atoms: P_10  and  O_30
REMARK   11  A    between atoms: O_12  and  C_13
REMARK   12  A    between atoms: C_13  and  C_14
REMARK   13  A    between atoms: C_15  and  O_29
REMARK   14  A    between atoms: C_16  and  C_27
REMARK   15  A    between atoms: C_17  and  N_19
REMARK   16  A    between atoms: O_30  and  C_31
REMARK                            x       y       z     vdW  Elec       q    Type
REMARK                         _______ _______ _______ _____ _____    ______ ____
ROOT
ATOM      1  O   UNL     1       7.243   1.907  23.549  0.00  0.00    -0.284 OA
ENDROOT
BRANCH   1   2
ATOM      2  P   UNL     1       8.134   2.841  22.521  0.00  0.00    +0.462 P 
ATOM      3  O   UNL     1       7.812   1.922  21.316  0.00  0.00    -0.228 OA
BRANCH   2   4
ATOM      4  N   UNL     1       7.029   4.027  21.994  0.00  0.00    -0.199 NA
ATOM      5  H   UNL     1       7.618   4.842  21.841  0.00  0.00    +0.135 HD
BRANCH   4   6
ATOM      6  C   UNL     1       5.933   4.398  22.928  0.00  0.00    +0.171 C 
ATOM      7  C   UNL     1       4.626   3.798  22.417  0.00  0.00    +0.036 C 
BRANCH   6   8
ATOM      8  C   UNL     1       5.806   5.921  23.107  0.00  0.00    +0.325 C 
ATOM      9  O   UNL     1       5.369   6.689  22.259  0.00  0.00    -0.249 OA
BRANCH   8  10
ATOM     10  O   UNL     1       6.300   6.307  24.320  0.00  0.00    -0.461 OA
BRANCH  10  12
ATOM     11  C   UNL     1       6.910   5.565  26.531  0.00  0.00    +0.052 C 
ATOM     12  C   UNL     1       5.812   5.591  25.473  0.00  0.00    +0.170 C 
ATOM     13  C   UNL     1       4.581   6.321  26.002  0.00  0.00    +0.052 C 
ENDBRANCH  10  12
ENDBRANCH   8  10
ENDBRANCH   6   8
ENDBRANCH   4   6
ENDBRANCH   2   4
BRANCH   2  14
ATOM     14  O   UNL     1       8.493   3.866  23.867  0.00  0.00    -0.413 OA
BRANCH  14  15
ATOM     15  C   UNL     1       9.695   4.527  23.889  0.00  0.00    +0.131 A 
ATOM     16  C   UNL     1      10.784   3.834  23.359  0.00  0.00    +0.046 A 
ATOM     17  C   UNL     1      12.048   4.424  23.341  0.00  0.00    +0.004 A 
ATOM     18  C   UNL     1      12.225   5.708  23.855  0.00  0.00    +0.000 A 
ATOM     19  C   UNL     1      11.140   6.397  24.392  0.00  0.00    +0.004 A 
ATOM     20  C   UNL     1       9.873   5.809  24.411  0.00  0.00    +0.046 A 
ENDBRANCH  14  15
ENDBRANCH   2  14
ENDBRANCH   1   2
BRANCH   1  21
ATOM     21  C   UNL     1       7.947   0.893  24.264  0.00  0.00    +0.206 C 
BRANCH  21  22
ATOM     22  C   UNL     1       7.419  -0.549  24.136  0.00  0.00    +0.179 C 
ATOM     23  O   UNL     1       8.044  -1.447  25.089  0.00  0.00    -0.345 OA
ATOM     24  C   UNL     1       8.102  -2.760  24.472  0.00  0.00    +0.263 C 
ATOM     25  C   UNL     1       7.364  -2.697  23.125  0.00  0.00    +0.182 C 
ATOM     26  C   UNL     1       5.901  -3.126  23.154  0.00  0.00    +0.055 C 
ATOM     27  F   UNL     1       7.993  -3.491  22.212  0.00  0.00    -0.235 F 
ATOM     28  C   UNL     1       7.511  -1.219  22.757  0.00  0.00    +0.187 C 
BRANCH  24  29
ATOM     29  N   UNL     1       7.676  -3.816  25.401  0.00  0.00    -0.271 N 
ATOM     30  C   UNL     1       8.360  -5.025  25.460  0.00  0.00    +0.331 A 
ATOM     31  O   UNL     1       9.305  -5.341  24.740  0.00  0.00    -0.246 OA
ATOM     32  N   UNL     1       7.954  -5.890  26.447  0.00  0.00    -0.275 N 
ATOM     33  H   UNL     1       8.501  -6.728  26.537  0.00  0.00    +0.173 HD
ATOM     34  C   UNL     1       7.162  -5.560  27.506  0.00  0.00    +0.254 A 
ATOM     35  O   UNL     1       7.084  -6.242  28.518  0.00  0.00    -0.268 OA
ATOM     36  C   UNL     1       6.429  -4.294  27.375  0.00  0.00    +0.088 A 
ATOM     37  C   UNL     1       6.718  -3.491  26.351  0.00  0.00    +0.098 A 
ENDBRANCH  24  29
BRANCH  28  38
ATOM     38  O   UNL     1       8.727  -0.960  22.064  0.00  0.00    -0.386 OA
ATOM     39  H   UNL     1       9.460  -0.893  22.720  0.00  0.00    +0.210 HD
ENDBRANCH  28  38
ENDBRANCH  21  22
ENDBRANCH   1  21
TORSDOF 12
ENDMDL
MODEL 9
REMARK VINA RESULT:      -6.5      2.580      4.316
REMARK  Name = 
REMARK  16 active torsions:
REMARK  status: ('A' for Active; 'I' for Inactive)
REMARK    1  A    between atoms: C_1  and  C_2
REMARK    2  A    between atoms: C_2  and  C_3
REMARK    3  A    between atoms: C_2  and  O_4
REMARK    4  A    between atoms: O_4  and  C_5
REMARK    5  A    between atoms: C_5  and  C_7
REMARK    6  A    between atoms: C_7  and  C_8
REMARK    7  A    between atoms: C_7  and  N_9
REMARK    8  A    between atoms: N_9  and  P_10
REMARK    9  A    between atoms: P_10  and  O_12
REMARK   10  A    between atoms: P_10  and  O_30
REMARK   11  A    between atoms: O_12  and  C_13
REMARK   12  A    between atoms: C_13  and  C_14
REMARK   13  A    between atoms: C_15  and  O_29
REMARK   14  A    between atoms: C_16  and  C_27
REMARK   15  A    between atoms: C_17  and  N_19
REMARK   16  A    between atoms: O_30  and  C_31
REMARK                            x       y       z     vdW  Elec       q    Type
REMARK                         _______ _______ _______ _____ _____    ______ ____
ROOT
ATOM      1  O   UNL     1       8.733  -0.977  21.475  0.00  0.00    -0.284 OA
ENDROOT
BRANCH   1   2
ATOM      2  P   UNL     1       8.678  -2.075  22.706  0.00  0.00    +0.462 P 
ATOM      3  O   UNL     1      10.178  -1.868  23.035  0.00  0.00    -0.228 OA
BRANCH   2   4
ATOM      4  N   UNL     1       8.189  -1.150  24.051  0.00  0.00    -0.199 NA
ATOM      5  H   UNL     1       9.061  -0.752  24.390  0.00  0.00    +0.135 HD
BRANCH   4   6
ATOM      6  C   UNL     1       7.526  -1.873  25.168  0.00  0.00    +0.171 C 
ATOM      7  C   UNL     1       6.252  -1.126  25.551  0.00  0.00    +0.036 C 
BRANCH   6   8
ATOM      8  C   UNL     1       8.451  -2.041  26.386  0.00  0.00    +0.325 C 
ATOM      9  O   UNL     1       8.867  -1.121  27.080  0.00  0.00    -0.249 OA
BRANCH   8  10
ATOM     10  O   UNL     1       8.792  -3.353  26.555  0.00  0.00    -0.461 OA
BRANCH  10  12
ATOM     11  C   UNL     1       8.989  -5.256  25.088  0.00  0.00    +0.052 C 
ATOM     12  C   UNL     1       8.025  -4.320  25.809  0.00  0.00    +0.170 C 
ATOM     13  C   UNL     1       7.159  -5.102  26.791  0.00  0.00    +0.052 C 
ENDBRANCH  10  12
ENDBRANCH   8  10
ENDBRANCH   6   8
ENDBRANCH   4   6
ENDBRANCH   2   4
BRANCH   2  14
ATOM     14  O   UNL     1       7.004  -2.308  22.338  0.00  0.00    -0.413 OA
BRANCH  14  15
ATOM     15  C   UNL     1       6.481  -3.573  22.422  0.00  0.00    +0.131 A 
ATOM     16  C   UNL     1       5.213  -3.674  22.996  0.00  0.00    +0.046 A 
ATOM     17  C   UNL     1       4.601  -4.920  23.127  0.00  0.00    +0.004 A 
ATOM     18  C   UNL     1       5.258  -6.069  22.687  0.00  0.00    +0.000 A 
ATOM     19  C   UNL     1       6.528  -5.969  22.123  0.00  0.00    +0.004 A 
ATOM     20  C   UNL     1       7.143  -4.723  21.989  0.00  0.00    +0.046 A 
ENDBRANCH  14  15
ENDBRANCH   2  14
ENDBRANCH   1   2
BRANCH   1  21
ATOM     21  C   UNL     1       9.518   0.193  21.698  0.00  0.00    +0.206 C 
BRANCH  21  22
ATOM     22  C   UNL     1       8.878   1.318  22.534  0.00  0.00    +0.179 C 
ATOM     23  O   UNL     1       7.856   2.035  21.795  0.00  0.00    -0.345 OA
ATOM     24  C   UNL     1       7.857   3.406  22.274  0.00  0.00    +0.263 C 
ATOM     25  C   UNL     1       8.839   3.507  23.452  0.00  0.00    +0.182 C 
ATOM     26  C   UNL     1       8.224   3.359  24.839  0.00  0.00    +0.055 C 
ATOM     27  F   UNL     1       9.473   4.714  23.426  0.00  0.00    -0.235 F 
ATOM     28  C   UNL     1       9.815   2.370  23.144  0.00  0.00    +0.187 C 
BRANCH  24  29
ATOM     29  N   UNL     1       6.494   3.898  22.517  0.00  0.00    -0.271 N 
ATOM     30  C   UNL     1       6.193   5.247  22.375  0.00  0.00    +0.331 A 
ATOM     31  O   UNL     1       7.005   6.130  22.102  0.00  0.00    -0.246 OA
ATOM     32  N   UNL     1       4.866   5.577  22.504  0.00  0.00    -0.275 N 
ATOM     33  H   UNL     1       4.641   6.540  22.324  0.00  0.00    +0.173 HD
ATOM     34  C   UNL     1       3.829   4.693  22.481  0.00  0.00    +0.254 A 
ATOM     35  O   UNL     1       2.671   5.028  22.274  0.00  0.00    -0.268 OA
ATOM     36  C   UNL     1       4.196   3.285  22.677  0.00  0.00    +0.088 A 
ATOM     37  C   UNL     1       5.488   2.955  22.680  0.00  0.00    +0.098 A 
ENDBRANCH  24  29
BRANCH  28  38
ATOM     38  O   UNL     1      10.865   2.787  22.278  0.00  0.00    -0.386 OA
ATOM     39  H   UNL     1      10.591   2.626  21.345  0.00  0.00    +0.210 HD
ENDBRANCH  28  38
ENDBRANCH  21  22
ENDBRANCH   1  21
TORSDOF 12
ENDMDL
