MODEL 1
REMARK VINA RESULT:      -6.0      0.000      0.000
REMARK  Name = 
REMARK  4 active torsions:
REMARK  status: ('A' for Active; 'I' for Inactive)
REMARK    1  A    between atoms: C_1  and  C_2
REMARK    2  A    between atoms: N_4  and  C_10
REMARK    3  A    between atoms: C_14  and  C_17
REMARK    4  A    between atoms: C_17  and  O_18
REMARK                            x       y       z     vdW  Elec       q    Type
REMARK                         _______ _______ _______ _____ _____    ______ ____
ROOT
ATOM      1  C   UNL     1       6.742  -3.033  26.741  0.00  0.00    +0.019 C 
ATOM      2  C   UNL     1       6.556  -4.445  26.190  0.00  0.00    +0.090 C 
ATOM      3  C   UNL     1       7.460  -5.419  26.919  0.00  0.00    +0.225 C 
ATOM      4  O   UNL     1       7.213  -5.820  28.052  0.00  0.00    -0.275 OA
ATOM      5  N   UNL     1       8.632  -5.764  26.288  0.00  0.00    -0.240 N 
ATOM      6  H   UNL     1       9.288  -6.284  26.854  0.00  0.00    +0.159 HD
ATOM      7  C   UNL     1       9.180  -5.102  25.220  0.00  0.00    +0.311 C 
ATOM      8  O   UNL     1      10.390  -5.146  25.011  0.00  0.00    -0.252 OA
ATOM      9  N   UNL     1       8.296  -4.344  24.487  0.00  0.00    -0.255 N 
ATOM     10  C   UNL     1       6.872  -4.534  24.702  0.00  0.00    +0.124 C 
ENDROOT
BRANCH   9  11
ATOM     11  C   UNL     1       8.811  -3.234  23.726  0.00  0.00    +0.234 C 
ATOM     12  O   UNL     1       9.405  -2.271  24.617  0.00  0.00    -0.346 OA
ATOM     13  C   UNL     1       9.213  -0.974  24.003  0.00  0.00    +0.169 C 
ATOM     14  C   UNL     1       7.994  -1.164  23.163  0.00  0.00    +0.006 C 
ATOM     15  C   UNL     1       7.752  -2.470  23.024  0.00  0.00    +0.022 C 
BRANCH  13  16
ATOM     16  C   UNL     1       9.105   0.106  25.086  0.00  0.00    +0.191 C 
BRANCH  16  17
ATOM     17  O   UNL     1      10.365   0.714  25.374  0.00  0.00    -0.392 OA
ATOM     18  H   UNL     1      10.307   1.618  25.017  0.00  0.00    +0.210 HD
ENDBRANCH  16  17
ENDBRANCH  13  16
ENDBRANCH   9  11
TORSDOF 3
ENDMDL
MODEL 2
REMARK VINA RESULT:      -5.7      4.830      7.177
REMARK  Name = 
REMARK  4 active torsions:
REMARK  status: ('A' for Active; 'I' for Inactive)
REMARK    1  A    between atoms: C_1  and  C_2
REMARK    2  A    between atoms: N_4  and  C_10
REMARK    3  A    between atoms: C_14  and  C_17
REMARK    4  A    between atoms: C_17  and  O_18
REMARK                            x       y       z     vdW  Elec       q    Type
REMARK                         _______ _______ _______ _____ _____    ______ ____
ROOT
ATOM      1  C   UNL     1       7.273   1.820  22.374  0.00  0.00    +0.019 C 
ATOM      2  C   UNL     1       7.339   2.905  23.447  0.00  0.00    +0.090 C 
ATOM      3  C   UNL     1       7.930   4.177  22.875  0.00  0.00    +0.225 C 
ATOM      4  O   UNL     1       7.290   4.927  22.145  0.00  0.00    -0.275 OA
ATOM      5  N   UNL     1       9.261   4.410  23.133  0.00  0.00    -0.240 N 
ATOM      6  H   UNL     1       9.672   5.173  22.616  0.00  0.00    +0.159 HD
ATOM      7  C   UNL     1      10.150   3.478  23.603  0.00  0.00    +0.311 C 
ATOM      8  O   UNL     1      11.352   3.589  23.373  0.00  0.00    -0.252 OA
ATOM      9  N   UNL     1       9.583   2.407  24.254  0.00  0.00    -0.255 N 
ATOM     10  C   UNL     1       8.186   2.489  24.642  0.00  0.00    +0.124 C 
ENDROOT
BRANCH   9  11
ATOM     11  C   UNL     1      10.317   1.167  24.302  0.00  0.00    +0.234 C 
ATOM     12  O   UNL     1      10.305   0.547  23.002  0.00  0.00    -0.346 OA
ATOM     13  C   UNL     1      10.341  -0.882  23.232  0.00  0.00    +0.169 C 
ATOM     14  C   UNL     1       9.725  -1.033  24.583  0.00  0.00    +0.006 C 
ATOM     15  C   UNL     1       9.692   0.157  25.190  0.00  0.00    +0.022 C 
BRANCH  13  16
ATOM     16  C   UNL     1       9.619  -1.613  22.093  0.00  0.00    +0.191 C 
BRANCH  16  17
ATOM     17  O   UNL     1       9.534  -0.821  20.908  0.00  0.00    -0.392 OA
ATOM     18  H   UNL     1       8.677  -0.361  20.962  0.00  0.00    +0.210 HD
ENDBRANCH  16  17
ENDBRANCH  13  16
ENDBRANCH   9  11
TORSDOF 3
ENDMDL
MODEL 3
REMARK VINA RESULT:      -5.7      1.434      1.697
REMARK  Name = 
REMARK  4 active torsions:
REMARK  status: ('A' for Active; 'I' for Inactive)
REMARK    1  A    between atoms: C_1  and  C_2
REMARK    2  A    between atoms: N_4  and  C_10
REMARK    3  A    between atoms: C_14  and  C_17
REMARK    4  A    between atoms: C_17  and  O_18
REMARK                            x       y       z     vdW  Elec       q    Type
REMARK                         _______ _______ _______ _____ _____    ______ ____
ROOT
ATOM      1  C   UNL     1       5.967  -3.627  26.548  0.00  0.00    +0.019 C 
ATOM      2  C   UNL     1       6.189  -5.095  26.190  0.00  0.00    +0.090 C 
ATOM      3  C   UNL     1       7.344  -5.664  26.989  0.00  0.00    +0.225 C 
ATOM      4  O   UNL     1       7.237  -5.961  28.174  0.00  0.00    -0.275 OA
ATOM      5  N   UNL     1       8.557  -5.744  26.347  0.00  0.00    -0.240 N 
ATOM      6  H   UNL     1       9.342  -5.975  26.939  0.00  0.00    +0.159 HD
ATOM      7  C   UNL     1       8.878  -5.105  25.178  0.00  0.00    +0.311 C 
ATOM      8  O   UNL     1      10.046  -4.832  24.914  0.00  0.00    -0.252 OA
ATOM      9  N   UNL     1       7.803  -4.736  24.401  0.00  0.00    -0.255 N 
ATOM     10  C   UNL     1       6.498  -5.291  24.712  0.00  0.00    +0.124 C 
ENDROOT
BRANCH   9  11
ATOM     11  C   UNL     1       7.967  -3.639  23.481  0.00  0.00    +0.234 C 
ATOM     12  O   UNL     1       8.091  -2.406  24.216  0.00  0.00    -0.346 OA
ATOM     13  C   UNL     1       7.516  -1.374  23.379  0.00  0.00    +0.169 C 
ATOM     14  C   UNL     1       6.534  -2.115  22.536  0.00  0.00    +0.006 C 
ATOM     15  C   UNL     1       6.783  -3.426  22.615  0.00  0.00    +0.022 C 
BRANCH  13  16
ATOM     16  C   UNL     1       6.927  -0.260  24.253  0.00  0.00    +0.191 C 
BRANCH  16  17
ATOM     17  O   UNL     1       5.511  -0.376  24.399  0.00  0.00    -0.392 OA
ATOM     18  H   UNL     1       5.374  -1.005  25.129  0.00  0.00    +0.210 HD
ENDBRANCH  16  17
ENDBRANCH  13  16
ENDBRANCH   9  11
TORSDOF 3
ENDMDL
MODEL 4
REMARK VINA RESULT:      -5.7      2.031      2.657
REMARK  Name = 
REMARK  4 active torsions:
REMARK  status: ('A' for Active; 'I' for Inactive)
REMARK    1  A    between atoms: C_1  and  C_2
REMARK    2  A    between atoms: N_4  and  C_10
REMARK    3  A    between atoms: C_14  and  C_17
REMARK    4  A    between atoms: C_17  and  O_18
REMARK                            x       y       z     vdW  Elec       q    Type
REMARK                         _______ _______ _______ _____ _____    ______ ____
ROOT
ATOM      1  C   UNL     1       6.488  -0.852  24.150  0.00  0.00    +0.019 C 
ATOM      2  C   UNL     1       6.325  -2.204  23.459  0.00  0.00    +0.090 C 
ATOM      3  C   UNL     1       6.466  -3.330  24.464  0.00  0.00    +0.225 C 
ATOM      4  O   UNL     1       5.575  -3.618  25.255  0.00  0.00    -0.275 OA
ATOM      5  N   UNL     1       7.688  -3.960  24.517  0.00  0.00    -0.240 N 
ATOM      6  H   UNL     1       7.811  -4.593  25.293  0.00  0.00    +0.159 HD
ATOM      7  C   UNL     1       8.847  -3.484  23.962  0.00  0.00    +0.311 C 
ATOM      8  O   UNL     1       9.940  -3.814  24.418  0.00  0.00    -0.252 OA
ATOM      9  N   UNL     1       8.678  -2.574  22.945  0.00  0.00    -0.255 N 
ATOM     10  C   UNL     1       7.357  -2.422  22.360  0.00  0.00    +0.124 C 
ENDROOT
BRANCH   9  11
ATOM     11  C   UNL     1       9.744  -1.642  22.673  0.00  0.00    +0.234 C 
ATOM     12  O   UNL     1       9.944  -0.788  23.816  0.00  0.00    -0.346 OA
ATOM     13  C   UNL     1      10.394   0.486  23.298  0.00  0.00    +0.169 C 
ATOM     14  C   UNL     1       9.822   0.525  21.920  0.00  0.00    +0.006 C 
ATOM     15  C   UNL     1       9.426  -0.702  21.571  0.00  0.00    +0.022 C 
BRANCH  13  16
ATOM     16  C   UNL     1       9.945   1.618  24.230  0.00  0.00    +0.191 C 
BRANCH  16  17
ATOM     17  O   UNL     1       9.320   1.127  25.417  0.00  0.00    -0.392 OA
ATOM     18  H   UNL     1      10.040   1.001  26.059  0.00  0.00    +0.210 HD
ENDBRANCH  16  17
ENDBRANCH  13  16
ENDBRANCH   9  11
TORSDOF 3
ENDMDL
MODEL 5
REMARK VINA RESULT:      -5.7      2.919      3.664
REMARK  Name = 
REMARK  4 active torsions:
REMARK  status: ('A' for Active; 'I' for Inactive)
REMARK    1  A    between atoms: C_1  and  C_2
REMARK    2  A    between atoms: N_4  and  C_10
REMARK    3  A    between atoms: C_14  and  C_17
REMARK    4  A    between atoms: C_17  and  O_18
REMARK                            x       y       z     vdW  Elec       q    Type
REMARK                         _______ _______ _______ _____ _____    ______ ____
ROOT
ATOM      1  C   UNL     1       6.142  -4.988  25.321  0.00  0.00    +0.019 C 
ATOM      2  C   UNL     1       4.820  -5.099  24.564  0.00  0.00    +0.090 C 
ATOM      3  C   UNL     1       4.726  -6.437  23.859  0.00  0.00    +0.225 C 
ATOM      4  O   UNL     1       4.478  -7.478  24.459  0.00  0.00    -0.275 OA
ATOM      5  N   UNL     1       5.029  -6.450  22.518  0.00  0.00    -0.240 N 
ATOM      6  H   UNL     1       5.114  -7.368  22.106  0.00  0.00    +0.159 HD
ATOM      7  C   UNL     1       5.671  -5.446  21.842  0.00  0.00    +0.311 C 
ATOM      8  O   UNL     1       6.312  -5.688  20.822  0.00  0.00    -0.252 OA
ATOM      9  N   UNL     1       5.606  -4.207  22.437  0.00  0.00    -0.255 N 
ATOM     10  C   UNL     1       4.657  -4.004  23.518  0.00  0.00    +0.124 C 
ENDROOT
BRANCH   9  11
ATOM     11  C   UNL     1       6.639  -3.247  22.139  0.00  0.00    +0.234 C 
ATOM     12  O   UNL     1       7.901  -3.718  22.651  0.00  0.00    -0.346 OA
ATOM     13  C   UNL     1       8.660  -2.539  23.011  0.00  0.00    +0.169 C 
ATOM     14  C   UNL     1       7.607  -1.523  23.304  0.00  0.00    +0.006 C 
ATOM     15  C   UNL     1       6.437  -1.945  22.818  0.00  0.00    +0.022 C 
BRANCH  13  16
ATOM     16  C   UNL     1       9.607  -2.862  24.173  0.00  0.00    +0.191 C 
BRANCH  16  17
ATOM     17  O   UNL     1       9.654  -4.259  24.463  0.00  0.00    -0.392 OA
ATOM     18  H   UNL     1       9.542  -4.708  23.606  0.00  0.00    +0.210 HD
ENDBRANCH  16  17
ENDBRANCH  13  16
ENDBRANCH   9  11
TORSDOF 3
ENDMDL
MODEL 6
REMARK VINA RESULT:      -5.5      2.860      4.276
REMARK  Name = 
REMARK  4 active torsions:
REMARK  status: ('A' for Active; 'I' for Inactive)
REMARK    1  A    between atoms: C_1  and  C_2
REMARK    2  A    between atoms: N_4  and  C_10
REMARK    3  A    between atoms: C_14  and  C_17
REMARK    4  A    between atoms: C_17  and  O_18
REMARK                            x       y       z     vdW  Elec       q    Type
REMARK                         _______ _______ _______ _____ _____    ______ ____
ROOT
ATOM      1  C   UNL     1       8.921  -1.344  21.719  0.00  0.00    +0.019 C 
ATOM      2  C   UNL     1       9.149  -2.539  22.641  0.00  0.00    +0.090 C 
ATOM      3  C   UNL     1       7.826  -3.162  23.035  0.00  0.00    +0.225 C 
ATOM      4  O   UNL     1       7.178  -3.867  22.268  0.00  0.00    -0.275 OA
ATOM      5  N   UNL     1       7.327  -2.821  24.271  0.00  0.00    -0.240 N 
ATOM      6  H   UNL     1       6.378  -3.117  24.448  0.00  0.00    +0.159 HD
ATOM      7  C   UNL     1       7.763  -1.771  25.037  0.00  0.00    +0.311 C 
ATOM      8  O   UNL     1       7.016  -1.243  25.857  0.00  0.00    -0.252 OA
ATOM      9  N   UNL     1       9.034  -1.329  24.752  0.00  0.00    -0.255 N 
ATOM     10  C   UNL     1       9.887  -2.156  23.917  0.00  0.00    +0.124 C 
ENDROOT
BRANCH   9  11
ATOM     11  C   UNL     1       9.377   0.032  25.081  0.00  0.00    +0.234 C 
ATOM     12  O   UNL     1       8.598   0.936  24.274  0.00  0.00    -0.346 OA
ATOM     13  C   UNL     1       9.422   2.108  24.066  0.00  0.00    +0.169 C 
ATOM     14  C   UNL     1      10.813   1.582  24.186  0.00  0.00    +0.006 C 
ATOM     15  C   UNL     1      10.782   0.373  24.752  0.00  0.00    +0.022 C 
BRANCH  13  16
ATOM     16  C   UNL     1       9.076   2.757  22.720  0.00  0.00    +0.191 C 
BRANCH  16  17
ATOM     17  O   UNL     1       9.814   2.190  21.638  0.00  0.00    -0.392 OA
ATOM     18  H   UNL     1      10.025   1.280  21.913  0.00  0.00    +0.210 HD
ENDBRANCH  16  17
ENDBRANCH  13  16
ENDBRANCH   9  11
TORSDOF 3
ENDMDL
MODEL 7
REMARK VINA RESULT:      -5.3      2.121      5.090
REMARK  Name = 
REMARK  4 active torsions:
REMARK  status: ('A' for Active; 'I' for Inactive)
REMARK    1  A    between atoms: C_1  and  C_2
REMARK    2  A    between atoms: N_4  and  C_10
REMARK    3  A    between atoms: C_14  and  C_17
REMARK    4  A    between atoms: C_17  and  O_18
REMARK                            x       y       z     vdW  Elec       q    Type
REMARK                         _______ _______ _______ _____ _____    ______ ____
ROOT
ATOM      1  C   UNL     1      10.212  -1.880  23.183  0.00  0.00    +0.019 C 
ATOM      2  C   UNL     1       9.514  -0.532  23.357  0.00  0.00    +0.090 C 
ATOM      3  C   UNL     1      10.261   0.323  24.360  0.00  0.00    +0.225 C 
ATOM      4  O   UNL     1      11.311   0.894  24.082  0.00  0.00    -0.275 OA
ATOM      5  N   UNL     1       9.758   0.355  25.640  0.00  0.00    -0.240 N 
ATOM      6  H   UNL     1      10.354   0.798  26.324  0.00  0.00    +0.159 HD
ATOM      7  C   UNL     1       8.835  -0.521  26.149  0.00  0.00    +0.311 C 
ATOM      8  O   UNL     1       8.781  -0.740  27.357  0.00  0.00    -0.252 OA
ATOM      9  N   UNL     1       8.067  -1.170  25.210  0.00  0.00    -0.255 N 
ATOM     10  C   UNL     1       8.078  -0.680  23.843  0.00  0.00    +0.124 C 
ENDROOT
BRANCH   9  11
ATOM     11  C   UNL     1       7.484  -2.441  25.561  0.00  0.00    +0.234 C 
ATOM     12  O   UNL     1       8.529  -3.401  25.807  0.00  0.00    -0.346 OA
ATOM     13  C   UNL     1       7.999  -4.689  25.413  0.00  0.00    +0.169 C 
ATOM     14  C   UNL     1       6.973  -4.345  24.386  0.00  0.00    +0.006 C 
ATOM     15  C   UNL     1       6.694  -3.041  24.459  0.00  0.00    +0.022 C 
BRANCH  13  16
ATOM     16  C   UNL     1       9.137  -5.597  24.930  0.00  0.00    +0.191 C 
BRANCH  16  17
ATOM     17  O   UNL     1      10.254  -5.587  25.819  0.00  0.00    -0.392 OA
ATOM     18  H   UNL     1      10.962  -5.117  25.345  0.00  0.00    +0.210 HD
ENDBRANCH  16  17
ENDBRANCH  13  16
ENDBRANCH   9  11
TORSDOF 3
ENDMDL
MODEL 8
REMARK VINA RESULT:      -5.3      2.650      3.693
REMARK  Name = 
REMARK  4 active torsions:
REMARK  status: ('A' for Active; 'I' for Inactive)
REMARK    1  A    between atoms: C_1  and  C_2
REMARK    2  A    between atoms: N_4  and  C_10
REMARK    3  A    between atoms: C_14  and  C_17
REMARK    4  A    between atoms: C_17  and  O_18
REMARK                            x       y       z     vdW  Elec       q    Type
REMARK                         _______ _______ _______ _____ _____    ______ ____
ROOT
ATOM      1  C   UNL     1       8.151   0.173  25.528  0.00  0.00    +0.019 C 
ATOM      2  C   UNL     1       7.573  -1.132  24.984  0.00  0.00    +0.090 C 
ATOM      3  C   UNL     1       8.465  -2.299  25.356  0.00  0.00    +0.225 C 
ATOM      4  O   UNL     1       8.489  -2.772  26.488  0.00  0.00    -0.275 OA
ATOM      5  N   UNL     1       9.329  -2.750  24.385  0.00  0.00    -0.240 N 
ATOM      6  H   UNL     1      10.019  -3.417  24.699  0.00  0.00    +0.159 HD
ATOM      7  C   UNL     1       9.652  -2.072  23.238  0.00  0.00    +0.311 C 
ATOM      8  O   UNL     1      10.725  -2.276  22.673  0.00  0.00    -0.252 OA
ATOM      9  N   UNL     1       8.740  -1.120  22.845  0.00  0.00    -0.255 N 
ATOM     10  C   UNL     1       7.428  -1.115  23.468  0.00  0.00    +0.124 C 
ENDROOT
BRANCH   9  11
ATOM     11  C   UNL     1       9.199  -0.027  22.025  0.00  0.00    +0.234 C 
ATOM     12  O   UNL     1      10.261   0.673  22.702  0.00  0.00    -0.346 OA
ATOM     13  C   UNL     1      10.165   2.057  22.286  0.00  0.00    +0.169 C 
ATOM     14  C   UNL     1       8.723   2.216  21.935  0.00  0.00    +0.006 C 
ATOM     15  C   UNL     1       8.163   1.010  21.807  0.00  0.00    +0.022 C 
BRANCH  13  16
ATOM     16  C   UNL     1      10.677   2.974  23.403  0.00  0.00    +0.191 C 
BRANCH  16  17
ATOM     17  O   UNL     1      10.152   4.298  23.302  0.00  0.00    -0.392 OA
ATOM     18  H   UNL     1       9.333   4.216  22.781  0.00  0.00    +0.210 HD
ENDBRANCH  16  17
ENDBRANCH  13  16
ENDBRANCH   9  11
TORSDOF 3
ENDMDL
MODEL 9
REMARK VINA RESULT:      -5.2      1.941      2.501
REMARK  Name = 
REMARK  4 active torsions:
REMARK  status: ('A' for Active; 'I' for Inactive)
REMARK    1  A    between atoms: C_1  and  C_2
REMARK    2  A    between atoms: N_4  and  C_10
REMARK    3  A    between atoms: C_14  and  C_17
REMARK    4  A    between atoms: C_17  and  O_18
REMARK                            x       y       z     vdW  Elec       q    Type
REMARK                         _______ _______ _______ _____ _____    ______ ____
ROOT
ATOM      1  C   UNL     1       8.445  -3.544  26.533  0.00  0.00    +0.019 C 
ATOM      2  C   UNL     1       7.022  -3.870  26.982  0.00  0.00    +0.090 C 
ATOM      3  C   UNL     1       6.822  -5.370  27.059  0.00  0.00    +0.225 C 
ATOM      4  O   UNL     1       7.275  -6.045  27.978  0.00  0.00    -0.275 OA
ATOM      5  N   UNL     1       6.188  -5.963  25.993  0.00  0.00    -0.240 N 
ATOM      6  H   UNL     1       6.206  -6.973  25.990  0.00  0.00    +0.159 HD
ATOM      7  C   UNL     1       5.983  -5.379  24.770  0.00  0.00    +0.311 C 
ATOM      8  O   UNL     1       5.856  -6.070  23.761  0.00  0.00    -0.252 OA
ATOM      9  N   UNL     1       6.020  -4.004  24.765  0.00  0.00    -0.255 N 
ATOM     10  C   UNL     1       5.971  -3.303  26.036  0.00  0.00    +0.124 C 
ENDROOT
BRANCH   9  11
ATOM     11  C   UNL     1       6.353  -3.330  23.535  0.00  0.00    +0.234 C 
ATOM     12  O   UNL     1       7.764  -3.462  23.278  0.00  0.00    -0.346 OA
ATOM     13  C   UNL     1       8.163  -2.262  22.572  0.00  0.00    +0.169 C 
ATOM     14  C   UNL     1       7.165  -1.247  23.020  0.00  0.00    +0.006 C 
ATOM     15  C   UNL     1       6.132  -1.866  23.596  0.00  0.00    +0.022 C 
BRANCH  13  16
ATOM     16  C   UNL     1       9.627  -1.932  22.888  0.00  0.00    +0.191 C 
BRANCH  16  17
ATOM     17  O   UNL     1      10.245  -2.929  23.702  0.00  0.00    -0.392 OA
ATOM     18  H   UNL     1      10.929  -3.337  23.142  0.00  0.00    +0.210 HD
ENDBRANCH  16  17
ENDBRANCH  13  16
ENDBRANCH   9  11
TORSDOF 3
ENDMDL
