MODEL 1
REMARK VINA RESULT:      -6.4      0.000      0.000
REMARK  Name = 
REMARK  13 active torsions:
REMARK  status: ('A' for Active; 'I' for Inactive)
REMARK    1  A    between atoms: C_1  and  C_2
REMARK    2  A    between atoms: C_2  and  C_3
REMARK    3  A    between atoms: C_2  and  C_4
REMARK    4  A    between atoms: C_4  and  C_6
REMARK    5  A    between atoms: C_4  and  N_27
REMARK    6  A    between atoms: C_6  and  O_8
REMARK    7  A    between atoms: O_8  and  C_9
REMARK    8  A    between atoms: C_9  and  C_10
REMARK    9  A    between atoms: C_10  and  C_12
REMARK   10  A    between atoms: C_10  and  O_14
REMARK   11  A    between atoms: C_12  and  O_13
REMARK   12  A    between atoms: O_14  and  C_15
REMARK   13  A    between atoms: C_15  and  N_16
REMARK                            x       y       z     vdW  Elec       q    Type
REMARK                         _______ _______ _______ _____ _____    ______ ____
ROOT
ATOM      1  O   UNL     1       7.857  -1.829  22.568  0.00  0.00    -0.350 OA
ENDROOT
BRANCH   1   2
ATOM      2  C   UNL     1       9.127  -1.560  21.938  0.00  0.00    +0.183 C 
BRANCH   2   3
ATOM      3  C   UNL     1       9.243  -0.107  21.447  0.00  0.00    +0.266 C 
BRANCH   3   4
ATOM      4  O   UNL     1       8.803   0.797  22.481  0.00  0.00    -0.461 OA
BRANCH   4   5
ATOM      5  C   UNL     1       9.653   1.814  22.811  0.00  0.00    +0.324 C 
ATOM      6  O   UNL     1      10.524   2.255  22.075  0.00  0.00    -0.249 OA
BRANCH   5   7
ATOM      7  C   UNL     1       9.371   2.344  24.232  0.00  0.00    +0.163 C 
BRANCH   7   9
ATOM      8  C   UNL     1       8.043   4.312  23.295  0.00  0.00    +0.009 C 
ATOM      9  C   UNL     1       8.051   3.147  24.292  0.00  0.00    +0.010 C 
ATOM     10  C   UNL     1       7.797   3.708  25.699  0.00  0.00    +0.009 C 
ENDBRANCH   7   9
BRANCH   7  11
ATOM     11  N   UNL     1       9.349   1.224  25.206  0.00  0.00    -0.318 NA
ATOM     12  H   UNL     1       8.782   0.468  24.817  0.00  0.00    +0.119 HD
ATOM     13  H   UNL     1      10.289   0.841  25.301  0.00  0.00    +0.119 HD
ENDBRANCH   7  11
ENDBRANCH   5   7
ENDBRANCH   4   5
ENDBRANCH   3   4
ENDBRANCH   2   3
BRANCH   2  14
ATOM     14  C   UNL     1      10.221  -1.854  22.979  0.00  0.00    +0.190 C 
BRANCH  14  15
ATOM     15  O   UNL     1       9.742  -1.570  24.292  0.00  0.00    -0.392 OA
ATOM     16  H   UNL     1      10.277  -2.114  24.900  0.00  0.00    +0.210 HD
ENDBRANCH  14  15
ENDBRANCH   2  14
ENDBRANCH   1   2
BRANCH   1  17
ATOM     17  C   UNL     1       7.285  -3.086  22.186  0.00  0.00    +0.288 C 
BRANCH  17  18
ATOM     18  N   UNL     1       6.728  -3.734  23.359  0.00  0.00    -0.291 N 
ATOM     19  C   UNL     1       7.430  -4.393  24.331  0.00  0.00    +0.171 A 
ATOM     20  N   UNL     1       8.776  -4.559  24.400  0.00  0.00    -0.196 NA
ATOM     21  C   UNL     1       9.153  -5.254  25.443  0.00  0.00    +0.195 A 
ATOM     22  N   UNL     1      10.467  -5.529  25.642  0.00  0.00    -0.329 N 
ATOM     23  H   UNL     1      10.788  -5.652  26.593  0.00  0.00    +0.145 HD
ATOM     24  H   UNL     1      11.090  -4.969  25.071  0.00  0.00    +0.145 HD
ATOM     25  N   UNL     1       8.285  -5.751  26.395  0.00  0.00    -0.293 N 
ATOM     26  H   UNL     1       8.630  -6.300  27.163  0.00  0.00    +0.172 HD
ATOM     27  C   UNL     1       6.904  -5.616  26.352  0.00  0.00    +0.280 A 
ATOM     28  O   UNL     1       6.179  -6.100  27.214  0.00  0.00    -0.265 OA
ATOM     29  C   UNL     1       6.467  -4.866  25.196  0.00  0.00    +0.172 A 
ATOM     30  N   UNL     1       5.203  -4.555  24.766  0.00  0.00    -0.229 NA
ATOM     31  C   UNL     1       5.395  -3.888  23.645  0.00  0.00    +0.203 A 
ENDBRANCH  17  18
ENDBRANCH   1  17
TORSDOF 11
ENDMDL
MODEL 2
REMARK VINA RESULT:      -6.4      2.116      2.992
REMARK  Name = 
REMARK  13 active torsions:
REMARK  status: ('A' for Active; 'I' for Inactive)
REMARK    1  A    between atoms: C_1  and  C_2
REMARK    2  A    between atoms: C_2  and  C_3
REMARK    3  A    between atoms: C_2  and  C_4
REMARK    4  A    between atoms: C_4  and  C_6
REMARK    5  A    between atoms: C_4  and  N_27
REMARK    6  A    between atoms: C_6  and  O_8
REMARK    7  A    between atoms: O_8  and  C_9
REMARK    8  A    between atoms: C_9  and  C_10
REMARK    9  A    between atoms: C_10  and  C_12
REMARK   10  A    between atoms: C_10  and  O_14
REMARK   11  A    between atoms: C_12  and  O_13
REMARK   12  A    between atoms: O_14  and  C_15
REMARK   13  A    between atoms: C_15  and  N_16
REMARK                            x       y       z     vdW  Elec       q    Type
REMARK                         _______ _______ _______ _____ _____    ______ ____
ROOT
ATOM      1  O   UNL     1       5.191  -2.857  23.527  0.00  0.00    -0.350 OA
ENDROOT
BRANCH   1   2
ATOM      2  C   UNL     1       6.124  -2.620  22.452  0.00  0.00    +0.183 C 
BRANCH   2   3
ATOM      3  C   UNL     1       7.347  -1.804  22.906  0.00  0.00    +0.266 C 
BRANCH   3   4
ATOM      4  O   UNL     1       8.412  -1.939  21.943  0.00  0.00    -0.461 OA
BRANCH   4   5
ATOM      5  C   UNL     1       9.587  -1.307  22.234  0.00  0.00    +0.324 C 
ATOM      6  O   UNL     1      10.685  -1.844  22.218  0.00  0.00    -0.249 OA
BRANCH   5   7
ATOM      7  C   UNL     1       9.357   0.179  22.580  0.00  0.00    +0.163 C 
BRANCH   7   9
ATOM      8  C   UNL     1      10.183   0.207  24.995  0.00  0.00    +0.009 C 
ATOM      9  C   UNL     1      10.423   0.709  23.566  0.00  0.00    +0.010 C 
ATOM     10  C   UNL     1      10.455   2.245  23.589  0.00  0.00    +0.009 C 
ENDBRANCH   7   9
BRANCH   7  11
ATOM     11  N   UNL     1       9.332   1.000  21.343  0.00  0.00    -0.318 NA
ATOM     12  H   UNL     1      10.201   1.537  21.294  0.00  0.00    +0.119 HD
ATOM     13  H   UNL     1       9.345   0.384  20.530  0.00  0.00    +0.119 HD
ENDBRANCH   7  11
ENDBRANCH   5   7
ENDBRANCH   4   5
ENDBRANCH   3   4
ENDBRANCH   2   3
BRANCH   2  14
ATOM     14  C   UNL     1       6.573  -3.995  21.928  0.00  0.00    +0.190 C 
BRANCH  14  15
ATOM     15  O   UNL     1       7.632  -4.509  22.733  0.00  0.00    -0.392 OA
ATOM     16  H   UNL     1       7.716  -3.903  23.492  0.00  0.00    +0.210 HD
ENDBRANCH  14  15
ENDBRANCH   2  14
ENDBRANCH   1   2
BRANCH   1  17
ATOM     17  C   UNL     1       5.558  -2.216  24.754  0.00  0.00    +0.288 C 
BRANCH  17  18
ATOM     18  N   UNL     1       5.528  -3.189  25.829  0.00  0.00    -0.291 N 
ATOM     19  C   UNL     1       6.522  -4.071  26.152  0.00  0.00    +0.171 A 
ATOM     20  N   UNL     1       7.730  -4.203  25.546  0.00  0.00    -0.196 NA
ATOM     21  C   UNL     1       8.465  -5.152  26.068  0.00  0.00    +0.195 A 
ATOM     22  N   UNL     1       9.691  -5.425  25.558  0.00  0.00    -0.329 N 
ATOM     23  H   UNL     1      10.393  -5.801  26.182  0.00  0.00    +0.145 HD
ATOM     24  H   UNL     1      10.042  -4.705  24.937  0.00  0.00    +0.145 HD
ATOM     25  N   UNL     1       8.074  -5.928  27.142  0.00  0.00    -0.293 N 
ATOM     26  H   UNL     1       8.671  -6.660  27.485  0.00  0.00    +0.172 HD
ATOM     27  C   UNL     1       6.844  -5.835  27.777  0.00  0.00    +0.280 A 
ATOM     28  O   UNL     1       6.541  -6.570  28.711  0.00  0.00    -0.265 OA
ATOM     29  C   UNL     1       6.010  -4.804  27.202  0.00  0.00    +0.172 A 
ATOM     30  N   UNL     1       4.727  -4.429  27.504  0.00  0.00    -0.229 NA
ATOM     31  C   UNL     1       4.459  -3.465  26.646  0.00  0.00    +0.203 A 
ENDBRANCH  17  18
ENDBRANCH   1  17
TORSDOF 11
ENDMDL
MODEL 3
REMARK VINA RESULT:      -6.1      2.001      3.071
REMARK  Name = 
REMARK  13 active torsions:
REMARK  status: ('A' for Active; 'I' for Inactive)
REMARK    1  A    between atoms: C_1  and  C_2
REMARK    2  A    between atoms: C_2  and  C_3
REMARK    3  A    between atoms: C_2  and  C_4
REMARK    4  A    between atoms: C_4  and  C_6
REMARK    5  A    between atoms: C_4  and  N_27
REMARK    6  A    between atoms: C_6  and  O_8
REMARK    7  A    between atoms: O_8  and  C_9
REMARK    8  A    between atoms: C_9  and  C_10
REMARK    9  A    between atoms: C_10  and  C_12
REMARK   10  A    between atoms: C_10  and  O_14
REMARK   11  A    between atoms: C_12  and  O_13
REMARK   12  A    between atoms: O_14  and  C_15
REMARK   13  A    between atoms: C_15  and  N_16
REMARK                            x       y       z     vdW  Elec       q    Type
REMARK                         _______ _______ _______ _____ _____    ______ ____
ROOT
ATOM      1  O   UNL     1       8.016  -3.503  23.063  0.00  0.00    -0.350 OA
ENDROOT
BRANCH   1   2
ATOM      2  C   UNL     1       8.116  -2.223  22.404  0.00  0.00    +0.183 C 
BRANCH   2   3
ATOM      3  C   UNL     1       7.386  -1.108  23.174  0.00  0.00    +0.266 C 
BRANCH   3   4
ATOM      4  O   UNL     1       7.652   0.168  22.558  0.00  0.00    -0.461 OA
BRANCH   4   5
ATOM      5  C   UNL     1       7.684   1.255  23.385  0.00  0.00    +0.324 C 
ATOM      6  O   UNL     1       6.993   1.383  24.387  0.00  0.00    -0.249 OA
BRANCH   5   7
ATOM      7  C   UNL     1       8.708   2.302  22.901  0.00  0.00    +0.163 C 
BRANCH   7   9
ATOM      8  C   UNL     1      10.973   3.383  23.364  0.00  0.00    +0.009 C 
ATOM      9  C   UNL     1       9.852   2.499  23.923  0.00  0.00    +0.010 C 
ATOM     10  C   UNL     1      10.460   1.155  24.353  0.00  0.00    +0.009 C 
ENDBRANCH   7   9
BRANCH   7  11
ATOM     11  N   UNL     1       9.250   1.919  21.573  0.00  0.00    -0.318 NA
ATOM     12  H   UNL     1      10.098   2.464  21.401  0.00  0.00    +0.119 HD
ATOM     13  H   UNL     1       9.552   0.945  21.601  0.00  0.00    +0.119 HD
ENDBRANCH   7  11
ENDBRANCH   5   7
ENDBRANCH   4   5
ENDBRANCH   3   4
ENDBRANCH   2   3
BRANCH   2  14
ATOM     14  C   UNL     1       9.612  -1.888  22.285  0.00  0.00    +0.190 C 
BRANCH  14  15
ATOM     15  O   UNL     1       9.832  -0.985  21.204  0.00  0.00    -0.392 OA
ATOM     16  H   UNL     1      10.798  -0.870  21.137  0.00  0.00    +0.210 HD
ENDBRANCH  14  15
ENDBRANCH   2  14
ENDBRANCH   1   2
BRANCH   1  17
ATOM     17  C   UNL     1       6.782  -3.689  23.766  0.00  0.00    +0.288 C 
BRANCH  17  18
ATOM     18  N   UNL     1       7.058  -4.225  25.085  0.00  0.00    -0.291 N 
ATOM     19  C   UNL     1       6.348  -5.203  25.727  0.00  0.00    +0.171 A 
ATOM     20  N   UNL     1       5.264  -5.871  25.257  0.00  0.00    -0.196 NA
ATOM     21  C   UNL     1       4.788  -6.740  26.112  0.00  0.00    +0.195 A 
ATOM     22  N   UNL     1       3.688  -7.472  25.802  0.00  0.00    -0.329 N 
ATOM     23  H   UNL     1       3.594  -8.389  26.219  0.00  0.00    +0.145 HD
ATOM     24  H   UNL     1       3.448  -7.446  24.818  0.00  0.00    +0.145 HD
ATOM     25  N   UNL     1       5.339  -6.982  27.356  0.00  0.00    -0.293 N 
ATOM     26  H   UNL     1       4.915  -7.645  27.981  0.00  0.00    +0.172 HD
ATOM     27  C   UNL     1       6.435  -6.310  27.877  0.00  0.00    +0.280 A 
ATOM     28  O   UNL     1       6.867  -6.549  29.000  0.00  0.00    -0.265 OA
ATOM     29  C   UNL     1       6.964  -5.332  26.954  0.00  0.00    +0.172 A 
ATOM     30  N   UNL     1       7.996  -4.441  27.099  0.00  0.00    -0.229 NA
ATOM     31  C   UNL     1       8.014  -3.776  25.961  0.00  0.00    +0.203 A 
ENDBRANCH  17  18
ENDBRANCH   1  17
TORSDOF 11
ENDMDL
MODEL 4
REMARK VINA RESULT:      -6.1      1.589      2.233
REMARK  Name = 
REMARK  13 active torsions:
REMARK  status: ('A' for Active; 'I' for Inactive)
REMARK    1  A    between atoms: C_1  and  C_2
REMARK    2  A    between atoms: C_2  and  C_3
REMARK    3  A    between atoms: C_2  and  C_4
REMARK    4  A    between atoms: C_4  and  C_6
REMARK    5  A    between atoms: C_4  and  N_27
REMARK    6  A    between atoms: C_6  and  O_8
REMARK    7  A    between atoms: O_8  and  C_9
REMARK    8  A    between atoms: C_9  and  C_10
REMARK    9  A    between atoms: C_10  and  C_12
REMARK   10  A    between atoms: C_10  and  O_14
REMARK   11  A    between atoms: C_12  and  O_13
REMARK   12  A    between atoms: O_14  and  C_15
REMARK   13  A    between atoms: C_15  and  N_16
REMARK                            x       y       z     vdW  Elec       q    Type
REMARK                         _______ _______ _______ _____ _____    ______ ____
ROOT
ATOM      1  O   UNL     1       9.266  -1.085  23.288  0.00  0.00    -0.350 OA
ENDROOT
BRANCH   1   2
ATOM      2  C   UNL     1       9.062   0.314  22.997  0.00  0.00    +0.183 C 
BRANCH   2   3
ATOM      3  C   UNL     1       9.980   1.227  23.829  0.00  0.00    +0.266 C 
BRANCH   3   4
ATOM      4  O   UNL     1      10.683   2.138  22.960  0.00  0.00    -0.461 OA
BRANCH   4   5
ATOM      5  C   UNL     1      10.774   3.436  23.376  0.00  0.00    +0.324 C 
ATOM      6  O   UNL     1      11.812   4.081  23.410  0.00  0.00    -0.249 OA
BRANCH   5   7
ATOM      7  C   UNL     1       9.396   3.992  23.792  0.00  0.00    +0.163 C 
BRANCH   7   9
ATOM      8  C   UNL     1       8.576   5.464  25.709  0.00  0.00    +0.009 C 
ATOM      9  C   UNL     1       9.522   5.357  24.507  0.00  0.00    +0.010 C 
ATOM     10  C   UNL     1       9.229   6.523  23.551  0.00  0.00    +0.009 C 
ENDBRANCH   7   9
BRANCH   7  11
ATOM     11  N   UNL     1       8.504   4.100  22.609  0.00  0.00    -0.318 NA
ATOM     12  H   UNL     1       7.733   4.730  22.843  0.00  0.00    +0.119 HD
ATOM     13  H   UNL     1       9.008   4.555  21.848  0.00  0.00    +0.119 HD
ENDBRANCH   7  11
ENDBRANCH   5   7
ENDBRANCH   4   5
ENDBRANCH   3   4
ENDBRANCH   2   3
BRANCH   2  14
ATOM     14  C   UNL     1       9.341   0.511  21.497  0.00  0.00    +0.190 C 
BRANCH  14  15
ATOM     15  O   UNL     1       8.576   1.604  20.992  0.00  0.00    -0.392 OA
ATOM     16  H   UNL     1       8.847   2.387  21.507  0.00  0.00    +0.210 HD
ENDBRANCH  14  15
ENDBRANCH   2  14
ENDBRANCH   1   2
BRANCH   1  17
ATOM     17  C   UNL     1       8.545  -1.961  22.414  0.00  0.00    +0.288 C 
BRANCH  17  18
ATOM     18  N   UNL     1       7.622  -2.763  23.196  0.00  0.00    -0.291 N 
ATOM     19  C   UNL     1       7.957  -3.739  24.093  0.00  0.00    +0.171 A 
ATOM     20  N   UNL     1       9.207  -4.141  24.440  0.00  0.00    -0.196 NA
ATOM     21  C   UNL     1       9.209  -5.115  25.313  0.00  0.00    +0.195 A 
ATOM     22  N   UNL     1      10.381  -5.645  25.743  0.00  0.00    -0.329 N 
ATOM     23  H   UNL     1      10.411  -6.040  26.674  0.00  0.00    +0.145 HD
ATOM     24  H   UNL     1      11.190  -5.080  25.514  0.00  0.00    +0.145 HD
ATOM     25  N   UNL     1       8.065  -5.668  25.855  0.00  0.00    -0.293 N 
ATOM     26  H   UNL     1       8.127  -6.432  26.505  0.00  0.00    +0.172 HD
ATOM     27  C   UNL     1       6.771  -5.296  25.516  0.00  0.00    +0.280 A 
ATOM     28  O   UNL     1       5.791  -5.841  26.012  0.00  0.00    -0.265 OA
ATOM     29  C   UNL     1       6.749  -4.233  24.537  0.00  0.00    +0.172 A 
ATOM     30  N   UNL     1       5.692  -3.623  23.914  0.00  0.00    -0.229 NA
ATOM     31  C   UNL     1       6.253  -2.753  23.097  0.00  0.00    +0.203 A 
ENDBRANCH  17  18
ENDBRANCH   1  17
TORSDOF 11
ENDMDL
MODEL 5
REMARK VINA RESULT:      -6.1      1.995      3.005
REMARK  Name = 
REMARK  13 active torsions:
REMARK  status: ('A' for Active; 'I' for Inactive)
REMARK    1  A    between atoms: C_1  and  C_2
REMARK    2  A    between atoms: C_2  and  C_3
REMARK    3  A    between atoms: C_2  and  C_4
REMARK    4  A    between atoms: C_4  and  C_6
REMARK    5  A    between atoms: C_4  and  N_27
REMARK    6  A    between atoms: C_6  and  O_8
REMARK    7  A    between atoms: O_8  and  C_9
REMARK    8  A    between atoms: C_9  and  C_10
REMARK    9  A    between atoms: C_10  and  C_12
REMARK   10  A    between atoms: C_10  and  O_14
REMARK   11  A    between atoms: C_12  and  O_13
REMARK   12  A    between atoms: O_14  and  C_15
REMARK   13  A    between atoms: C_15  and  N_16
REMARK                            x       y       z     vdW  Elec       q    Type
REMARK                         _______ _______ _______ _____ _____    ______ ____
ROOT
ATOM      1  O   UNL     1       9.008  -2.536  24.729  0.00  0.00    -0.350 OA
ENDROOT
BRANCH   1   2
ATOM      2  C   UNL     1       8.746  -1.952  23.435  0.00  0.00    +0.183 C 
BRANCH   2   3
ATOM      3  C   UNL     1       7.730  -0.798  23.506  0.00  0.00    +0.266 C 
BRANCH   3   4
ATOM      4  O   UNL     1       7.872   0.052  22.351  0.00  0.00    -0.461 OA
BRANCH   4   5
ATOM      5  C   UNL     1       7.485   1.354  22.495  0.00  0.00    +0.324 C 
ATOM      6  O   UNL     1       6.335   1.716  22.700  0.00  0.00    -0.249 OA
BRANCH   5   7
ATOM      7  C   UNL     1       8.685   2.315  22.374  0.00  0.00    +0.163 C 
BRANCH   7   9
ATOM      8  C   UNL     1       8.651   3.634  24.559  0.00  0.00    +0.009 C 
ATOM      9  C   UNL     1       9.368   2.554  23.740  0.00  0.00    +0.010 C 
ATOM     10  C   UNL     1      10.838   2.966  23.571  0.00  0.00    +0.009 C 
ENDBRANCH   7   9
BRANCH   7  11
ATOM     11  N   UNL     1       9.662   1.800  21.382  0.00  0.00    -0.318 NA
ATOM     12  H   UNL     1       9.174   1.163  20.748  0.00  0.00    +0.119 HD
ATOM     13  H   UNL     1       9.990   2.570  20.799  0.00  0.00    +0.119 HD
ENDBRANCH   7  11
ENDBRANCH   5   7
ENDBRANCH   4   5
ENDBRANCH   3   4
ENDBRANCH   2   3
BRANCH   2  14
ATOM     14  C   UNL     1      10.089  -1.439  22.888  0.00  0.00    +0.190 C 
BRANCH  14  15
ATOM     15  O   UNL     1      10.095  -1.493  21.463  0.00  0.00    -0.392 OA
ATOM     16  H   UNL     1       9.977  -2.432  21.226  0.00  0.00    +0.210 HD
ENDBRANCH  14  15
ENDBRANCH   2  14
ENDBRANCH   1   2
BRANCH   1  17
ATOM     17  C   UNL     1       9.218  -3.952  24.684  0.00  0.00    +0.288 C 
BRANCH  17  18
ATOM     18  N   UNL     1       8.011  -4.629  25.119  0.00  0.00    -0.291 N 
ATOM     19  C   UNL     1       7.084  -5.230  24.311  0.00  0.00    +0.171 A 
ATOM     20  N   UNL     1       7.114  -5.325  22.958  0.00  0.00    -0.196 NA
ATOM     21  C   UNL     1       6.072  -5.943  22.463  0.00  0.00    +0.195 A 
ATOM     22  N   UNL     1       5.942  -6.098  21.122  0.00  0.00    -0.329 N 
ATOM     23  H   UNL     1       5.429  -6.902  20.784  0.00  0.00    +0.145 HD
ATOM     24  H   UNL     1       6.795  -5.913  20.607  0.00  0.00    +0.145 HD
ATOM     25  N   UNL     1       5.053  -6.472  23.231  0.00  0.00    -0.293 N 
ATOM     26  H   UNL     1       4.263  -6.916  22.794  0.00  0.00    +0.172 HD
ATOM     27  C   UNL     1       4.977  -6.382  24.614  0.00  0.00    +0.280 A 
ATOM     28  O   UNL     1       4.034  -6.850  25.242  0.00  0.00    -0.265 OA
ATOM     29  C   UNL     1       6.112  -5.686  25.177  0.00  0.00    +0.172 A 
ATOM     30  N   UNL     1       6.391  -5.349  26.476  0.00  0.00    -0.229 NA
ATOM     31  C   UNL     1       7.535  -4.696  26.404  0.00  0.00    +0.203 A 
ENDBRANCH  17  18
ENDBRANCH   1  17
TORSDOF 11
ENDMDL
MODEL 6
REMARK VINA RESULT:      -6.1      2.013      3.081
REMARK  Name = 
REMARK  13 active torsions:
REMARK  status: ('A' for Active; 'I' for Inactive)
REMARK    1  A    between atoms: C_1  and  C_2
REMARK    2  A    between atoms: C_2  and  C_3
REMARK    3  A    between atoms: C_2  and  C_4
REMARK    4  A    between atoms: C_4  and  C_6
REMARK    5  A    between atoms: C_4  and  N_27
REMARK    6  A    between atoms: C_6  and  O_8
REMARK    7  A    between atoms: O_8  and  C_9
REMARK    8  A    between atoms: C_9  and  C_10
REMARK    9  A    between atoms: C_10  and  C_12
REMARK   10  A    between atoms: C_10  and  O_14
REMARK   11  A    between atoms: C_12  and  O_13
REMARK   12  A    between atoms: O_14  and  C_15
REMARK   13  A    between atoms: C_15  and  N_16
REMARK                            x       y       z     vdW  Elec       q    Type
REMARK                         _______ _______ _______ _____ _____    ______ ____
ROOT
ATOM      1  O   UNL     1       8.189  -2.421  25.457  0.00  0.00    -0.350 OA
ENDROOT
BRANCH   1   2
ATOM      2  C   UNL     1       8.508  -1.495  24.397  0.00  0.00    +0.183 C 
BRANCH   2   3
ATOM      3  C   UNL     1       9.855  -1.811  23.726  0.00  0.00    +0.266 C 
BRANCH   3   4
ATOM      4  O   UNL     1      10.285  -0.686  22.935  0.00  0.00    -0.461 OA
BRANCH   4   5
ATOM      5  C   UNL     1      10.494   0.489  23.599  0.00  0.00    +0.324 C 
ATOM      6  O   UNL     1      11.309   0.641  24.499  0.00  0.00    -0.249 OA
BRANCH   5   7
ATOM      7  C   UNL     1       9.575   1.608  23.068  0.00  0.00    +0.163 C 
BRANCH   7   9
ATOM      8  C   UNL     1       8.213   2.270  25.123  0.00  0.00    +0.009 C 
ATOM      9  C   UNL     1       9.313   2.691  24.140  0.00  0.00    +0.010 C 
ATOM     10  C   UNL     1       8.909   4.029  23.502  0.00  0.00    +0.009 C 
ENDBRANCH   7   9
BRANCH   7  11
ATOM     11  N   UNL     1      10.153   2.213  21.842  0.00  0.00    -0.318 NA
ATOM     12  H   UNL     1       9.609   1.895  21.037  0.00  0.00    +0.119 HD
ATOM     13  H   UNL     1      10.029   3.225  21.874  0.00  0.00    +0.119 HD
ENDBRANCH   7  11
ENDBRANCH   5   7
ENDBRANCH   4   5
ENDBRANCH   3   4
ENDBRANCH   2   3
BRANCH   2  14
ATOM     14  C   UNL     1       7.371  -1.579  23.364  0.00  0.00    +0.190 C 
BRANCH  14  15
ATOM     15  O   UNL     1       7.836  -2.203  22.168  0.00  0.00    -0.392 OA
ATOM     16  H   UNL     1       8.292  -1.509  21.658  0.00  0.00    +0.210 HD
ENDBRANCH  14  15
ENDBRANCH   2  14
ENDBRANCH   1   2
BRANCH   1  17
ATOM     17  C   UNL     1       8.679  -3.747  25.223  0.00  0.00    +0.288 C 
BRANCH  17  18
ATOM     18  N   UNL     1       7.585  -4.691  25.356  0.00  0.00    -0.291 N 
ATOM     19  C   UNL     1       6.856  -5.235  24.334  0.00  0.00    +0.171 A 
ATOM     20  N   UNL     1       7.016  -5.014  23.004  0.00  0.00    -0.196 NA
ATOM     21  C   UNL     1       6.151  -5.664  22.268  0.00  0.00    +0.195 A 
ATOM     22  N   UNL     1       6.164  -5.529  20.919  0.00  0.00    -0.329 N 
ATOM     23  H   UNL     1       5.839  -6.307  20.360  0.00  0.00    +0.145 HD
ATOM     24  H   UNL     1       7.008  -5.096  20.562  0.00  0.00    +0.145 HD
ATOM     25  N   UNL     1       5.187  -6.511  22.778  0.00  0.00    -0.293 N 
ATOM     26  H   UNL     1       4.532  -6.966  22.166  0.00  0.00    +0.172 HD
ATOM     27  C   UNL     1       4.981  -6.751  24.129  0.00  0.00    +0.280 A 
ATOM     28  O   UNL     1       4.091  -7.495  24.527  0.00  0.00    -0.265 OA
ATOM     29  C   UNL     1       5.916  -6.026  24.960  0.00  0.00    +0.172 A 
ATOM     30  N   UNL     1       6.020  -5.952  26.325  0.00  0.00    -0.229 NA
ATOM     31  C   UNL     1       7.024  -5.125  26.531  0.00  0.00    +0.203 A 
ENDBRANCH  17  18
ENDBRANCH   1  17
TORSDOF 11
ENDMDL
MODEL 7
REMARK VINA RESULT:      -6.1      2.816      8.338
REMARK  Name = 
REMARK  13 active torsions:
REMARK  status: ('A' for Active; 'I' for Inactive)
REMARK    1  A    between atoms: C_1  and  C_2
REMARK    2  A    between atoms: C_2  and  C_3
REMARK    3  A    between atoms: C_2  and  C_4
REMARK    4  A    between atoms: C_4  and  C_6
REMARK    5  A    between atoms: C_4  and  N_27
REMARK    6  A    between atoms: C_6  and  O_8
REMARK    7  A    between atoms: O_8  and  C_9
REMARK    8  A    between atoms: C_9  and  C_10
REMARK    9  A    between atoms: C_10  and  C_12
REMARK   10  A    between atoms: C_10  and  O_14
REMARK   11  A    between atoms: C_12  and  O_13
REMARK   12  A    between atoms: O_14  and  C_15
REMARK   13  A    between atoms: C_15  and  N_16
REMARK                            x       y       z     vdW  Elec       q    Type
REMARK                         _______ _______ _______ _____ _____    ______ ____
ROOT
ATOM      1  O   UNL     1       9.877   0.131  24.766  0.00  0.00    -0.350 OA
ENDROOT
BRANCH   1   2
ATOM      2  C   UNL     1       9.901  -1.123  24.051  0.00  0.00    +0.183 C 
BRANCH   2   3
ATOM      3  C   UNL     1       8.819  -2.100  24.543  0.00  0.00    +0.266 C 
BRANCH   3   4
ATOM      4  O   UNL     1       9.050  -3.409  23.984  0.00  0.00    -0.461 OA
BRANCH   4   5
ATOM      5  C   UNL     1       9.100  -4.453  24.863  0.00  0.00    +0.324 C 
ATOM      6  O   UNL     1      10.001  -5.279  24.907  0.00  0.00    -0.249 OA
BRANCH   5   7
ATOM      7  C   UNL     1       7.877  -4.456  25.804  0.00  0.00    +0.163 C 
BRANCH   7   9
ATOM      8  C   UNL     1       5.729  -4.162  24.458  0.00  0.00    +0.009 C 
ATOM      9  C   UNL     1       6.661  -5.159  25.158  0.00  0.00    +0.010 C 
ATOM     10  C   UNL     1       5.845  -5.942  26.198  0.00  0.00    +0.009 C 
ENDBRANCH   7   9
BRANCH   7  11
ATOM     11  N   UNL     1       8.224  -5.094  27.099  0.00  0.00    -0.318 NA
ATOM     12  H   UNL     1       8.569  -6.038  26.913  0.00  0.00    +0.119 HD
ATOM     13  H   UNL     1       9.006  -4.594  27.522  0.00  0.00    +0.119 HD
ENDBRANCH   7  11
ENDBRANCH   5   7
ENDBRANCH   4   5
ENDBRANCH   3   4
ENDBRANCH   2   3
BRANCH   2  14
ATOM     14  C   UNL     1       9.685  -0.802  22.563  0.00  0.00    +0.190 C 
BRANCH  14  15
ATOM     15  O   UNL     1      10.331  -1.778  21.748  0.00  0.00    -0.392 OA
ATOM     16  H   UNL     1       9.884  -2.625  21.932  0.00  0.00    +0.210 HD
ENDBRANCH  14  15
ENDBRANCH   2  14
ENDBRANCH   1   2
BRANCH   1  17
ATOM     17  C   UNL     1      10.754   1.120  24.214  0.00  0.00    +0.288 C 
BRANCH  17  18
ATOM     18  N   UNL     1      10.052   2.386  24.125  0.00  0.00    -0.291 N 
ATOM     19  C   UNL     1      10.595   3.590  23.767  0.00  0.00    +0.171 A 
ATOM     20  N   UNL     1      11.882   3.836  23.414  0.00  0.00    -0.196 NA
ATOM     21  C   UNL     1      12.107   5.096  23.143  0.00  0.00    +0.195 A 
ATOM     22  N   UNL     1      13.352   5.509  22.796  0.00  0.00    -0.329 N 
ATOM     23  H   UNL     1      13.435   6.314  22.189  0.00  0.00    +0.145 HD
ATOM     24  H   UNL     1      13.979   4.750  22.553  0.00  0.00    +0.145 HD
ATOM     25  N   UNL     1      11.138   6.079  23.182  0.00  0.00    -0.293 N 
ATOM     26  H   UNL     1      11.374   7.036  22.986  0.00  0.00    +0.172 HD
ATOM     27  C   UNL     1       9.817   5.871  23.552  0.00  0.00    +0.280 A 
ATOM     28  O   UNL     1       9.004   6.788  23.593  0.00  0.00    -0.265 OA
ATOM     29  C   UNL     1       9.553   4.487  23.874  0.00  0.00    +0.172 A 
ATOM     30  N   UNL     1       8.408   3.882  24.323  0.00  0.00    -0.229 NA
ATOM     31  C   UNL     1       8.748   2.618  24.482  0.00  0.00    +0.203 A 
ENDBRANCH  17  18
ENDBRANCH   1  17
TORSDOF 11
ENDMDL
MODEL 8
REMARK VINA RESULT:      -6.0      3.014      7.107
REMARK  Name = 
REMARK  13 active torsions:
REMARK  status: ('A' for Active; 'I' for Inactive)
REMARK    1  A    between atoms: C_1  and  C_2
REMARK    2  A    between atoms: C_2  and  C_3
REMARK    3  A    between atoms: C_2  and  C_4
REMARK    4  A    between atoms: C_4  and  C_6
REMARK    5  A    between atoms: C_4  and  N_27
REMARK    6  A    between atoms: C_6  and  O_8
REMARK    7  A    between atoms: O_8  and  C_9
REMARK    8  A    between atoms: C_9  and  C_10
REMARK    9  A    between atoms: C_10  and  C_12
REMARK   10  A    between atoms: C_10  and  O_14
REMARK   11  A    between atoms: C_12  and  O_13
REMARK   12  A    between atoms: O_14  and  C_15
REMARK   13  A    between atoms: C_15  and  N_16
REMARK                            x       y       z     vdW  Elec       q    Type
REMARK                         _______ _______ _______ _____ _____    ______ ____
ROOT
ATOM      1  O   UNL     1       6.694  -5.891  26.780  0.00  0.00    -0.350 OA
ENDROOT
BRANCH   1   2
ATOM      2  C   UNL     1       5.251  -5.927  26.799  0.00  0.00    +0.183 C 
BRANCH   2   3
ATOM      3  C   UNL     1       4.652  -6.168  25.402  0.00  0.00    +0.266 C 
BRANCH   3   4
ATOM      4  O   UNL     1       4.322  -4.907  24.786  0.00  0.00    -0.461 OA
BRANCH   4   5
ATOM      5  C   UNL     1       4.193  -4.902  23.427  0.00  0.00    +0.324 C 
ATOM      6  O   UNL     1       3.148  -5.121  22.830  0.00  0.00    -0.249 OA
BRANCH   5   7
ATOM      7  C   UNL     1       5.532  -4.579  22.734  0.00  0.00    +0.163 C 
BRANCH   7   9
ATOM      8  C   UNL     1       7.631  -6.017  22.528  0.00  0.00    +0.009 C 
ATOM      9  C   UNL     1       6.169  -5.839  22.102  0.00  0.00    +0.010 C 
ATOM     10  C   UNL     1       6.111  -5.790  20.567  0.00  0.00    +0.009 C 
ENDBRANCH   7   9
BRANCH   7  11
ATOM     11  N   UNL     1       5.343  -3.519  21.712  0.00  0.00    -0.318 NA
ATOM     12  H   UNL     1       4.341  -3.420  21.531  0.00  0.00    +0.119 HD
ATOM     13  H   UNL     1       5.642  -2.623  22.096  0.00  0.00    +0.119 HD
ENDBRANCH   7  11
ENDBRANCH   5   7
ENDBRANCH   4   5
ENDBRANCH   3   4
ENDBRANCH   2   3
BRANCH   2  14
ATOM     14  C   UNL     1       4.837  -7.061  27.753  0.00  0.00    +0.190 C 
BRANCH  14  15
ATOM     15  O   UNL     1       5.929  -7.419  28.598  0.00  0.00    -0.392 OA
ATOM     16  H   UNL     1       5.545  -7.598  29.476  0.00  0.00    +0.210 HD
ENDBRANCH  14  15
ENDBRANCH   2  14
ENDBRANCH   1   2
BRANCH   1  17
ATOM     17  C   UNL     1       7.236  -4.599  27.076  0.00  0.00    +0.288 C 
BRANCH  17  18
ATOM     18  N   UNL     1       8.199  -4.239  26.053  0.00  0.00    -0.291 N 
ATOM     19  C   UNL     1       8.077  -3.221  25.147  0.00  0.00    +0.171 A 
ATOM     20  N   UNL     1       7.048  -2.343  25.034  0.00  0.00    -0.196 NA
ATOM     21  C   UNL     1       7.206  -1.490  24.055  0.00  0.00    +0.195 A 
ATOM     22  N   UNL     1       6.252  -0.562  23.795  0.00  0.00    -0.329 N 
ATOM     23  H   UNL     1       6.541   0.315  23.383  0.00  0.00    +0.145 HD
ATOM     24  H   UNL     1       5.574  -0.458  24.541  0.00  0.00    +0.145 HD
ATOM     25  N   UNL     1       8.315  -1.459  23.231  0.00  0.00    -0.293 N 
ATOM     26  H   UNL     1       8.371  -0.795  22.478  0.00  0.00    +0.172 HD
ATOM     27  C   UNL     1       9.379  -2.346  23.304  0.00  0.00    +0.280 A 
ATOM     28  O   UNL     1      10.327  -2.286  22.528  0.00  0.00    -0.265 OA
ATOM     29  C   UNL     1       9.212  -3.309  24.369  0.00  0.00    +0.172 A 
ATOM     30  N   UNL     1      10.001  -4.367  24.741  0.00  0.00    -0.229 NA
ATOM     31  C   UNL     1       9.352  -4.918  25.748  0.00  0.00    +0.203 A 
ENDBRANCH  17  18
ENDBRANCH   1  17
TORSDOF 11
ENDMDL
MODEL 9
REMARK VINA RESULT:      -5.9      2.611      5.472
REMARK  Name = 
REMARK  13 active torsions:
REMARK  status: ('A' for Active; 'I' for Inactive)
REMARK    1  A    between atoms: C_1  and  C_2
REMARK    2  A    between atoms: C_2  and  C_3
REMARK    3  A    between atoms: C_2  and  C_4
REMARK    4  A    between atoms: C_4  and  C_6
REMARK    5  A    between atoms: C_4  and  N_27
REMARK    6  A    between atoms: C_6  and  O_8
REMARK    7  A    between atoms: O_8  and  C_9
REMARK    8  A    between atoms: C_9  and  C_10
REMARK    9  A    between atoms: C_10  and  C_12
REMARK   10  A    between atoms: C_10  and  O_14
REMARK   11  A    between atoms: C_12  and  O_13
REMARK   12  A    between atoms: O_14  and  C_15
REMARK   13  A    between atoms: C_15  and  N_16
REMARK                            x       y       z     vdW  Elec       q    Type
REMARK                         _______ _______ _______ _____ _____    ______ ____
ROOT
ATOM      1  O   UNL     1       7.602  -0.923  23.822  0.00  0.00    -0.350 OA
ENDROOT
BRANCH   1   2
ATOM      2  C   UNL     1       8.266  -1.809  22.897  0.00  0.00    +0.183 C 
BRANCH   2   3
ATOM      3  C   UNL     1       7.274  -2.661  22.085  0.00  0.00    +0.266 C 
BRANCH   3   4
ATOM      4  O   UNL     1       7.071  -3.931  22.737  0.00  0.00    -0.461 OA
BRANCH   4   5
ATOM      5  C   UNL     1       5.854  -4.135  23.321  0.00  0.00    +0.324 C 
ATOM      6  O   UNL     1       5.037  -3.252  23.545  0.00  0.00    -0.249 OA
BRANCH   5   7
ATOM      7  C   UNL     1       5.632  -5.624  23.658  0.00  0.00    +0.163 C 
BRANCH   7   9
ATOM      8  C   UNL     1       4.240  -7.060  25.243  0.00  0.00    +0.009 C 
ATOM      9  C   UNL     1       4.237  -5.869  24.277  0.00  0.00    +0.010 C 
ATOM     10  C   UNL     1       3.177  -6.123  23.194  0.00  0.00    +0.009 C 
ENDBRANCH   7   9
BRANCH   7  11
ATOM     11  N   UNL     1       5.824  -6.461  22.447  0.00  0.00    -0.318 NA
ATOM     12  H   UNL     1       6.625  -6.099  21.926  0.00  0.00    +0.119 HD
ATOM     13  H   UNL     1       6.084  -7.406  22.728  0.00  0.00    +0.119 HD
ENDBRANCH   7  11
ENDBRANCH   5   7
ENDBRANCH   4   5
ENDBRANCH   3   4
ENDBRANCH   2   3
BRANCH   2  14
ATOM     14  C   UNL     1       9.105  -0.933  21.951  0.00  0.00    +0.190 C 
BRANCH  14  15
ATOM     15  O   UNL     1      10.300  -1.615  21.576  0.00  0.00    -0.392 OA
ATOM     16  H   UNL     1      11.004  -1.268  22.154  0.00  0.00    +0.210 HD
ENDBRANCH  14  15
ENDBRANCH   2  14
ENDBRANCH   1   2
BRANCH   1  17
ATOM     17  C   UNL     1       8.151  -0.963  25.145  0.00  0.00    +0.288 C 
BRANCH  17  18
ATOM     18  N   UNL     1       7.438  -1.953  25.929  0.00  0.00    -0.291 N 
ATOM     19  C   UNL     1       7.823  -3.248  26.142  0.00  0.00    +0.171 A 
ATOM     20  N   UNL     1       8.945  -3.857  25.679  0.00  0.00    -0.196 NA
ATOM     21  C   UNL     1       9.030  -5.113  26.033  0.00  0.00    +0.195 A 
ATOM     22  N   UNL     1      10.082  -5.868  25.628  0.00  0.00    -0.329 N 
ATOM     23  H   UNL     1      10.374  -6.634  26.221  0.00  0.00    +0.145 HD
ATOM     24  H   UNL     1      10.853  -5.324  25.257  0.00  0.00    +0.145 HD
ATOM     25  N   UNL     1       8.095  -5.759  26.820  0.00  0.00    -0.293 N 
ATOM     26  H   UNL     1       8.201  -6.734  27.040  0.00  0.00    +0.172 HD
ATOM     27  C   UNL     1       6.931  -5.177  27.299  0.00  0.00    +0.280 A 
ATOM     28  O   UNL     1       6.122  -5.807  27.973  0.00  0.00    -0.265 OA
ATOM     29  C   UNL     1       6.809  -3.793  26.901  0.00  0.00    +0.172 A 
ATOM     30  N   UNL     1       5.802  -2.890  27.124  0.00  0.00    -0.229 NA
ATOM     31  C   UNL     1       6.204  -1.796  26.509  0.00  0.00    +0.203 A 
ENDBRANCH  17  18
ENDBRANCH   1  17
TORSDOF 11
ENDMDL
