MODEL 1
REMARK VINA RESULT:      -6.3      0.000      0.000
REMARK  Name = 
REMARK  8 active torsions:
REMARK  status: ('A' for Active; 'I' for Inactive)
REMARK    1  A    between atoms: C_1  and  C_2
REMARK    2  A    between atoms: C_2  and  C_3
REMARK    3  A    between atoms: C_2  and  N_4
REMARK    4  A    between atoms: N_13  and  C1*_14
REMARK    5  A    between atoms: C2*_16  and  O2*_26
REMARK    6  A    between atoms: C3*_18  and  O3*_25
REMARK    7  A    between atoms: C4*_20  and  C5*_23
REMARK    8  A    between atoms: C5*_23  and  O5*_24
REMARK                            x       y       z     vdW  Elec       q    Type
REMARK                         _______ _______ _______ _____ _____    ______ ____
ROOT
ATOM      1  N   UNL     1       6.628  -4.596  26.253  0.00  0.00    -0.312 N 
ATOM      2  H   UNL     1       7.048  -5.510  26.068  0.00  0.00    +0.149 HD
ATOM      3  C   UNL     1       7.283  -3.569  25.656  0.00  0.00    +0.199 A 
ATOM      4  N   UNL     1       7.165  -3.344  24.294  0.00  0.00    -0.283 N 
ATOM      5  C   UNL     1       7.915  -2.225  23.992  0.00  0.00    +0.074 A 
ATOM      6  C   UNL     1       8.491  -1.864  25.208  0.00  0.00    +0.092 A 
ATOM      7  C   UNL     1       9.377  -0.780  25.274  0.00  0.00    +0.051 A 
ATOM      8  C   UNL     1       9.649  -0.060  24.106  0.00  0.00    +0.061 A 
ATOM      9 CL   UNL     1      10.759   1.261  24.232  0.00  0.00    -0.082 Cl
ATOM     10  C   UNL     1       9.039  -0.411  22.894  0.00  0.00    +0.061 A 
ATOM     11 CL   UNL     1       9.335   0.467  21.431  0.00  0.00    -0.082 Cl
ATOM     12  C   UNL     1       8.159  -1.505  22.815  0.00  0.00    +0.049 A 
ATOM     13  N   UNL     1       8.065  -2.681  26.219  0.00  0.00    -0.214 NA
ENDROOT
BRANCH   4  14
ATOM     14  C1* UNL     1       6.345  -4.167  23.422  0.00  0.00    +0.254 C 
ATOM     15  O4* UNL     1       5.022  -4.346  23.979  0.00  0.00    -0.346 OA
ATOM     16  C4* UNL     1       4.589  -5.686  23.653  0.00  0.00    +0.177 C 
ATOM     17  C3* UNL     1       5.640  -6.296  22.723  0.00  0.00    +0.178 C 
ATOM     18  C2* UNL     1       6.903  -5.574  23.159  0.00  0.00    +0.195 C 
BRANCH  17  19
ATOM     19  O3* UNL     1       5.369  -6.005  21.343  0.00  0.00    -0.386 OA
ATOM     20  H3* UNL     1       6.155  -6.313  20.848  0.00  0.00    +0.210 HD
ENDBRANCH  17  19
BRANCH  18  21
ATOM     21  O2* UNL     1       7.898  -5.683  22.143  0.00  0.00    -0.385 OA
ATOM     22  H2* UNL     1       8.764  -5.815  22.572  0.00  0.00    +0.210 HD
ENDBRANCH  18  21
BRANCH  16  23
ATOM     23  C5* UNL     1       3.180  -5.648  23.070  0.00  0.00    +0.190 C 
BRANCH  23  24
ATOM     24  O5* UNL     1       2.768  -6.939  22.638  0.00  0.00    -0.392 OA
ATOM     25  H5* UNL     1       2.530  -7.434  23.444  0.00  0.00    +0.210 HD
ENDBRANCH  23  24
ENDBRANCH  16  23
ENDBRANCH   4  14
BRANCH   1  27
ATOM     26  C   UNL     1       5.025  -3.729  27.847  0.00  0.00    +0.027 C 
ATOM     27  C   UNL     1       6.359  -4.457  27.693  0.00  0.00    +0.067 C 
ATOM     28  C   UNL     1       6.302  -5.824  28.376  0.00  0.00    +0.027 C 
ENDBRANCH   1  27
TORSDOF 6
ENDMDL
MODEL 2
REMARK VINA RESULT:      -5.9      2.472      4.313
REMARK  Name = 
REMARK  8 active torsions:
REMARK  status: ('A' for Active; 'I' for Inactive)
REMARK    1  A    between atoms: C_1  and  C_2
REMARK    2  A    between atoms: C_2  and  C_3
REMARK    3  A    between atoms: C_2  and  N_4
REMARK    4  A    between atoms: N_13  and  C1*_14
REMARK    5  A    between atoms: C2*_16  and  O2*_26
REMARK    6  A    between atoms: C3*_18  and  O3*_25
REMARK    7  A    between atoms: C4*_20  and  C5*_23
REMARK    8  A    between atoms: C5*_23  and  O5*_24
REMARK                            x       y       z     vdW  Elec       q    Type
REMARK                         _______ _______ _______ _____ _____    ______ ____
ROOT
ATOM      1  N   UNL     1       6.685  -4.466  22.903  0.00  0.00    -0.312 N 
ATOM      2  H   UNL     1       5.664  -4.437  22.839  0.00  0.00    +0.149 HD
ATOM      3  C   UNL     1       7.259  -3.237  22.942  0.00  0.00    +0.199 A 
ATOM      4  N   UNL     1       7.211  -2.465  24.092  0.00  0.00    -0.283 N 
ATOM      5  C   UNL     1       7.899  -1.296  23.835  0.00  0.00    +0.074 A 
ATOM      6  C   UNL     1       8.286  -1.416  22.502  0.00  0.00    +0.092 A 
ATOM      7  C   UNL     1       8.974  -0.370  21.870  0.00  0.00    +0.051 A 
ATOM      8  C   UNL     1       9.281   0.777  22.609  0.00  0.00    +0.061 A 
ATOM      9 CL   UNL     1      10.118   2.047  21.784  0.00  0.00    -0.082 Cl
ATOM     10  C   UNL     1       8.915   0.875  23.958  0.00  0.00    +0.061 A 
ATOM     11 CL   UNL     1       9.294   2.270  24.911  0.00  0.00    -0.082 Cl
ATOM     12  C   UNL     1       8.213  -0.164  24.597  0.00  0.00    +0.049 A 
ATOM     13  N   UNL     1       7.912  -2.627  21.985  0.00  0.00    -0.214 NA
ENDROOT
BRANCH   4  14
ATOM     14  C1* UNL     1       6.564  -2.903  25.316  0.00  0.00    +0.254 C 
ATOM     15  O4* UNL     1       7.013  -4.226  25.690  0.00  0.00    -0.346 OA
ATOM     16  C4* UNL     1       5.885  -4.923  26.267  0.00  0.00    +0.177 C 
ATOM     17  C3* UNL     1       4.736  -3.919  26.388  0.00  0.00    +0.178 C 
ATOM     18  C2* UNL     1       5.030  -2.966  25.242  0.00  0.00    +0.195 C 
BRANCH  17  19
ATOM     19  O3* UNL     1       4.777  -3.204  27.632  0.00  0.00    -0.386 OA
ATOM     20  H3* UNL     1       5.590  -2.662  27.600  0.00  0.00    +0.210 HD
ENDBRANCH  17  19
BRANCH  18  21
ATOM     21  O2* UNL     1       4.334  -1.738  25.443  0.00  0.00    -0.385 OA
ATOM     22  H2* UNL     1       4.912  -1.133  25.944  0.00  0.00    +0.210 HD
ENDBRANCH  18  21
BRANCH  16  23
ATOM     23  C5* UNL     1       6.296  -5.569  27.587  0.00  0.00    +0.190 C 
BRANCH  23  24
ATOM     24  O5* UNL     1       7.691  -5.848  27.609  0.00  0.00    -0.392 OA
ATOM     25  H5* UNL     1       7.907  -6.227  26.736  0.00  0.00    +0.210 HD
ENDBRANCH  23  24
ENDBRANCH  16  23
ENDBRANCH   4  14
BRANCH   1  27
ATOM     26  C   UNL     1       7.900  -6.547  22.667  0.00  0.00    +0.027 C 
ATOM     27  C   UNL     1       7.218  -5.410  21.908  0.00  0.00    +0.067 C 
ATOM     28  C   UNL     1       6.102  -5.958  21.018  0.00  0.00    +0.027 C 
ENDBRANCH   1  27
TORSDOF 6
ENDMDL
MODEL 3
REMARK VINA RESULT:      -5.9      6.789      8.914
REMARK  Name = 
REMARK  8 active torsions:
REMARK  status: ('A' for Active; 'I' for Inactive)
REMARK    1  A    between atoms: C_1  and  C_2
REMARK    2  A    between atoms: C_2  and  C_3
REMARK    3  A    between atoms: C_2  and  N_4
REMARK    4  A    between atoms: N_13  and  C1*_14
REMARK    5  A    between atoms: C2*_16  and  O2*_26
REMARK    6  A    between atoms: C3*_18  and  O3*_25
REMARK    7  A    between atoms: C4*_20  and  C5*_23
REMARK    8  A    between atoms: C5*_23  and  O5*_24
REMARK                            x       y       z     vdW  Elec       q    Type
REMARK                         _______ _______ _______ _____ _____    ______ ____
ROOT
ATOM      1  N   UNL     1       9.922   4.926  23.356  0.00  0.00    -0.312 N 
ATOM      2  H   UNL     1      10.440   4.668  22.511  0.00  0.00    +0.149 HD
ATOM      3  C   UNL     1       8.577   4.947  23.182  0.00  0.00    +0.199 A 
ATOM      4  N   UNL     1       7.851   3.770  23.099  0.00  0.00    -0.283 N 
ATOM      5  C   UNL     1       6.522   4.112  22.954  0.00  0.00    +0.074 A 
ATOM      6  C   UNL     1       6.533   5.505  22.907  0.00  0.00    +0.092 A 
ATOM      7  C   UNL     1       5.340   6.214  22.709  0.00  0.00    +0.051 A 
ATOM      8  C   UNL     1       4.145   5.499  22.584  0.00  0.00    +0.061 A 
ATOM      9 CL   UNL     1       2.700   6.414  22.327  0.00  0.00    -0.082 Cl
ATOM     10  C   UNL     1       4.139   4.100  22.664  0.00  0.00    +0.061 A 
ATOM     11 CL   UNL     1       2.678   3.181  22.533  0.00  0.00    -0.082 Cl
ATOM     12  C   UNL     1       5.333   3.379  22.850  0.00  0.00    +0.049 A 
ATOM     13  N   UNL     1       7.799   5.995  23.081  0.00  0.00    -0.214 NA
ENDROOT
BRANCH   4  14
ATOM     14  C1* UNL     1       8.458   2.454  23.197  0.00  0.00    +0.254 C 
ATOM     15  O4* UNL     1       9.369   2.391  24.318  0.00  0.00    -0.346 OA
ATOM     16  C4* UNL     1      10.481   1.550  23.931  0.00  0.00    +0.177 C 
ATOM     17  C3* UNL     1      10.150   0.953  22.561  0.00  0.00    +0.178 C 
ATOM     18  C2* UNL     1       9.258   2.024  21.958  0.00  0.00    +0.195 C 
BRANCH  17  19
ATOM     19  O3* UNL     1       9.417  -0.277  22.675  0.00  0.00    -0.386 OA
ATOM     20  H3* UNL     1       8.508  -0.021  22.930  0.00  0.00    +0.210 HD
ENDBRANCH  17  19
BRANCH  18  21
ATOM     21  O2* UNL     1       8.507   1.476  20.876  0.00  0.00    -0.385 OA
ATOM     22  H2* UNL     1       7.900   2.163  20.542  0.00  0.00    +0.210 HD
ENDBRANCH  18  21
BRANCH  16  23
ATOM     23  C5* UNL     1      10.752   0.516  25.019  0.00  0.00    +0.190 C 
BRANCH  23  24
ATOM     24  O5* UNL     1       9.562   0.198  25.732  0.00  0.00    -0.392 OA
ATOM     25  H5* UNL     1       9.748   0.386  26.671  0.00  0.00    +0.210 HD
ENDBRANCH  23  24
ENDBRANCH  16  23
ENDBRANCH   4  14
BRANCH   1  27
ATOM     26  C   UNL     1       9.957   6.268  25.371  0.00  0.00    +0.027 C 
ATOM     27  C   UNL     1      10.527   6.123  23.961  0.00  0.00    +0.067 C 
ATOM     28  C   UNL     1      12.051   6.003  24.013  0.00  0.00    +0.027 C 
ENDBRANCH   1  27
TORSDOF 6
ENDMDL
MODEL 4
REMARK VINA RESULT:      -5.8      4.373      6.466
REMARK  Name = 
REMARK  8 active torsions:
REMARK  status: ('A' for Active; 'I' for Inactive)
REMARK    1  A    between atoms: C_1  and  C_2
REMARK    2  A    between atoms: C_2  and  C_3
REMARK    3  A    between atoms: C_2  and  N_4
REMARK    4  A    between atoms: N_13  and  C1*_14
REMARK    5  A    between atoms: C2*_16  and  O2*_26
REMARK    6  A    between atoms: C3*_18  and  O3*_25
REMARK    7  A    between atoms: C4*_20  and  C5*_23
REMARK    8  A    between atoms: C5*_23  and  O5*_24
REMARK                            x       y       z     vdW  Elec       q    Type
REMARK                         _______ _______ _______ _____ _____    ______ ____
ROOT
ATOM      1  N   UNL     1       5.685   0.758  25.982  0.00  0.00    -0.312 N 
ATOM      2  H   UNL     1       5.476   1.558  25.379  0.00  0.00    +0.149 HD
ATOM      3  C   UNL     1       5.659  -0.432  25.332  0.00  0.00    +0.199 A 
ATOM      4  N   UNL     1       6.691  -0.804  24.486  0.00  0.00    -0.283 N 
ATOM      5  C   UNL     1       6.396  -2.063  24.002  0.00  0.00    +0.074 A 
ATOM      6  C   UNL     1       5.154  -2.359  24.559  0.00  0.00    +0.092 A 
ATOM      7  C   UNL     1       4.506  -3.560  24.239  0.00  0.00    +0.051 A 
ATOM      8  C   UNL     1       5.139  -4.458  23.374  0.00  0.00    +0.061 A 
ATOM      9 CL   UNL     1       4.296  -5.921  22.997  0.00  0.00    -0.082 Cl
ATOM     10  C   UNL     1       6.403  -4.166  22.844  0.00  0.00    +0.061 A 
ATOM     11 CL   UNL     1       7.228  -5.260  21.786  0.00  0.00    -0.082 Cl
ATOM     12  C   UNL     1       7.056  -2.957  23.148  0.00  0.00    +0.049 A 
ATOM     13  N   UNL     1       4.737  -1.360  25.396  0.00  0.00    -0.214 NA
ENDROOT
BRANCH   4  14
ATOM     14  C1* UNL     1       7.856   0.028  24.240  0.00  0.00    +0.254 C 
ATOM     15  O4* UNL     1       8.131   0.121  22.823  0.00  0.00    -0.346 OA
ATOM     16  C4* UNL     1       9.567   0.156  22.659  0.00  0.00    +0.177 C 
ATOM     17  C3* UNL     1      10.188   0.242  24.055  0.00  0.00    +0.178 C 
ATOM     18  C2* UNL     1       9.148  -0.468  24.906  0.00  0.00    +0.195 C 
BRANCH  17  19
ATOM     19  O3* UNL     1      10.328   1.600  24.498  0.00  0.00    -0.386 OA
ATOM     20  H3* UNL     1      11.139   1.619  25.044  0.00  0.00    +0.210 HD
ENDBRANCH  17  19
BRANCH  18  21
ATOM     21  O2* UNL     1       9.329  -0.124  26.278  0.00  0.00    -0.385 OA
ATOM     22  H2* UNL     1       9.679   0.785  26.324  0.00  0.00    +0.210 HD
ENDBRANCH  18  21
BRANCH  16  23
ATOM     23  C5* UNL     1       9.954   1.301  21.728  0.00  0.00    +0.190 C 
BRANCH  23  24
ATOM     24  O5* UNL     1       8.994   2.349  21.777  0.00  0.00    -0.392 OA
ATOM     25  H5* UNL     1       9.500   3.181  21.818  0.00  0.00    +0.210 HD
ENDBRANCH  23  24
ENDBRANCH  16  23
ENDBRANCH   4  14
BRANCH   1  27
ATOM     26  C   UNL     1       5.870   0.945  28.389  0.00  0.00    +0.027 C 
ATOM     27  C   UNL     1       4.893   0.851  27.219  0.00  0.00    +0.067 C 
ATOM     28  C   UNL     1       3.973   2.072  27.193  0.00  0.00    +0.027 C 
ENDBRANCH   1  27
TORSDOF 6
ENDMDL
MODEL 5
REMARK VINA RESULT:      -5.6      4.444      6.722
REMARK  Name = 
REMARK  8 active torsions:
REMARK  status: ('A' for Active; 'I' for Inactive)
REMARK    1  A    between atoms: C_1  and  C_2
REMARK    2  A    between atoms: C_2  and  C_3
REMARK    3  A    between atoms: C_2  and  N_4
REMARK    4  A    between atoms: N_13  and  C1*_14
REMARK    5  A    between atoms: C2*_16  and  O2*_26
REMARK    6  A    between atoms: C3*_18  and  O3*_25
REMARK    7  A    between atoms: C4*_20  and  C5*_23
REMARK    8  A    between atoms: C5*_23  and  O5*_24
REMARK                            x       y       z     vdW  Elec       q    Type
REMARK                         _______ _______ _______ _____ _____    ______ ____
ROOT
ATOM      1  N   UNL     1       8.714   0.180  23.976  0.00  0.00    -0.312 N 
ATOM      2  H   UNL     1       8.851   0.336  24.978  0.00  0.00    +0.149 HD
ATOM      3  C   UNL     1       8.116  -1.004  23.689  0.00  0.00    +0.199 A 
ATOM      4  N   UNL     1       6.759  -1.187  23.901  0.00  0.00    -0.283 N 
ATOM      5  C   UNL     1       6.445  -2.467  23.493  0.00  0.00    +0.074 A 
ATOM      6  C   UNL     1       7.667  -3.006  23.096  0.00  0.00    +0.092 A 
ATOM      7  C   UNL     1       7.742  -4.337  22.662  0.00  0.00    +0.051 A 
ATOM      8  C   UNL     1       6.570  -5.098  22.613  0.00  0.00    +0.061 A 
ATOM      9 CL   UNL     1       6.713  -6.739  22.085  0.00  0.00    -0.082 Cl
ATOM     10  C   UNL     1       5.341  -4.536  22.984  0.00  0.00    +0.061 A 
ATOM     11 CL   UNL     1       3.865  -5.439  22.920  0.00  0.00    -0.082 Cl
ATOM     12  C   UNL     1       5.256  -3.206  23.433  0.00  0.00    +0.049 A 
ATOM     13  N   UNL     1       8.670  -2.082  23.194  0.00  0.00    -0.214 NA
ENDROOT
BRANCH   4  14
ATOM     14  C1* UNL     1       5.891  -0.148  24.428  0.00  0.00    +0.254 C 
ATOM     15  O4* UNL     1       6.072   1.090  23.703  0.00  0.00    -0.346 OA
ATOM     16  C4* UNL     1       5.937   2.174  24.650  0.00  0.00    +0.177 C 
ATOM     17  C3* UNL     1       5.501   1.567  25.985  0.00  0.00    +0.178 C 
ATOM     18  C2* UNL     1       6.111   0.178  25.913  0.00  0.00    +0.195 C 
BRANCH  17  19
ATOM     19  O3* UNL     1       4.073   1.463  26.086  0.00  0.00    -0.386 OA
ATOM     20  H3* UNL     1       3.905   0.749  26.734  0.00  0.00    +0.210 HD
ENDBRANCH  17  19
BRANCH  18  21
ATOM     21  O2* UNL     1       5.470  -0.681  26.854  0.00  0.00    -0.385 OA
ATOM     22  H2* UNL     1       5.246  -1.517  26.405  0.00  0.00    +0.210 HD
ENDBRANCH  18  21
BRANCH  16  23
ATOM     23  C5* UNL     1       4.982   3.228  24.097  0.00  0.00    +0.190 C 
BRANCH  23  24
ATOM     24  O5* UNL     1       3.881   2.623  23.431  0.00  0.00    -0.392 OA
ATOM     25  H5* UNL     1       3.235   2.393  24.125  0.00  0.00    +0.210 HD
ENDBRANCH  23  24
ENDBRANCH  16  23
ENDBRANCH   4  14
BRANCH   1  27
ATOM     26  C   UNL     1       9.582   1.230  21.975  0.00  0.00    +0.027 C 
ATOM     27  C   UNL     1       9.959   0.482  23.252  0.00  0.00    +0.067 C 
ATOM     28  C   UNL     1      10.901   1.330  24.108  0.00  0.00    +0.027 C 
ENDBRANCH   1  27
TORSDOF 6
ENDMDL
MODEL 6
REMARK VINA RESULT:      -5.6      2.857      4.362
REMARK  Name = 
REMARK  8 active torsions:
REMARK  status: ('A' for Active; 'I' for Inactive)
REMARK    1  A    between atoms: C_1  and  C_2
REMARK    2  A    between atoms: C_2  and  C_3
REMARK    3  A    between atoms: C_2  and  N_4
REMARK    4  A    between atoms: N_13  and  C1*_14
REMARK    5  A    between atoms: C2*_16  and  O2*_26
REMARK    6  A    between atoms: C3*_18  and  O3*_25
REMARK    7  A    between atoms: C4*_20  and  C5*_23
REMARK    8  A    between atoms: C5*_23  and  O5*_24
REMARK                            x       y       z     vdW  Elec       q    Type
REMARK                         _______ _______ _______ _____ _____    ______ ____
ROOT
ATOM      1  N   UNL     1       6.379  -4.111  22.697  0.00  0.00    -0.312 N 
ATOM      2  H   UNL     1       5.394  -4.047  22.425  0.00  0.00    +0.149 HD
ATOM      3  C   UNL     1       6.988  -2.904  22.811  0.00  0.00    +0.199 A 
ATOM      4  N   UNL     1       6.744  -2.082  23.899  0.00  0.00    -0.283 N 
ATOM      5  C   UNL     1       7.522  -0.953  23.748  0.00  0.00    +0.074 A 
ATOM      6  C   UNL     1       8.166  -1.144  22.527  0.00  0.00    +0.092 A 
ATOM      7  C   UNL     1       9.014  -0.153  22.014  0.00  0.00    +0.051 A 
ATOM      8  C   UNL     1       9.217   1.012  22.760  0.00  0.00    +0.061 A 
ATOM      9 CL   UNL     1      10.261   2.213  22.081  0.00  0.00    -0.082 Cl
ATOM     10  C   UNL     1       8.591   1.182  24.002  0.00  0.00    +0.061 A 
ATOM     11 CL   UNL     1       8.833   2.601  24.964  0.00  0.00    -0.082 Cl
ATOM     12  C   UNL     1       7.728   0.199  24.519  0.00  0.00    +0.049 A 
ATOM     13  N   UNL     1       7.848  -2.360  21.987  0.00  0.00    -0.214 NA
ENDROOT
BRANCH   4  14
ATOM     14  C1* UNL     1       5.843  -2.443  24.980  0.00  0.00    +0.254 C 
ATOM     15  O4* UNL     1       4.907  -1.373  25.246  0.00  0.00    -0.346 OA
ATOM     16  C4* UNL     1       4.672  -1.343  26.673  0.00  0.00    +0.177 C 
ATOM     17  C3* UNL     1       5.385  -2.553  27.281  0.00  0.00    +0.178 C 
ATOM     18  C2* UNL     1       6.537  -2.759  26.313  0.00  0.00    +0.195 C 
BRANCH  17  19
ATOM     19  O3* UNL     1       4.548  -3.720  27.291  0.00  0.00    -0.386 OA
ATOM     20  H3* UNL     1       4.248  -3.838  26.367  0.00  0.00    +0.210 HD
ENDBRANCH  17  19
BRANCH  18  21
ATOM     21  O2* UNL     1       7.061  -4.078  26.459  0.00  0.00    -0.385 OA
ATOM     22  H2* UNL     1       6.332  -4.673  26.712  0.00  0.00    +0.210 HD
ENDBRANCH  18  21
BRANCH  16  23
ATOM     23  C5* UNL     1       3.173  -1.292  26.950  0.00  0.00    +0.190 C 
BRANCH  23  24
ATOM     24  O5* UNL     1       2.450  -2.077  26.009  0.00  0.00    -0.392 OA
ATOM     25  H5* UNL     1       3.016  -2.843  25.802  0.00  0.00    +0.210 HD
ENDBRANCH  23  24
ENDBRANCH  16  23
ENDBRANCH   4  14
BRANCH   1  27
ATOM     26  C   UNL     1       7.703  -6.135  22.802  0.00  0.00    +0.027 C 
ATOM     27  C   UNL     1       7.058  -5.116  21.865  0.00  0.00    +0.067 C 
ATOM     28  C   UNL     1       6.071  -5.809  20.924  0.00  0.00    +0.027 C 
ENDBRANCH   1  27
TORSDOF 6
ENDMDL
MODEL 7
REMARK VINA RESULT:      -5.5      1.797      2.335
REMARK  Name = 
REMARK  8 active torsions:
REMARK  status: ('A' for Active; 'I' for Inactive)
REMARK    1  A    between atoms: C_1  and  C_2
REMARK    2  A    between atoms: C_2  and  C_3
REMARK    3  A    between atoms: C_2  and  N_4
REMARK    4  A    between atoms: N_13  and  C1*_14
REMARK    5  A    between atoms: C2*_16  and  O2*_26
REMARK    6  A    between atoms: C3*_18  and  O3*_25
REMARK    7  A    between atoms: C4*_20  and  C5*_23
REMARK    8  A    between atoms: C5*_23  and  O5*_24
REMARK                            x       y       z     vdW  Elec       q    Type
REMARK                         _______ _______ _______ _____ _____    ______ ____
ROOT
ATOM      1  N   UNL     1       5.748  -2.702  26.101  0.00  0.00    -0.312 N 
ATOM      2  H   UNL     1       6.310  -3.406  26.588  0.00  0.00    +0.149 HD
ATOM      3  C   UNL     1       6.484  -1.691  25.576  0.00  0.00    +0.199 A 
ATOM      4  N   UNL     1       7.237  -1.879  24.428  0.00  0.00    -0.283 N 
ATOM      5  C   UNL     1       7.843  -0.676  24.128  0.00  0.00    +0.074 A 
ATOM      6  C   UNL     1       7.449   0.171  25.162  0.00  0.00    +0.092 A 
ATOM      7  C   UNL     1       7.926   1.487  25.217  0.00  0.00    +0.051 A 
ATOM      8  C   UNL     1       8.781   1.937  24.205  0.00  0.00    +0.061 A 
ATOM      9 CL   UNL     1       9.356   3.564  24.321  0.00  0.00    -0.082 Cl
ATOM     10  C   UNL     1       9.146   1.088  23.152  0.00  0.00    +0.061 A 
ATOM     11 CL   UNL     1      10.186   1.613  21.871  0.00  0.00    -0.082 Cl
ATOM     12  C   UNL     1       8.683  -0.239  23.095  0.00  0.00    +0.049 A 
ATOM     13  N   UNL     1       6.591  -0.463  26.019  0.00  0.00    -0.214 NA
ENDROOT
BRANCH   4  14
ATOM     14  C1* UNL     1       7.291  -3.142  23.712  0.00  0.00    +0.254 C 
ATOM     15  O4* UNL     1       5.959  -3.629  23.430  0.00  0.00    -0.346 OA
ATOM     16  C4* UNL     1       5.989  -5.071  23.541  0.00  0.00    +0.177 C 
ATOM     17  C3* UNL     1       7.447  -5.486  23.751  0.00  0.00    +0.178 C 
ATOM     18  C2* UNL     1       8.021  -4.270  24.458  0.00  0.00    +0.195 C 
BRANCH  17  19
ATOM     19  O3* UNL     1       8.132  -5.689  22.506  0.00  0.00    -0.386 OA
ATOM     20  H3* UNL     1       7.437  -5.916  21.855  0.00  0.00    +0.210 HD
ENDBRANCH  17  19
BRANCH  18  21
ATOM     21  O2* UNL     1       9.444  -4.280  24.359  0.00  0.00    -0.385 OA
ATOM     22  H2* UNL     1       9.731  -5.183  24.131  0.00  0.00    +0.210 HD
ENDBRANCH  18  21
BRANCH  16  23
ATOM     23  C5* UNL     1       5.327  -5.698  22.317  0.00  0.00    +0.190 C 
BRANCH  23  24
ATOM     24  O5* UNL     1       5.700  -5.015  21.126  0.00  0.00    -0.392 OA
ATOM     25  H5* UNL     1       6.492  -4.490  21.349  0.00  0.00    +0.210 HD
ENDBRANCH  23  24
ENDBRANCH  16  23
ENDBRANCH   4  14
BRANCH   1  27
ATOM     26  C   UNL     1       3.332  -2.556  26.127  0.00  0.00    +0.027 C 
ATOM     27  C   UNL     1       4.602  -2.316  26.940  0.00  0.00    +0.067 C 
ATOM     28  C   UNL     1       4.569  -3.131  28.233  0.00  0.00    +0.027 C 
ENDBRANCH   1  27
TORSDOF 6
ENDMDL
MODEL 8
REMARK VINA RESULT:      -5.4      4.930      6.882
REMARK  Name = 
REMARK  8 active torsions:
REMARK  status: ('A' for Active; 'I' for Inactive)
REMARK    1  A    between atoms: C_1  and  C_2
REMARK    2  A    between atoms: C_2  and  C_3
REMARK    3  A    between atoms: C_2  and  N_4
REMARK    4  A    between atoms: N_13  and  C1*_14
REMARK    5  A    between atoms: C2*_16  and  O2*_26
REMARK    6  A    between atoms: C3*_18  and  O3*_25
REMARK    7  A    between atoms: C4*_20  and  C5*_23
REMARK    8  A    between atoms: C5*_23  and  O5*_24
REMARK                            x       y       z     vdW  Elec       q    Type
REMARK                         _______ _______ _______ _____ _____    ______ ____
ROOT
ATOM      1  N   UNL     1       8.116  -0.282  23.244  0.00  0.00    -0.312 N 
ATOM      2  H   UNL     1       7.514  -0.338  22.418  0.00  0.00    +0.149 HD
ATOM      3  C   UNL     1       8.750   0.911  23.371  0.00  0.00    +0.199 A 
ATOM      4  N   UNL     1       8.067   2.039  23.796  0.00  0.00    -0.283 N 
ATOM      5  C   UNL     1       8.976   3.076  23.853  0.00  0.00    +0.074 A 
ATOM      6  C   UNL     1      10.167   2.510  23.403  0.00  0.00    +0.092 A 
ATOM      7  C   UNL     1      11.319   3.298  23.275  0.00  0.00    +0.051 A 
ATOM      8  C   UNL     1      11.253   4.650  23.629  0.00  0.00    +0.061 A 
ATOM      9 CL   UNL     1      12.695   5.587  23.441  0.00  0.00    -0.082 Cl
ATOM     10  C   UNL     1      10.059   5.203  24.110  0.00  0.00    +0.061 A 
ATOM     11 CL   UNL     1       9.943   6.866  24.577  0.00  0.00    -0.082 Cl
ATOM     12  C   UNL     1       8.894   4.423  24.230  0.00  0.00    +0.049 A 
ATOM     13  N   UNL     1      10.013   1.175  23.145  0.00  0.00    -0.214 NA
ENDROOT
BRANCH   4  14
ATOM     14  C1* UNL     1       6.655   2.031  24.135  0.00  0.00    +0.254 C 
ATOM     15  O4* UNL     1       5.955   3.091  23.444  0.00  0.00    -0.346 OA
ATOM     16  C4* UNL     1       4.933   3.593  24.335  0.00  0.00    +0.177 C 
ATOM     17  C3* UNL     1       4.915   2.689  25.570  0.00  0.00    +0.178 C 
ATOM     18  C2* UNL     1       6.356   2.212  25.631  0.00  0.00    +0.195 C 
BRANCH  17  19
ATOM     19  O3* UNL     1       4.040   1.564  25.398  0.00  0.00    -0.386 OA
ATOM     20  H3* UNL     1       3.855   1.516  24.439  0.00  0.00    +0.210 HD
ENDBRANCH  17  19
BRANCH  18  21
ATOM     21  O2* UNL     1       6.444   1.043  26.443  0.00  0.00    -0.385 OA
ATOM     22  H2* UNL     1       5.560   0.854  26.809  0.00  0.00    +0.210 HD
ENDBRANCH  18  21
BRANCH  16  23
ATOM     23  C5* UNL     1       3.599   3.678  23.599  0.00  0.00    +0.190 C 
BRANCH  23  24
ATOM     24  O5* UNL     1       3.457   2.608  22.672  0.00  0.00    -0.392 OA
ATOM     25  H5* UNL     1       3.795   2.939  21.819  0.00  0.00    +0.210 HD
ENDBRANCH  23  24
ENDBRANCH  16  23
ENDBRANCH   4  14
BRANCH   1  27
ATOM     26  C   UNL     1       9.062  -1.878  24.800  0.00  0.00    +0.027 C 
ATOM     27  C   UNL     1       8.956  -1.487  23.328  0.00  0.00    +0.067 C 
ATOM     28  C   UNL     1       8.355  -2.634  22.514  0.00  0.00    +0.027 C 
ENDBRANCH   1  27
TORSDOF 6
ENDMDL
MODEL 9
REMARK VINA RESULT:      -5.3      4.569      7.189
REMARK  Name = 
REMARK  8 active torsions:
REMARK  status: ('A' for Active; 'I' for Inactive)
REMARK    1  A    between atoms: C_1  and  C_2
REMARK    2  A    between atoms: C_2  and  C_3
REMARK    3  A    between atoms: C_2  and  N_4
REMARK    4  A    between atoms: N_13  and  C1*_14
REMARK    5  A    between atoms: C2*_16  and  O2*_26
REMARK    6  A    between atoms: C3*_18  and  O3*_25
REMARK    7  A    between atoms: C4*_20  and  C5*_23
REMARK    8  A    between atoms: C5*_23  and  O5*_24
REMARK                            x       y       z     vdW  Elec       q    Type
REMARK                         _______ _______ _______ _____ _____    ______ ____
ROOT
ATOM      1  N   UNL     1       9.007   1.316  23.837  0.00  0.00    -0.312 N 
ATOM      2  H   UNL     1       9.547   1.907  24.475  0.00  0.00    +0.149 HD
ATOM      3  C   UNL     1       8.898   0.030  24.255  0.00  0.00    +0.199 A 
ATOM      4  N   UNL     1       8.044  -0.313  25.290  0.00  0.00    -0.283 N 
ATOM      5  C   UNL     1       8.129  -1.680  25.463  0.00  0.00    +0.074 A 
ATOM      6  C   UNL     1       9.087  -2.080  24.534  0.00  0.00    +0.092 A 
ATOM      7  C   UNL     1       9.478  -3.424  24.459  0.00  0.00    +0.051 A 
ATOM      8  C   UNL     1       8.873  -4.351  25.315  0.00  0.00    +0.061 A 
ATOM      9 CL   UNL     1       9.397  -5.995  25.197  0.00  0.00    -0.082 Cl
ATOM     10  C   UNL     1       7.888  -3.943  26.224  0.00  0.00    +0.061 A 
ATOM     11 CL   UNL     1       7.103  -5.063  27.287  0.00  0.00    -0.082 Cl
ATOM     12  C   UNL     1       7.498  -2.595  26.316  0.00  0.00    +0.049 A 
ATOM     13  N   UNL     1       9.520  -1.022  23.783  0.00  0.00    -0.214 NA
ENDROOT
BRANCH   4  14
ATOM     14  C1* UNL     1       7.214   0.654  25.988  0.00  0.00    +0.254 C 
ATOM     15  O4* UNL     1       7.483   0.631  27.409  0.00  0.00    -0.346 OA
ATOM     16  C4* UNL     1       6.232   0.865  28.095  0.00  0.00    +0.177 C 
ATOM     17  C3* UNL     1       5.181   1.197  27.033  0.00  0.00    +0.178 C 
ATOM     18  C2* UNL     1       5.702   0.436  25.825  0.00  0.00    +0.195 C 
BRANCH  17  19
ATOM     19  O3* UNL     1       5.142   2.602  26.738  0.00  0.00    -0.386 OA
ATOM     20  H3* UNL     1       5.088   3.053  27.604  0.00  0.00    +0.210 HD
ENDBRANCH  17  19
BRANCH  18  21
ATOM     21  O2* UNL     1       5.111   0.953  24.635  0.00  0.00    -0.385 OA
ATOM     22  H2* UNL     1       4.565   0.253  24.233  0.00  0.00    +0.210 HD
ENDBRANCH  18  21
BRANCH  16  23
ATOM     23  C5* UNL     1       6.416   1.945  29.156  0.00  0.00    +0.190 C 
BRANCH  23  24
ATOM     24  O5* UNL     1       7.447   2.854  28.789  0.00  0.00    -0.392 OA
ATOM     25  H5* UNL     1       7.066   3.438  28.106  0.00  0.00    +0.210 HD
ENDBRANCH  23  24
ENDBRANCH  16  23
ENDBRANCH   4  14
BRANCH   1  27
ATOM     26  C   UNL     1       8.254   1.868  21.604  0.00  0.00    +0.027 C 
ATOM     27  C   UNL     1       9.473   1.523  22.457  0.00  0.00    +0.067 C 
ATOM     28  C   UNL     1      10.507   2.647  22.388  0.00  0.00    +0.027 C 
ENDBRANCH   1  27
TORSDOF 6
ENDMDL
