MODEL 1
REMARK VINA RESULT:      -7.5      0.000      0.000
REMARK  Name = 
REMARK  17 active torsions:
REMARK  status: ('A' for Active; 'I' for Inactive)
REMARK    1  A    between atoms: C_1  and  C_2
REMARK    2  A    between atoms: C_2  and  C_3
REMARK    3  A    between atoms: C_2  and  C_4
REMARK    4  A    between atoms: C_2  and  N_5
REMARK    5  A    between atoms: C_6  and  C_8
REMARK    6  A    between atoms: N_10  and  C_43
REMARK    7  A    between atoms: N_13  and  C_14
REMARK    8  A    between atoms: C_14  and  C_15
REMARK    9  A    between atoms: C_15  and  C_17
REMARK   10  A    between atoms: C_15  and  O_42
REMARK   11  A    between atoms: C_17  and  C_18
REMARK   12  A    between atoms: C_18  and  C_20
REMARK   13  A    between atoms: C_18  and  C_27
REMARK   14  A    between atoms: C_20  and  C_21
REMARK   15  A    between atoms: N_29  and  C_30
REMARK   16  A    between atoms: C_32  and  O_41
REMARK   17  A    between atoms: C_43  and  C_44
REMARK                            x       y       z     vdW  Elec       q    Type
REMARK                         _______ _______ _______ _____ _____    ______ ____
ROOT
ATOM      1  C   UNL     1       6.215  -1.701  27.118  0.00  0.00    +0.129 C 
ENDROOT
BRANCH   1   2
ATOM      2  O   UNL     1       5.153  -2.545  27.595  0.00  0.00    -0.391 OA
ATOM      3  H   UNL     1       4.326  -2.035  27.552  0.00  0.00    +0.210 HD
ENDBRANCH   1   2
BRANCH   1   4
ATOM      4  C   UNL     1       5.592  -0.288  26.845  0.00  0.00    +0.116 C 
BRANCH   4   6
ATOM      5  C   UNL     1       5.789   2.247  26.584  0.00  0.00    +0.157 C 
ATOM      6  N   UNL     1       6.513   0.910  26.704  0.00  0.00    -0.287 NA
ATOM      7  C   UNL     1       7.354   0.707  25.483  0.00  0.00    +0.100 C 
ATOM      8  C   UNL     1       6.673   0.996  24.126  0.00  0.00    +0.100 C 
ATOM      9  N   UNL     1       6.278   2.404  24.116  0.00  0.00    -0.295 NA
ATOM     10  C   UNL     1       5.248   2.607  25.158  0.00  0.00    +0.113 C 
BRANCH   5  13
ATOM     11  N   UNL     1       6.595   4.630  26.311  0.00  0.00    -0.309 N 
ATOM     12  H   UNL     1       6.066   4.535  25.454  0.00  0.00    +0.149 HD
ATOM     13  C   UNL     1       6.638   3.481  27.080  0.00  0.00    +0.232 C 
ATOM     14  O   UNL     1       7.307   3.429  28.111  0.00  0.00    -0.274 OA
BRANCH  11  16
ATOM     15  C   UNL     1       8.728   5.886  25.961  0.00  0.00    +0.031 C 
ATOM     16  C   UNL     1       7.317   5.897  26.574  0.00  0.00    +0.026 C 
ATOM     17  C   UNL     1       6.522   7.041  25.916  0.00  0.00    +0.031 C 
ATOM     18  C   UNL     1       7.436   6.212  28.078  0.00  0.00    +0.031 C 
ENDBRANCH  11  16
ENDBRANCH   5  13
BRANCH   9  19
ATOM     19  C   UNL     1       5.925   2.903  22.784  0.00  0.00    +0.121 C 
BRANCH  19  20
ATOM     20  C   UNL     1       6.134   4.392  22.608  0.00  0.00    -0.015 A 
ATOM     21  C   UNL     1       7.369   4.952  22.258  0.00  0.00    +0.008 A 
ATOM     22  C   UNL     1       7.489   6.327  22.079  0.00  0.00    +0.020 A 
ATOM     23  C   UNL     1       6.357   7.106  22.222  0.00  0.00    +0.111 A 
ATOM     24  N   UNL     1       5.137   6.609  22.522  0.00  0.00    -0.263 NA
ATOM     25  C   UNL     1       5.057   5.269  22.705  0.00  0.00    +0.115 A 
ENDBRANCH  19  20
ENDBRANCH   9  19
ENDBRANCH   4   6
ENDBRANCH   1   4
BRANCH   1  26
ATOM     26  C   UNL     1       6.812  -2.461  25.886  0.00  0.00    +0.045 C 
BRANCH  26  27
ATOM     27  C   UNL     1       7.982  -3.462  26.068  0.00  0.00    +0.082 C 
BRANCH  27  28
ATOM     28  C   UNL     1       9.097  -3.260  25.011  0.00  0.00    +0.217 C 
ATOM     29  N   UNL     1       9.153  -1.995  24.463  0.00  0.00    -0.306 N 
ATOM     30  H   UNL     1       8.635  -1.245  24.894  0.00  0.00    +0.149 HD
ATOM     31  O   UNL     1       9.790  -4.170  24.567  0.00  0.00    -0.275 OA
BRANCH  29  32
ATOM     32  C   UNL     1       9.970  -1.618  23.306  0.00  0.00    +0.132 C 
ATOM     33  C   UNL     1      10.210  -0.128  23.303  0.00  0.00    -0.022 A 
ATOM     34  C   UNL     1       9.710   0.492  22.157  0.00  0.00    -0.040 A 
ATOM     35  C   UNL     1       9.792   1.870  21.988  0.00  0.00    +0.004 A 
ATOM     36  C   UNL     1      10.391   2.633  22.992  0.00  0.00    +0.000 A 
ATOM     37  C   UNL     1      10.907   2.014  24.135  0.00  0.00    +0.000 A 
ATOM     38  C   UNL     1       9.098  -0.484  21.210  0.00  0.00    +0.069 C 
ATOM     39  C   UNL     1      10.827   0.627  24.293  0.00  0.00    +0.006 A 
ATOM     40  C   UNL     1       9.318  -1.854  21.893  0.00  0.00    +0.143 C 
BRANCH  40  41
ATOM     41  O   UNL     1       8.072  -2.553  21.945  0.00  0.00    -0.389 OA
ATOM     42  H   UNL     1       7.518  -2.052  22.577  0.00  0.00    +0.210 HD
ENDBRANCH  40  41
ENDBRANCH  29  32
ENDBRANCH  27  28
BRANCH  27  43
ATOM     43  C   UNL     1       7.588  -4.937  26.307  0.00  0.00    +0.048 C 
BRANCH  43  44
ATOM     44  C   UNL     1       6.402  -5.647  25.683  0.00  0.00    -0.047 A 
ATOM     45  C   UNL     1       6.287  -5.556  24.278  0.00  0.00    +0.003 A 
ATOM     46  C   UNL     1       5.224  -6.134  23.581  0.00  0.00    +0.000 A 
ATOM     47  C   UNL     1       4.225  -6.794  24.282  0.00  0.00    +0.000 A 
ATOM     48  C   UNL     1       4.283  -6.844  25.676  0.00  0.00    +0.000 A 
ATOM     49  C   UNL     1       5.360  -6.268  26.378  0.00  0.00    +0.003 A 
ENDBRANCH  43  44
ENDBRANCH  27  43
ENDBRANCH  26  27
ENDBRANCH   1  26
TORSDOF 14
ENDMDL
MODEL 2
REMARK VINA RESULT:      -7.3      2.874      8.678
REMARK  Name = 
REMARK  17 active torsions:
REMARK  status: ('A' for Active; 'I' for Inactive)
REMARK    1  A    between atoms: C_1  and  C_2
REMARK    2  A    between atoms: C_2  and  C_3
REMARK    3  A    between atoms: C_2  and  C_4
REMARK    4  A    between atoms: C_2  and  N_5
REMARK    5  A    between atoms: C_6  and  C_8
REMARK    6  A    between atoms: N_10  and  C_43
REMARK    7  A    between atoms: N_13  and  C_14
REMARK    8  A    between atoms: C_14  and  C_15
REMARK    9  A    between atoms: C_15  and  C_17
REMARK   10  A    between atoms: C_15  and  O_42
REMARK   11  A    between atoms: C_17  and  C_18
REMARK   12  A    between atoms: C_18  and  C_20
REMARK   13  A    between atoms: C_18  and  C_27
REMARK   14  A    between atoms: C_20  and  C_21
REMARK   15  A    between atoms: N_29  and  C_30
REMARK   16  A    between atoms: C_32  and  O_41
REMARK   17  A    between atoms: C_43  and  C_44
REMARK                            x       y       z     vdW  Elec       q    Type
REMARK                         _______ _______ _______ _____ _____    ______ ____
ROOT
ATOM      1  C   UNL     1       9.265  -1.542  23.216  0.00  0.00    +0.129 C 
ENDROOT
BRANCH   1   2
ATOM      2  O   UNL     1      10.376  -2.322  23.691  0.00  0.00    -0.391 OA
ATOM      3  H   UNL     1      10.072  -3.240  23.796  0.00  0.00    +0.210 HD
ENDBRANCH   1   2
BRANCH   1   4
ATOM      4  C   UNL     1       8.067  -2.532  23.003  0.00  0.00    +0.116 C 
BRANCH   4   6
ATOM      5  C   UNL     1       7.299  -4.347  24.630  0.00  0.00    +0.157 C 
ATOM      6  N   UNL     1       7.188  -2.892  24.187  0.00  0.00    -0.287 NA
ATOM      7  C   UNL     1       5.766  -2.611  23.812  0.00  0.00    +0.100 C 
ATOM      8  C   UNL     1       5.077  -3.656  22.906  0.00  0.00    +0.100 C 
ATOM      9  N   UNL     1       5.061  -4.929  23.625  0.00  0.00    -0.295 NA
ATOM     10  C   UNL     1       6.458  -5.381  23.805  0.00  0.00    +0.113 C 
BRANCH   5  13
ATOM     11  N   UNL     1       5.724  -5.149  26.442  0.00  0.00    -0.309 N 
ATOM     12  H   UNL     1       5.135  -5.296  25.633  0.00  0.00    +0.149 HD
ATOM     13  C   UNL     1       6.952  -4.580  26.152  0.00  0.00    +0.232 C 
ATOM     14  O   UNL     1       7.739  -4.275  27.046  0.00  0.00    -0.274 OA
BRANCH  11  16
ATOM     15  C   UNL     1       4.832  -4.159  28.557  0.00  0.00    +0.031 C 
ATOM     16  C   UNL     1       5.184  -5.445  27.789  0.00  0.00    +0.026 C 
ATOM     17  C   UNL     1       3.890  -6.261  27.612  0.00  0.00    +0.031 C 
ATOM     18  C   UNL     1       6.153  -6.282  28.647  0.00  0.00    +0.031 C 
ENDBRANCH  11  16
ENDBRANCH   5  13
BRANCH   9  19
ATOM     19  C   UNL     1       4.155  -5.921  23.041  0.00  0.00    +0.121 C 
BRANCH  19  20
ATOM     20  C   UNL     1       2.938  -6.222  23.890  0.00  0.00    -0.015 A 
ATOM     21  C   UNL     1       2.592  -7.518  24.292  0.00  0.00    +0.008 A 
ATOM     22  C   UNL     1       1.478  -7.727  25.098  0.00  0.00    +0.020 A 
ATOM     23  C   UNL     1       0.755  -6.624  25.512  0.00  0.00    +0.111 A 
ATOM     24  N   UNL     1       1.070  -5.353  25.181  0.00  0.00    -0.263 NA
ATOM     25  C   UNL     1       2.151  -5.185  24.382  0.00  0.00    +0.115 A 
ENDBRANCH  19  20
ENDBRANCH   9  19
ENDBRANCH   4   6
ENDBRANCH   1   4
BRANCH   1  26
ATOM     26  C   UNL     1       9.805  -0.802  21.947  0.00  0.00    +0.045 C 
BRANCH  26  27
ATOM     27  C   UNL     1       9.699   0.741  21.828  0.00  0.00    +0.082 C 
BRANCH  27  28
ATOM     28  C   UNL     1      10.241   1.465  23.086  0.00  0.00    +0.217 C 
ATOM     29  N   UNL     1      10.045   2.831  23.097  0.00  0.00    -0.306 N 
ATOM     30  H   UNL     1       9.415   3.247  22.429  0.00  0.00    +0.149 HD
ATOM     31  O   UNL     1      10.926   0.920  23.946  0.00  0.00    -0.275 OA
BRANCH  29  32
ATOM     32  C   UNL     1      10.647   3.756  24.062  0.00  0.00    +0.132 C 
ATOM     33  C   UNL     1       9.611   4.735  24.558  0.00  0.00    -0.022 A 
ATOM     34  C   UNL     1       9.947   6.060  24.273  0.00  0.00    -0.040 A 
ATOM     35  C   UNL     1       9.097   7.108  24.609  0.00  0.00    +0.004 A 
ATOM     36  C   UNL     1       7.889   6.813  25.244  0.00  0.00    +0.000 A 
ATOM     37  C   UNL     1       7.556   5.488  25.545  0.00  0.00    +0.000 A 
ATOM     38  C   UNL     1      11.264   6.170  23.582  0.00  0.00    +0.069 C 
ATOM     39  C   UNL     1       8.421   4.441  25.212  0.00  0.00    +0.006 A 
ATOM     40  C   UNL     1      11.766   4.710  23.501  0.00  0.00    +0.143 C 
BRANCH  40  41
ATOM     41  O   UNL     1      12.142   4.421  22.152  0.00  0.00    -0.389 OA
ATOM     42  H   UNL     1      12.853   5.059  21.938  0.00  0.00    +0.210 HD
ENDBRANCH  40  41
ENDBRANCH  29  32
ENDBRANCH  27  28
BRANCH  27  43
ATOM     43  C   UNL     1       8.356   1.295  21.301  0.00  0.00    +0.048 C 
BRANCH  43  44
ATOM     44  C   UNL     1       7.236   1.859  22.155  0.00  0.00    -0.047 A 
ATOM     45  C   UNL     1       6.832   3.180  21.862  0.00  0.00    +0.003 A 
ATOM     46  C   UNL     1       5.837   3.831  22.593  0.00  0.00    +0.000 A 
ATOM     47  C   UNL     1       5.240   3.182  23.665  0.00  0.00    +0.000 A 
ATOM     48  C   UNL     1       5.667   1.899  24.013  0.00  0.00    +0.000 A 
ATOM     49  C   UNL     1       6.665   1.240  23.270  0.00  0.00    +0.003 A 
ENDBRANCH  43  44
ENDBRANCH  27  43
ENDBRANCH  26  27
ENDBRANCH   1  26
TORSDOF 14
ENDMDL
MODEL 3
REMARK VINA RESULT:      -7.1      2.541      6.644
REMARK  Name = 
REMARK  17 active torsions:
REMARK  status: ('A' for Active; 'I' for Inactive)
REMARK    1  A    between atoms: C_1  and  C_2
REMARK    2  A    between atoms: C_2  and  C_3
REMARK    3  A    between atoms: C_2  and  C_4
REMARK    4  A    between atoms: C_2  and  N_5
REMARK    5  A    between atoms: C_6  and  C_8
REMARK    6  A    between atoms: N_10  and  C_43
REMARK    7  A    between atoms: N_13  and  C_14
REMARK    8  A    between atoms: C_14  and  C_15
REMARK    9  A    between atoms: C_15  and  C_17
REMARK   10  A    between atoms: C_15  and  O_42
REMARK   11  A    between atoms: C_17  and  C_18
REMARK   12  A    between atoms: C_18  and  C_20
REMARK   13  A    between atoms: C_18  and  C_27
REMARK   14  A    between atoms: C_20  and  C_21
REMARK   15  A    between atoms: N_29  and  C_30
REMARK   16  A    between atoms: C_32  and  O_41
REMARK   17  A    between atoms: C_43  and  C_44
REMARK                            x       y       z     vdW  Elec       q    Type
REMARK                         _______ _______ _______ _____ _____    ______ ____
ROOT
ATOM      1  C   UNL     1       9.012  -3.353  24.623  0.00  0.00    +0.129 C 
ENDROOT
BRANCH   1   2
ATOM      2  O   UNL     1      10.090  -4.296  24.487  0.00  0.00    -0.391 OA
ATOM      3  H   UNL     1       9.838  -5.106  24.964  0.00  0.00    +0.210 HD
ENDBRANCH   1   2
BRANCH   1   4
ATOM      4  C   UNL     1       9.491  -2.009  23.971  0.00  0.00    +0.116 C 
BRANCH   4   6
ATOM      5  C   UNL     1       8.251   0.066  23.144  0.00  0.00    +0.157 C 
ATOM      6  N   UNL     1       8.784  -0.718  24.338  0.00  0.00    -0.287 NA
ATOM      7  C   UNL     1       9.752   0.145  25.086  0.00  0.00    +0.100 C 
ATOM      8  C   UNL     1      10.804   0.892  24.234  0.00  0.00    +0.100 C 
ATOM      9  N   UNL     1      10.088   1.784  23.323  0.00  0.00    -0.295 NA
ATOM     10  C   UNL     1       9.295   0.957  22.387  0.00  0.00    +0.113 C 
BRANCH   5  13
ATOM     11  N   UNL     1       7.094   2.316  23.097  0.00  0.00    -0.309 N 
ATOM     12  H   UNL     1       7.981   2.578  22.688  0.00  0.00    +0.149 HD
ATOM     13  C   UNL     1       7.018   0.990  23.484  0.00  0.00    +0.232 C 
ATOM     14  O   UNL     1       6.026   0.552  24.064  0.00  0.00    -0.274 OA
BRANCH  11  16
ATOM     15  C   UNL     1       5.899   3.681  24.818  0.00  0.00    +0.031 C 
ATOM     16  C   UNL     1       6.069   3.363  23.322  0.00  0.00    +0.026 C 
ATOM     17  C   UNL     1       6.540   4.647  22.614  0.00  0.00    +0.031 C 
ATOM     18  C   UNL     1       4.694   2.982  22.740  0.00  0.00    +0.031 C 
ENDBRANCH  11  16
ENDBRANCH   5  13
BRANCH   9  19
ATOM     19  C   UNL     1      10.947   2.790  22.694  0.00  0.00    +0.121 C 
BRANCH  19  20
ATOM     20  C   UNL     1      10.993   4.112  23.431  0.00  0.00    -0.015 A 
ATOM     21  C   UNL     1      12.127   4.933  23.451  0.00  0.00    +0.008 A 
ATOM     22  C   UNL     1      12.097   6.152  24.120  0.00  0.00    +0.020 A 
ATOM     23  C   UNL     1      10.916   6.536  24.726  0.00  0.00    +0.111 A 
ATOM     24  N   UNL     1       9.786   5.796  24.703  0.00  0.00    -0.263 NA
ATOM     25  C   UNL     1       9.853   4.608  24.056  0.00  0.00    +0.115 A 
ENDBRANCH  19  20
ENDBRANCH   9  19
ENDBRANCH   4   6
ENDBRANCH   1   4
BRANCH   1  26
ATOM     26  C   UNL     1       8.693  -3.323  26.155  0.00  0.00    +0.045 C 
BRANCH  26  27
ATOM     27  C   UNL     1       7.241  -3.520  26.663  0.00  0.00    +0.082 C 
BRANCH  27  28
ATOM     28  C   UNL     1       6.954  -4.988  27.065  0.00  0.00    +0.217 C 
ATOM     29  N   UNL     1       5.740  -5.191  27.688  0.00  0.00    -0.306 N 
ATOM     30  H   UNL     1       5.045  -4.460  27.671  0.00  0.00    +0.149 HD
ATOM     31  O   UNL     1       7.780  -5.892  26.987  0.00  0.00    -0.275 OA
BRANCH  29  32
ATOM     32  C   UNL     1       5.333  -6.436  28.347  0.00  0.00    +0.132 C 
ATOM     33  C   UNL     1       3.913  -6.781  27.972  0.00  0.00    -0.022 A 
ATOM     34  C   UNL     1       3.066  -6.844  29.080  0.00  0.00    -0.040 A 
ATOM     35  C   UNL     1       1.708  -7.105  28.937  0.00  0.00    +0.004 A 
ATOM     36  C   UNL     1       1.196  -7.305  27.653  0.00  0.00    +0.000 A 
ATOM     37  C   UNL     1       2.043  -7.258  26.541  0.00  0.00    +0.000 A 
ATOM     38  C   UNL     1       3.793  -6.590  30.357  0.00  0.00    +0.069 C 
ATOM     39  C   UNL     1       3.410  -7.005  26.695  0.00  0.00    +0.006 A 
ATOM     40  C   UNL     1       5.262  -6.397  29.918  0.00  0.00    +0.143 C 
BRANCH  40  41
ATOM     41  O   UNL     1       5.762  -5.183  30.485  0.00  0.00    -0.389 OA
ATOM     42  H   UNL     1       4.970  -4.668  30.738  0.00  0.00    +0.210 HD
ENDBRANCH  40  41
ENDBRANCH  29  32
ENDBRANCH  27  28
BRANCH  27  43
ATOM     43  C   UNL     1       6.127  -2.858  25.821  0.00  0.00    +0.048 C 
BRANCH  43  44
ATOM     44  C   UNL     1       5.168  -3.584  24.897  0.00  0.00    -0.047 A 
ATOM     45  C   UNL     1       3.797  -3.499  25.226  0.00  0.00    +0.003 A 
ATOM     46  C   UNL     1       2.813  -4.149  24.479  0.00  0.00    +0.000 A 
ATOM     47  C   UNL     1       3.182  -4.934  23.396  0.00  0.00    +0.000 A 
ATOM     48  C   UNL     1       4.535  -5.084  23.088  0.00  0.00    +0.000 A 
ATOM     49  C   UNL     1       5.528  -4.421  23.837  0.00  0.00    +0.003 A 
ENDBRANCH  43  44
ENDBRANCH  27  43
ENDBRANCH  26  27
ENDBRANCH   1  26
TORSDOF 14
ENDMDL
MODEL 4
REMARK VINA RESULT:      -7.1      2.469      8.936
REMARK  Name = 
REMARK  17 active torsions:
REMARK  status: ('A' for Active; 'I' for Inactive)
REMARK    1  A    between atoms: C_1  and  C_2
REMARK    2  A    between atoms: C_2  and  C_3
REMARK    3  A    between atoms: C_2  and  C_4
REMARK    4  A    between atoms: C_2  and  N_5
REMARK    5  A    between atoms: C_6  and  C_8
REMARK    6  A    between atoms: N_10  and  C_43
REMARK    7  A    between atoms: N_13  and  C_14
REMARK    8  A    between atoms: C_14  and  C_15
REMARK    9  A    between atoms: C_15  and  C_17
REMARK   10  A    between atoms: C_15  and  O_42
REMARK   11  A    between atoms: C_17  and  C_18
REMARK   12  A    between atoms: C_18  and  C_20
REMARK   13  A    between atoms: C_18  and  C_27
REMARK   14  A    between atoms: C_20  and  C_21
REMARK   15  A    between atoms: N_29  and  C_30
REMARK   16  A    between atoms: C_32  and  O_41
REMARK   17  A    between atoms: C_43  and  C_44
REMARK                            x       y       z     vdW  Elec       q    Type
REMARK                         _______ _______ _______ _____ _____    ______ ____
ROOT
ATOM      1  C   UNL     1       9.415  -0.391  23.760  0.00  0.00    +0.129 C 
ENDROOT
BRANCH   1   2
ATOM      2  O   UNL     1       9.498   0.332  25.001  0.00  0.00    -0.391 OA
ATOM      3  H   UNL     1      10.242   0.955  24.932  0.00  0.00    +0.210 HD
ENDBRANCH   1   2
BRANCH   1   4
ATOM      4  C   UNL     1       9.864  -1.865  24.056  0.00  0.00    +0.116 C 
BRANCH   4   6
ATOM      5  C   UNL     1       7.402  -2.542  23.943  0.00  0.00    +0.157 C 
ATOM      6  N   UNL     1       8.859  -2.990  23.891  0.00  0.00    -0.287 NA
ATOM      7  C   UNL     1       9.094  -3.986  24.983  0.00  0.00    +0.100 C 
ATOM      8  C   UNL     1       8.541  -3.616  26.379  0.00  0.00    +0.100 C 
ATOM      9  N   UNL     1       7.090  -3.479  26.262  0.00  0.00    -0.295 NA
ATOM     10  C   UNL     1       6.799  -2.332  25.374  0.00  0.00    +0.113 C 
BRANCH   5  13
ATOM     11  N   UNL     1       5.847  -4.537  23.866  0.00  0.00    -0.309 N 
ATOM     12  H   UNL     1       6.186  -4.627  24.815  0.00  0.00    +0.149 HD
ATOM     13  C   UNL     1       6.413  -3.490  23.160  0.00  0.00    +0.232 C 
ATOM     14  O   UNL     1       6.150  -3.307  21.973  0.00  0.00    -0.274 OA
BRANCH  11  16
ATOM     15  C   UNL     1       5.388  -6.128  21.994  0.00  0.00    +0.031 C 
ATOM     16  C   UNL     1       4.908  -5.554  23.338  0.00  0.00    +0.026 C 
ATOM     17  C   UNL     1       4.843  -6.711  24.352  0.00  0.00    +0.031 C 
ATOM     18  C   UNL     1       3.479  -5.006  23.158  0.00  0.00    +0.031 C 
ENDBRANCH  11  16
ENDBRANCH   5  13
BRANCH   9  19
ATOM     19  C   UNL     1       6.398  -3.460  27.553  0.00  0.00    +0.121 C 
BRANCH  19  20
ATOM     20  C   UNL     1       5.647  -4.736  27.871  0.00  0.00    -0.015 A 
ATOM     21  C   UNL     1       4.258  -4.854  27.741  0.00  0.00    +0.008 A 
ATOM     22  C   UNL     1       3.628  -6.063  28.018  0.00  0.00    +0.020 A 
ATOM     23  C   UNL     1       4.414  -7.139  28.387  0.00  0.00    +0.111 A 
ATOM     24  N   UNL     1       5.760  -7.085  28.490  0.00  0.00    -0.263 NA
ATOM     25  C   UNL     1       6.340  -5.889  28.228  0.00  0.00    +0.115 A 
ENDBRANCH  19  20
ENDBRANCH   9  19
ENDBRANCH   4   6
ENDBRANCH   1   4
BRANCH   1  26
ATOM     26  C   UNL     1      10.293   0.427  22.756  0.00  0.00    +0.045 C 
BRANCH  26  27
ATOM     27  C   UNL     1       9.817   1.809  22.236  0.00  0.00    +0.082 C 
BRANCH  27  28
ATOM     28  C   UNL     1      10.123   2.950  23.238  0.00  0.00    +0.217 C 
ATOM     29  N   UNL     1       9.040   3.377  23.978  0.00  0.00    -0.306 N 
ATOM     30  H   UNL     1       8.196   2.825  23.986  0.00  0.00    +0.149 HD
ATOM     31  O   UNL     1      11.193   3.549  23.285  0.00  0.00    -0.275 OA
BRANCH  29  32
ATOM     32  C   UNL     1       9.024   4.571  24.829  0.00  0.00    +0.132 C 
ATOM     33  C   UNL     1       7.773   4.590  25.673  0.00  0.00    -0.022 A 
ATOM     34  C   UNL     1       6.982   5.715  25.434  0.00  0.00    -0.040 A 
ATOM     35  C   UNL     1       5.765   5.892  26.082  0.00  0.00    +0.004 A 
ATOM     36  C   UNL     1       5.340   4.918  26.987  0.00  0.00    +0.000 A 
ATOM     37  C   UNL     1       6.137   3.796  27.242  0.00  0.00    +0.000 A 
ATOM     38  C   UNL     1       7.596   6.630  24.429  0.00  0.00    +0.069 C 
ATOM     39  C   UNL     1       7.364   3.631  26.592  0.00  0.00    +0.006 A 
ATOM     40  C   UNL     1       8.941   5.953  24.080  0.00  0.00    +0.143 C 
BRANCH  40  41
ATOM     41  O   UNL     1       9.052   5.843  22.659  0.00  0.00    -0.389 OA
ATOM     42  H   UNL     1       9.314   4.916  22.489  0.00  0.00    +0.210 HD
ENDBRANCH  40  41
ENDBRANCH  29  32
ENDBRANCH  27  28
BRANCH  27  43
ATOM     43  C   UNL     1       8.398   1.858  21.626  0.00  0.00    +0.048 C 
BRANCH  43  44
ATOM     44  C   UNL     1       7.124   2.191  22.378  0.00  0.00    -0.047 A 
ATOM     45  C   UNL     1       6.534   3.441  22.086  0.00  0.00    +0.003 A 
ATOM     46  C   UNL     1       5.379   3.885  22.732  0.00  0.00    +0.000 A 
ATOM     47  C   UNL     1       4.800   3.098  23.717  0.00  0.00    +0.000 A 
ATOM     48  C   UNL     1       5.399   1.887  24.068  0.00  0.00    +0.000 A 
ATOM     49  C   UNL     1       6.560   1.435  23.410  0.00  0.00    +0.003 A 
ENDBRANCH  43  44
ENDBRANCH  27  43
ENDBRANCH  26  27
ENDBRANCH   1  26
TORSDOF 14
ENDMDL
MODEL 5
REMARK VINA RESULT:      -7.1      2.243      9.323
REMARK  Name = 
REMARK  17 active torsions:
REMARK  status: ('A' for Active; 'I' for Inactive)
REMARK    1  A    between atoms: C_1  and  C_2
REMARK    2  A    between atoms: C_2  and  C_3
REMARK    3  A    between atoms: C_2  and  C_4
REMARK    4  A    between atoms: C_2  and  N_5
REMARK    5  A    between atoms: C_6  and  C_8
REMARK    6  A    between atoms: N_10  and  C_43
REMARK    7  A    between atoms: N_13  and  C_14
REMARK    8  A    between atoms: C_14  and  C_15
REMARK    9  A    between atoms: C_15  and  C_17
REMARK   10  A    between atoms: C_15  and  O_42
REMARK   11  A    between atoms: C_17  and  C_18
REMARK   12  A    between atoms: C_18  and  C_20
REMARK   13  A    between atoms: C_18  and  C_27
REMARK   14  A    between atoms: C_20  and  C_21
REMARK   15  A    between atoms: N_29  and  C_30
REMARK   16  A    between atoms: C_32  and  O_41
REMARK   17  A    between atoms: C_43  and  C_44
REMARK                            x       y       z     vdW  Elec       q    Type
REMARK                         _______ _______ _______ _____ _____    ______ ____
ROOT
ATOM      1  C   UNL     1      10.343  -0.899  22.606  0.00  0.00    +0.129 C 
ENDROOT
BRANCH   1   2
ATOM      2  O   UNL     1       9.904  -1.666  21.470  0.00  0.00    -0.391 OA
ATOM      3  H   UNL     1       9.005  -1.988  21.659  0.00  0.00    +0.210 HD
ENDBRANCH   1   2
BRANCH   1   4
ATOM      4  C   UNL     1       9.886  -1.676  23.889  0.00  0.00    +0.116 C 
BRANCH   4   6
ATOM      5  C   UNL     1       7.438  -2.401  23.781  0.00  0.00    +0.157 C 
ATOM      6  N   UNL     1       8.903  -2.823  23.747  0.00  0.00    -0.287 NA
ATOM      7  C   UNL     1       9.151  -3.789  24.862  0.00  0.00    +0.100 C 
ATOM      8  C   UNL     1       8.585  -3.397  26.247  0.00  0.00    +0.100 C 
ATOM      9  N   UNL     1       7.132  -3.290  26.121  0.00  0.00    -0.295 NA
ATOM     10  C   UNL     1       6.825  -2.170  25.205  0.00  0.00    +0.113 C 
BRANCH   5  13
ATOM     11  N   UNL     1       5.962  -4.457  23.731  0.00  0.00    -0.309 N 
ATOM     12  H   UNL     1       6.327  -4.538  24.671  0.00  0.00    +0.149 HD
ATOM     13  C   UNL     1       6.470  -3.386  23.017  0.00  0.00    +0.232 C 
ATOM     14  O   UNL     1       6.172  -3.208  21.837  0.00  0.00    -0.274 OA
BRANCH  11  16
ATOM     15  C   UNL     1       5.568  -6.114  21.901  0.00  0.00    +0.031 C 
ATOM     16  C   UNL     1       5.053  -5.509  23.219  0.00  0.00    +0.026 C 
ATOM     17  C   UNL     1       4.994  -6.635  24.268  0.00  0.00    +0.031 C 
ATOM     18  C   UNL     1       3.617  -4.996  22.999  0.00  0.00    +0.031 C 
ENDBRANCH  11  16
ENDBRANCH   5  13
BRANCH   9  19
ATOM     19  C   UNL     1       6.434  -3.254  27.408  0.00  0.00    +0.121 C 
BRANCH  19  20
ATOM     20  C   UNL     1       5.638  -4.505  27.715  0.00  0.00    -0.015 A 
ATOM     21  C   UNL     1       4.247  -4.503  27.875  0.00  0.00    +0.008 A 
ATOM     22  C   UNL     1       3.569  -5.691  28.125  0.00  0.00    +0.020 A 
ATOM     23  C   UNL     1       4.300  -6.863  28.175  0.00  0.00    +0.111 A 
ATOM     24  N   UNL     1       5.637  -6.921  27.991  0.00  0.00    -0.263 NA
ATOM     25  C   UNL     1       6.270  -5.744  27.765  0.00  0.00    +0.115 A 
ENDBRANCH  19  20
ENDBRANCH   9  19
ENDBRANCH   4   6
ENDBRANCH   1   4
BRANCH   1  26
ATOM     26  C   UNL     1       9.736   0.527  22.389  0.00  0.00    +0.045 C 
BRANCH  26  27
ATOM     27  C   UNL     1       9.633   1.529  23.569  0.00  0.00    +0.082 C 
BRANCH  27  28
ATOM     28  C   UNL     1       8.251   1.474  24.267  0.00  0.00    +0.217 C 
ATOM     29  N   UNL     1       8.282   1.682  25.630  0.00  0.00    -0.306 N 
ATOM     30  H   UNL     1       9.120   2.044  26.057  0.00  0.00    +0.149 HD
ATOM     31  O   UNL     1       7.216   1.126  23.707  0.00  0.00    -0.275 OA
BRANCH  29  32
ATOM     32  C   UNL     1       7.149   1.472  26.537  0.00  0.00    +0.132 C 
ATOM     33  C   UNL     1       6.802   2.761  27.241  0.00  0.00    -0.022 A 
ATOM     34  C   UNL     1       6.914   2.660  28.629  0.00  0.00    -0.040 A 
ATOM     35  C   UNL     1       6.680   3.754  29.454  0.00  0.00    +0.004 A 
ATOM     36  C   UNL     1       6.327   4.971  28.867  0.00  0.00    +0.000 A 
ATOM     37  C   UNL     1       6.198   5.073  27.478  0.00  0.00    +0.000 A 
ATOM     38  C   UNL     1       7.313   1.290  29.062  0.00  0.00    +0.069 C 
ATOM     39  C   UNL     1       6.427   3.965  26.657  0.00  0.00    +0.006 A 
ATOM     40  C   UNL     1       7.399   0.491  27.741  0.00  0.00    +0.143 C 
BRANCH  40  41
ATOM     41  O   UNL     1       8.661  -0.178  27.683  0.00  0.00    -0.389 OA
ATOM     42  H   UNL     1       8.515  -1.048  28.108  0.00  0.00    +0.210 HD
ENDBRANCH  40  41
ENDBRANCH  29  32
ENDBRANCH  27  28
BRANCH  27  43
ATOM     43  C   UNL     1      10.157   2.957  23.300  0.00  0.00    +0.048 C 
BRANCH  43  44
ATOM     44  C   UNL     1       9.362   4.237  23.473  0.00  0.00    -0.047 A 
ATOM     45  C   UNL     1       9.914   5.204  24.342  0.00  0.00    +0.003 A 
ATOM     46  C   UNL     1       9.268   6.411  24.615  0.00  0.00    +0.000 A 
ATOM     47  C   UNL     1       8.029   6.668  24.048  0.00  0.00    +0.000 A 
ATOM     48  C   UNL     1       7.433   5.702  23.235  0.00  0.00    +0.000 A 
ATOM     49  C   UNL     1       8.089   4.487  22.952  0.00  0.00    +0.003 A 
ENDBRANCH  43  44
ENDBRANCH  27  43
ENDBRANCH  26  27
ENDBRANCH   1  26
TORSDOF 14
ENDMDL
MODEL 6
REMARK VINA RESULT:      -7.0      1.566      2.209
REMARK  Name = 
REMARK  17 active torsions:
REMARK  status: ('A' for Active; 'I' for Inactive)
REMARK    1  A    between atoms: C_1  and  C_2
REMARK    2  A    between atoms: C_2  and  C_3
REMARK    3  A    between atoms: C_2  and  C_4
REMARK    4  A    between atoms: C_2  and  N_5
REMARK    5  A    between atoms: C_6  and  C_8
REMARK    6  A    between atoms: N_10  and  C_43
REMARK    7  A    between atoms: N_13  and  C_14
REMARK    8  A    between atoms: C_14  and  C_15
REMARK    9  A    between atoms: C_15  and  C_17
REMARK   10  A    between atoms: C_15  and  O_42
REMARK   11  A    between atoms: C_17  and  C_18
REMARK   12  A    between atoms: C_18  and  C_20
REMARK   13  A    between atoms: C_18  and  C_27
REMARK   14  A    between atoms: C_20  and  C_21
REMARK   15  A    between atoms: N_29  and  C_30
REMARK   16  A    between atoms: C_32  and  O_41
REMARK   17  A    between atoms: C_43  and  C_44
REMARK                            x       y       z     vdW  Elec       q    Type
REMARK                         _______ _______ _______ _____ _____    ______ ____
ROOT
ATOM      1  C   UNL     1       8.306  -0.695  26.450  0.00  0.00    +0.129 C 
ENDROOT
BRANCH   1   2
ATOM      2  O   UNL     1       9.282  -0.777  27.504  0.00  0.00    -0.391 OA
ATOM      3  H   UNL     1       9.165  -1.633  27.951  0.00  0.00    +0.210 HD
ENDBRANCH   1   2
BRANCH   1   4
ATOM      4  C   UNL     1       7.425   0.570  26.737  0.00  0.00    +0.116 C 
BRANCH   4   6
ATOM      5  C   UNL     1       6.963   3.061  26.402  0.00  0.00    +0.157 C 
ATOM      6  N   UNL     1       7.545   1.776  25.824  0.00  0.00    -0.287 NA
ATOM      7  C   UNL     1       6.836   1.461  24.543  0.00  0.00    +0.100 C 
ATOM      8  C   UNL     1       5.294   1.561  24.572  0.00  0.00    +0.100 C 
ATOM      9  N   UNL     1       4.942   2.942  24.899  0.00  0.00    -0.295 NA
ATOM     10  C   UNL     1       5.410   3.229  26.273  0.00  0.00    +0.113 C 
BRANCH   5  13
ATOM     11  N   UNL     1       7.382   4.672  24.496  0.00  0.00    -0.309 N 
ATOM     12  H   UNL     1       6.858   3.962  24.001  0.00  0.00    +0.149 HD
ATOM     13  C   UNL     1       7.619   4.376  25.827  0.00  0.00    +0.232 C 
ATOM     14  O   UNL     1       8.307   5.113  26.531  0.00  0.00    -0.274 OA
BRANCH  11  16
ATOM     15  C   UNL     1       7.529   5.767  22.253  0.00  0.00    +0.031 C 
ATOM     16  C   UNL     1       7.903   5.838  23.744  0.00  0.00    +0.026 C 
ATOM     17  C   UNL     1       7.262   7.108  24.334  0.00  0.00    +0.031 C 
ATOM     18  C   UNL     1       9.433   5.985  23.862  0.00  0.00    +0.031 C 
ENDBRANCH  11  16
ENDBRANCH   5  13
BRANCH   9  19
ATOM     19  C   UNL     1       3.538   3.266  24.637  0.00  0.00    +0.121 C 
BRANCH  19  20
ATOM     20  C   UNL     1       3.335   4.314  23.563  0.00  0.00    -0.015 A 
ATOM     21  C   UNL     1       4.061   5.511  23.520  0.00  0.00    +0.008 A 
ATOM     22  C   UNL     1       3.852   6.421  22.489  0.00  0.00    +0.020 A 
ATOM     23  C   UNL     1       2.940   6.092  21.503  0.00  0.00    +0.111 A 
ATOM     24  N   UNL     1       2.243   4.935  21.481  0.00  0.00    -0.263 NA
ATOM     25  C   UNL     1       2.459   4.078  22.508  0.00  0.00    +0.115 A 
ENDBRANCH  19  20
ENDBRANCH   9  19
ENDBRANCH   4   6
ENDBRANCH   1   4
BRANCH   1  26
ATOM     26  C   UNL     1       7.580  -2.082  26.464  0.00  0.00    +0.045 C 
BRANCH  26  27
ATOM     27  C   UNL     1       8.350  -3.380  26.107  0.00  0.00    +0.082 C 
BRANCH  27  28
ATOM     28  C   UNL     1       9.379  -3.158  24.971  0.00  0.00    +0.217 C 
ATOM     29  N   UNL     1       9.394  -1.883  24.445  0.00  0.00    -0.306 N 
ATOM     30  H   UNL     1       8.913  -1.141  24.929  0.00  0.00    +0.149 HD
ATOM     31  O   UNL     1      10.035  -4.059  24.457  0.00  0.00    -0.275 OA
BRANCH  29  32
ATOM     32  C   UNL     1      10.119  -1.484  23.234  0.00  0.00    +0.132 C 
ATOM     33  C   UNL     1      10.307   0.013  23.211  0.00  0.00    -0.022 A 
ATOM     34  C   UNL     1       9.711   0.610  22.099  0.00  0.00    -0.040 A 
ATOM     35  C   UNL     1       9.735   1.989  21.921  0.00  0.00    +0.004 A 
ATOM     36  C   UNL     1      10.372   2.777  22.881  0.00  0.00    +0.000 A 
ATOM     37  C   UNL     1      10.984   2.182  23.989  0.00  0.00    +0.000 A 
ATOM     38  C   UNL     1       9.072  -0.391  21.198  0.00  0.00    +0.069 C 
ATOM     39  C   UNL     1      10.963   0.793  24.156  0.00  0.00    +0.006 A 
ATOM     40  C   UNL     1       9.384  -1.749  21.868  0.00  0.00    +0.143 C 
BRANCH  40  41
ATOM     41  O   UNL     1       8.169  -2.490  22.005  0.00  0.00    -0.389 OA
ATOM     42  H   UNL     1       8.445  -3.412  22.184  0.00  0.00    +0.210 HD
ENDBRANCH  40  41
ENDBRANCH  29  32
ENDBRANCH  27  28
BRANCH  27  43
ATOM     43  C   UNL     1       7.498  -4.660  25.957  0.00  0.00    +0.048 C 
BRANCH  43  44
ATOM     44  C   UNL     1       6.501  -4.933  24.847  0.00  0.00    -0.047 A 
ATOM     45  C   UNL     1       5.144  -5.012  25.231  0.00  0.00    +0.003 A 
ATOM     46  C   UNL     1       4.128  -5.292  24.314  0.00  0.00    +0.000 A 
ATOM     47  C   UNL     1       4.452  -5.533  22.987  0.00  0.00    +0.000 A 
ATOM     48  C   UNL     1       5.792  -5.522  22.595  0.00  0.00    +0.000 A 
ATOM     49  C   UNL     1       6.815  -5.231  23.518  0.00  0.00    +0.003 A 
ENDBRANCH  43  44
ENDBRANCH  27  43
ENDBRANCH  26  27
ENDBRANCH   1  26
TORSDOF 14
ENDMDL
MODEL 7
REMARK VINA RESULT:      -7.0      1.541      2.642
REMARK  Name = 
REMARK  17 active torsions:
REMARK  status: ('A' for Active; 'I' for Inactive)
REMARK    1  A    between atoms: C_1  and  C_2
REMARK    2  A    between atoms: C_2  and  C_3
REMARK    3  A    between atoms: C_2  and  C_4
REMARK    4  A    between atoms: C_2  and  N_5
REMARK    5  A    between atoms: C_6  and  C_8
REMARK    6  A    between atoms: N_10  and  C_43
REMARK    7  A    between atoms: N_13  and  C_14
REMARK    8  A    between atoms: C_14  and  C_15
REMARK    9  A    between atoms: C_15  and  C_17
REMARK   10  A    between atoms: C_15  and  O_42
REMARK   11  A    between atoms: C_17  and  C_18
REMARK   12  A    between atoms: C_18  and  C_20
REMARK   13  A    between atoms: C_18  and  C_27
REMARK   14  A    between atoms: C_20  and  C_21
REMARK   15  A    between atoms: N_29  and  C_30
REMARK   16  A    between atoms: C_32  and  O_41
REMARK   17  A    between atoms: C_43  and  C_44
REMARK                            x       y       z     vdW  Elec       q    Type
REMARK                         _______ _______ _______ _____ _____    ______ ____
ROOT
ATOM      1  C   UNL     1       7.026  -0.754  26.517  0.00  0.00    +0.129 C 
ENDROOT
BRANCH   1   2
ATOM      2  O   UNL     1       8.284  -0.783  27.213  0.00  0.00    -0.391 OA
ATOM      3  H   UNL     1       8.989  -0.882  26.550  0.00  0.00    +0.210 HD
ENDBRANCH   1   2
BRANCH   1   4
ATOM      4  C   UNL     1       5.961  -0.182  27.517  0.00  0.00    +0.116 C 
BRANCH   4   6
ATOM      5  C   UNL     1       5.203   1.398  25.656  0.00  0.00    +0.157 C 
ATOM      6  N   UNL     1       5.207   1.083  27.148  0.00  0.00    -0.287 NA
ATOM      7  C   UNL     1       5.836   2.228  27.879  0.00  0.00    +0.100 C 
ATOM      8  C   UNL     1       7.158   2.772  27.292  0.00  0.00    +0.100 C 
ATOM      9  N   UNL     1       6.879   3.260  25.942  0.00  0.00    -0.295 NA
ATOM     10  C   UNL     1       6.486   2.107  25.102  0.00  0.00    +0.113 C 
BRANCH   5  13
ATOM     11  N   UNL     1       4.170   3.159  24.161  0.00  0.00    -0.309 N 
ATOM     12  H   UNL     1       5.133   3.228  23.858  0.00  0.00    +0.149 HD
ATOM     13  C   UNL     1       3.963   2.254  25.187  0.00  0.00    +0.232 C 
ATOM     14  O   UNL     1       2.856   2.121  25.705  0.00  0.00    -0.274 OA
BRANCH  11  16
ATOM     15  C   UNL     1       1.850   3.338  23.246  0.00  0.00    +0.031 C 
ATOM     16  C   UNL     1       3.163   4.072  23.571  0.00  0.00    +0.026 C 
ATOM     17  C   UNL     1       2.850   5.167  24.609  0.00  0.00    +0.031 C 
ATOM     18  C   UNL     1       3.669   4.768  22.292  0.00  0.00    +0.031 C 
ENDBRANCH  11  16
ENDBRANCH   5  13
BRANCH   9  19
ATOM     19  C   UNL     1       7.945   4.099  25.390  0.00  0.00    +0.121 C 
BRANCH  19  20
ATOM     20  C   UNL     1       7.465   5.129  24.389  0.00  0.00    -0.015 A 
ATOM     21  C   UNL     1       7.844   5.116  23.042  0.00  0.00    +0.008 A 
ATOM     22  C   UNL     1       7.344   6.072  22.164  0.00  0.00    +0.020 A 
ATOM     23  C   UNL     1       6.446   7.002  22.653  0.00  0.00    +0.111 A 
ATOM     24  N   UNL     1       6.022   7.033  23.935  0.00  0.00    -0.263 NA
ATOM     25  C   UNL     1       6.540   6.098  24.767  0.00  0.00    +0.115 A 
ENDBRANCH  19  20
ENDBRANCH   9  19
ENDBRANCH   4   6
ENDBRANCH   1   4
BRANCH   1  26
ATOM     26  C   UNL     1       6.808  -2.221  26.015  0.00  0.00    +0.045 C 
BRANCH  26  27
ATOM     27  C   UNL     1       7.922  -3.286  26.187  0.00  0.00    +0.082 C 
BRANCH  27  28
ATOM     28  C   UNL     1       9.009  -3.182  25.088  0.00  0.00    +0.217 C 
ATOM     29  N   UNL     1       9.225  -1.907  24.607  0.00  0.00    -0.306 N 
ATOM     30  H   UNL     1       8.842  -1.118  25.104  0.00  0.00    +0.149 HD
ATOM     31  O   UNL     1       9.542  -4.153  24.560  0.00  0.00    -0.275 OA
BRANCH  29  32
ATOM     32  C   UNL     1      10.039  -1.581  23.432  0.00  0.00    +0.132 C 
ATOM     33  C   UNL     1      10.274  -0.092  23.360  0.00  0.00    -0.022 A 
ATOM     34  C   UNL     1       9.770   0.474  22.188  0.00  0.00    -0.040 A 
ATOM     35  C   UNL     1       9.848   1.843  21.956  0.00  0.00    +0.004 A 
ATOM     36  C   UNL     1      10.446   2.653  22.923  0.00  0.00    +0.000 A 
ATOM     37  C   UNL     1      10.967   2.088  24.092  0.00  0.00    +0.000 A 
ATOM     38  C   UNL     1       9.159  -0.546  21.289  0.00  0.00    +0.069 C 
ATOM     39  C   UNL     1      10.892   0.709  24.313  0.00  0.00    +0.006 A 
ATOM     40  C   UNL     1       9.385  -1.882  22.032  0.00  0.00    +0.143 C 
BRANCH  40  41
ATOM     41  O   UNL     1       8.141  -2.582  22.120  0.00  0.00    -0.389 OA
ATOM     42  H   UNL     1       8.003  -2.752  23.073  0.00  0.00    +0.210 HD
ENDBRANCH  40  41
ENDBRANCH  29  32
ENDBRANCH  27  28
BRANCH  27  43
ATOM     43  C   UNL     1       7.449  -4.727  26.483  0.00  0.00    +0.048 C 
BRANCH  43  44
ATOM     44  C   UNL     1       6.310  -5.444  25.784  0.00  0.00    -0.047 A 
ATOM     45  C   UNL     1       5.461  -6.219  26.606  0.00  0.00    +0.003 A 
ATOM     46  C   UNL     1       4.396  -6.957  26.085  0.00  0.00    +0.000 A 
ATOM     47  C   UNL     1       4.173  -6.964  24.716  0.00  0.00    +0.000 A 
ATOM     48  C   UNL     1       5.036  -6.257  23.877  0.00  0.00    +0.000 A 
ATOM     49  C   UNL     1       6.105  -5.506  24.403  0.00  0.00    +0.003 A 
ENDBRANCH  43  44
ENDBRANCH  27  43
ENDBRANCH  26  27
ENDBRANCH   1  26
TORSDOF 14
ENDMDL
MODEL 8
REMARK VINA RESULT:      -7.0      2.895      7.671
REMARK  Name = 
REMARK  17 active torsions:
REMARK  status: ('A' for Active; 'I' for Inactive)
REMARK    1  A    between atoms: C_1  and  C_2
REMARK    2  A    between atoms: C_2  and  C_3
REMARK    3  A    between atoms: C_2  and  C_4
REMARK    4  A    between atoms: C_2  and  N_5
REMARK    5  A    between atoms: C_6  and  C_8
REMARK    6  A    between atoms: N_10  and  C_43
REMARK    7  A    between atoms: N_13  and  C_14
REMARK    8  A    between atoms: C_14  and  C_15
REMARK    9  A    between atoms: C_15  and  C_17
REMARK   10  A    between atoms: C_15  and  O_42
REMARK   11  A    between atoms: C_17  and  C_18
REMARK   12  A    between atoms: C_18  and  C_20
REMARK   13  A    between atoms: C_18  and  C_27
REMARK   14  A    between atoms: C_20  and  C_21
REMARK   15  A    between atoms: N_29  and  C_30
REMARK   16  A    between atoms: C_32  and  O_41
REMARK   17  A    between atoms: C_43  and  C_44
REMARK                            x       y       z     vdW  Elec       q    Type
REMARK                         _______ _______ _______ _____ _____    ______ ____
ROOT
ATOM      1  C   UNL     1       7.360  -0.646  25.432  0.00  0.00    +0.129 C 
ENDROOT
BRANCH   1   2
ATOM      2  O   UNL     1       7.018   0.363  24.465  0.00  0.00    -0.391 OA
ATOM      3  H   UNL     1       6.413  -0.038  23.818  0.00  0.00    +0.210 HD
ENDBRANCH   1   2
BRANCH   1   4
ATOM      4  C   UNL     1       6.420  -0.433  26.670  0.00  0.00    +0.116 C 
BRANCH   4   6
ATOM      5  C   UNL     1       6.006  -2.954  26.632  0.00  0.00    +0.157 C 
ATOM      6  N   UNL     1       5.883  -1.647  27.406  0.00  0.00    -0.287 NA
ATOM      7  C   UNL     1       4.437  -1.403  27.710  0.00  0.00    +0.100 C 
ATOM      8  C   UNL     1       3.448  -1.600  26.538  0.00  0.00    +0.100 C 
ATOM      9  N   UNL     1       3.541  -2.994  26.106  0.00  0.00    -0.295 NA
ATOM     10  C   UNL     1       4.896  -3.224  25.559  0.00  0.00    +0.113 C 
BRANCH   5  13
ATOM     11  N   UNL     1       4.913  -4.638  28.173  0.00  0.00    -0.309 N 
ATOM     12  H   UNL     1       4.130  -4.015  28.027  0.00  0.00    +0.149 HD
ATOM     13  C   UNL     1       6.081  -4.236  27.550  0.00  0.00    +0.232 C 
ATOM     14  O   UNL     1       7.131  -4.858  27.703  0.00  0.00    -0.274 OA
BRANCH  11  16
ATOM     15  C   UNL     1       5.662  -5.680  30.320  0.00  0.00    +0.031 C 
ATOM     16  C   UNL     1       4.751  -5.795  29.085  0.00  0.00    +0.026 C 
ATOM     17  C   UNL     1       3.290  -5.813  29.572  0.00  0.00    +0.031 C 
ATOM     18  C   UNL     1       5.031  -7.142  28.389  0.00  0.00    +0.031 C 
ENDBRANCH  11  16
ENDBRANCH   5  13
BRANCH   9  19
ATOM     19  C   UNL     1       2.438  -3.413  25.238  0.00  0.00    +0.121 C 
BRANCH  19  20
ATOM     20  C   UNL     1       2.469  -4.880  24.863  0.00  0.00    -0.015 A 
ATOM     21  C   UNL     1       2.515  -5.907  25.813  0.00  0.00    +0.008 A 
ATOM     22  C   UNL     1       2.509  -7.238  25.406  0.00  0.00    +0.020 A 
ATOM     23  C   UNL     1       2.423  -7.507  24.053  0.00  0.00    +0.111 A 
ATOM     24  N   UNL     1       2.340  -6.551  23.102  0.00  0.00    -0.263 NA
ATOM     25  C   UNL     1       2.363  -5.266  23.530  0.00  0.00    +0.115 A 
ENDBRANCH  19  20
ENDBRANCH   9  19
ENDBRANCH   4   6
ENDBRANCH   1   4
BRANCH   1  26
ATOM     26  C   UNL     1       8.897  -0.471  25.672  0.00  0.00    +0.045 C 
BRANCH  26  27
ATOM     27  C   UNL     1       9.888  -0.483  24.479  0.00  0.00    +0.082 C 
BRANCH  27  28
ATOM     28  C   UNL     1       9.675   0.720  23.527  0.00  0.00    +0.217 C 
ATOM     29  N   UNL     1       9.688   1.955  24.142  0.00  0.00    -0.306 N 
ATOM     30  H   UNL     1      10.020   2.032  25.091  0.00  0.00    +0.149 HD
ATOM     31  O   UNL     1       9.367   0.609  22.344  0.00  0.00    -0.275 OA
BRANCH  29  32
ATOM     32  C   UNL     1       9.302   3.215  23.500  0.00  0.00    +0.132 C 
ATOM     33  C   UNL     1      10.364   4.262  23.731  0.00  0.00    -0.022 A 
ATOM     34  C   UNL     1       9.878   5.376  24.417  0.00  0.00    -0.040 A 
ATOM     35  C   UNL     1      10.715   6.430  24.766  0.00  0.00    +0.004 A 
ATOM     36  C   UNL     1      12.064   6.358  24.415  0.00  0.00    +0.000 A 
ATOM     37  C   UNL     1      12.553   5.250  23.714  0.00  0.00    +0.000 A 
ATOM     38  C   UNL     1       8.422   5.262  24.713  0.00  0.00    +0.069 C 
ATOM     39  C   UNL     1      11.702   4.199  23.360  0.00  0.00    +0.006 A 
ATOM     40  C   UNL     1       8.014   3.916  24.071  0.00  0.00    +0.143 C 
BRANCH  40  41
ATOM     41  O   UNL     1       7.315   3.131  25.040  0.00  0.00    -0.389 OA
ATOM     42  H   UNL     1       6.367   3.330  24.902  0.00  0.00    +0.210 HD
ENDBRANCH  40  41
ENDBRANCH  29  32
ENDBRANCH  27  28
BRANCH  27  43
ATOM     43  C   UNL     1      10.079  -1.839  23.764  0.00  0.00    +0.048 C 
BRANCH  43  44
ATOM     44  C   UNL     1       9.019  -2.914  23.609  0.00  0.00    -0.047 A 
ATOM     45  C   UNL     1       9.119  -4.021  24.480  0.00  0.00    +0.003 A 
ATOM     46  C   UNL     1       8.230  -5.095  24.420  0.00  0.00    +0.000 A 
ATOM     47  C   UNL     1       7.230  -5.103  23.458  0.00  0.00    +0.000 A 
ATOM     48  C   UNL     1       7.149  -4.050  22.545  0.00  0.00    +0.000 A 
ATOM     49  C   UNL     1       8.042  -2.962  22.611  0.00  0.00    +0.003 A 
ENDBRANCH  43  44
ENDBRANCH  27  43
ENDBRANCH  26  27
ENDBRANCH   1  26
TORSDOF 14
ENDMDL
MODEL 9
REMARK VINA RESULT:      -6.9      2.124      5.172
REMARK  Name = 
REMARK  17 active torsions:
REMARK  status: ('A' for Active; 'I' for Inactive)
REMARK    1  A    between atoms: C_1  and  C_2
REMARK    2  A    between atoms: C_2  and  C_3
REMARK    3  A    between atoms: C_2  and  C_4
REMARK    4  A    between atoms: C_2  and  N_5
REMARK    5  A    between atoms: C_6  and  C_8
REMARK    6  A    between atoms: N_10  and  C_43
REMARK    7  A    between atoms: N_13  and  C_14
REMARK    8  A    between atoms: C_14  and  C_15
REMARK    9  A    between atoms: C_15  and  C_17
REMARK   10  A    between atoms: C_15  and  O_42
REMARK   11  A    between atoms: C_17  and  C_18
REMARK   12  A    between atoms: C_18  and  C_20
REMARK   13  A    between atoms: C_18  and  C_27
REMARK   14  A    between atoms: C_20  and  C_21
REMARK   15  A    between atoms: N_29  and  C_30
REMARK   16  A    between atoms: C_32  and  O_41
REMARK   17  A    between atoms: C_43  and  C_44
REMARK                            x       y       z     vdW  Elec       q    Type
REMARK                         _______ _______ _______ _____ _____    ______ ____
ROOT
ATOM      1  C   UNL     1       9.717   2.009  23.000  0.00  0.00    +0.129 C 
ENDROOT
BRANCH   1   2
ATOM      2  O   UNL     1       9.892   2.073  21.573  0.00  0.00    -0.391 OA
ATOM      3  H   UNL     1       9.010   2.036  21.163  0.00  0.00    +0.210 HD
ENDBRANCH   1   2
BRANCH   1   4
ATOM      4  C   UNL     1       9.932   3.460  23.554  0.00  0.00    +0.116 C 
BRANCH   4   6
ATOM      5  C   UNL     1       7.700   3.169  24.763  0.00  0.00    +0.157 C 
ATOM      6  N   UNL     1       8.958   4.011  24.579  0.00  0.00    -0.287 NA
ATOM      7  C   UNL     1       8.557   5.386  24.146  0.00  0.00    +0.100 C 
ATOM      8  C   UNL     1       7.507   5.470  23.015  0.00  0.00    +0.100 C 
ATOM      9  N   UNL     1       6.285   4.824  23.492  0.00  0.00    -0.295 NA
ATOM     10  C   UNL     1       6.568   3.387  23.702  0.00  0.00    +0.113 C 
BRANCH   5  13
ATOM     11  N   UNL     1       5.751   2.823  26.340  0.00  0.00    -0.309 N 
ATOM     12  H   UNL     1       5.338   2.469  25.486  0.00  0.00    +0.149 HD
ATOM     13  C   UNL     1       7.033   3.319  26.186  0.00  0.00    +0.232 C 
ATOM     14  O   UNL     1       7.627   3.849  27.123  0.00  0.00    -0.274 OA
BRANCH  11  16
ATOM     15  C   UNL     1       4.527   4.304  27.940  0.00  0.00    +0.031 C 
ATOM     16  C   UNL     1       4.929   2.865  27.572  0.00  0.00    +0.026 C 
ATOM     17  C   UNL     1       3.639   2.065  27.309  0.00  0.00    +0.031 C 
ATOM     18  C   UNL     1       5.639   2.226  28.782  0.00  0.00    +0.031 C 
ENDBRANCH  11  16
ENDBRANCH   5  13
BRANCH   9  19
ATOM     19  C   UNL     1       5.109   5.115  22.668  0.00  0.00    +0.121 C 
BRANCH  19  20
ATOM     20  C   UNL     1       3.831   4.476  23.168  0.00  0.00    -0.015 A 
ATOM     21  C   UNL     1       3.211   4.850  24.367  0.00  0.00    +0.008 A 
ATOM     22  C   UNL     1       2.019   4.246  24.757  0.00  0.00    +0.020 A 
ATOM     23  C   UNL     1       1.458   3.304  23.916  0.00  0.00    +0.111 A 
ATOM     24  N   UNL     1       1.999   2.937  22.733  0.00  0.00    -0.263 NA
ATOM     25  C   UNL     1       3.167   3.531  22.390  0.00  0.00    +0.115 A 
ENDBRANCH  19  20
ENDBRANCH   9  19
ENDBRANCH   4   6
ENDBRANCH   1   4
BRANCH   1  26
ATOM     26  C   UNL     1      10.723   0.911  23.481  0.00  0.00    +0.045 C 
BRANCH  26  27
ATOM     27  C   UNL     1      10.277  -0.181  24.489  0.00  0.00    +0.082 C 
BRANCH  27  28
ATOM     28  C   UNL     1       9.879  -1.502  23.785  0.00  0.00    +0.217 C 
ATOM     29  N   UNL     1       9.184  -2.394  24.576  0.00  0.00    -0.306 N 
ATOM     30  H   UNL     1       8.808  -2.084  25.459  0.00  0.00    +0.149 HD
ATOM     31  O   UNL     1      10.265  -1.823  22.665  0.00  0.00    -0.275 OA
BRANCH  29  32
ATOM     32  C   UNL     1       8.885  -3.782  24.212  0.00  0.00    +0.132 C 
ATOM     33  C   UNL     1       7.486  -3.882  23.655  0.00  0.00    -0.022 A 
ATOM     34  C   UNL     1       6.671  -4.733  24.403  0.00  0.00    -0.040 A 
ATOM     35  C   UNL     1       5.333  -4.922  24.077  0.00  0.00    +0.004 A 
ATOM     36  C   UNL     1       4.810  -4.242  22.976  0.00  0.00    +0.000 A 
ATOM     37  C   UNL     1       5.626  -3.400  22.214  0.00  0.00    +0.000 A 
ATOM     38  C   UNL     1       7.405  -5.355  25.543  0.00  0.00    +0.069 C 
ATOM     39  C   UNL     1       6.974  -3.223  22.544  0.00  0.00    +0.006 A 
ATOM     40  C   UNL     1       8.846  -4.816  25.398  0.00  0.00    +0.143 C 
BRANCH  40  41
ATOM     41  O   UNL     1       9.267  -4.268  26.650  0.00  0.00    -0.389 OA
ATOM     42  H   UNL     1       8.494  -3.777  26.993  0.00  0.00    +0.210 HD
ENDBRANCH  40  41
ENDBRANCH  29  32
ENDBRANCH  27  28
BRANCH  27  43
ATOM     43  C   UNL     1       9.302   0.271  25.598  0.00  0.00    +0.048 C 
BRANCH  43  44
ATOM     44  C   UNL     1       7.895  -0.257  25.808  0.00  0.00    -0.047 A 
ATOM     45  C   UNL     1       7.019  -0.157  24.705  0.00  0.00    +0.003 A 
ATOM     46  C   UNL     1       5.688  -0.573  24.774  0.00  0.00    +0.000 A 
ATOM     47  C   UNL     1       5.189  -1.074  25.968  0.00  0.00    +0.000 A 
ATOM     48  C   UNL     1       6.018  -1.125  27.090  0.00  0.00    +0.000 A 
ATOM     49  C   UNL     1       7.363  -0.712  27.018  0.00  0.00    +0.003 A 
ENDBRANCH  43  44
ENDBRANCH  27  43
ENDBRANCH  26  27
ENDBRANCH   1  26
TORSDOF 14
ENDMDL
