MODEL 1
REMARK VINA RESULT:      -6.0      0.000      0.000
REMARK  Name = 
REMARK  4 active torsions:
REMARK  status: ('A' for Active; 'I' for Inactive)
REMARK    1  A    between atoms: C3*_2  and  O3*_20
REMARK    2  A    between atoms: C4*_4  and  C5*_18
REMARK    3  A    between atoms: C1*_7  and  N_9
REMARK    4  A    between atoms: C5*_18  and  O5*_19
REMARK                            x       y       z     vdW  Elec       q    Type
REMARK                         _______ _______ _______ _____ _____    ______ ____
ROOT
ATOM      1  C2* UNL     1      10.120  -0.396  23.836  0.00  0.00    +0.088 C 
ATOM      2  C1* UNL     1       8.623  -0.504  24.110  0.00  0.00    +0.226 C 
ATOM      3  O4* UNL     1       7.908  -0.062  22.941  0.00  0.00    -0.348 OA
ATOM      4  C4* UNL     1       8.870   0.309  21.926  0.00  0.00    +0.175 C 
ATOM      5  C3* UNL     1      10.197  -0.328  22.332  0.00  0.00    +0.150 C 
ENDROOT
BRANCH   2   6
ATOM      6  N   UNL     1       8.204  -1.851  24.496  0.00  0.00    -0.273 N 
ATOM      7  C   UNL     1       8.334  -2.186  25.837  0.00  0.00    +0.331 A 
ATOM      8  O   UNL     1       8.765  -1.426  26.699  0.00  0.00    -0.246 OA
ATOM      9  N   UNL     1       7.961  -3.461  26.166  0.00  0.00    -0.274 N 
ATOM     10  H   UNL     1       8.041  -3.718  27.137  0.00  0.00    +0.173 HD
ATOM     11  C   UNL     1       7.547  -4.438  25.301  0.00  0.00    +0.267 A 
ATOM     12  O   UNL     1       7.269  -5.561  25.709  0.00  0.00    -0.267 OA
ATOM     13  C   UNL     1       7.477  -4.043  23.867  0.00  0.00    +0.094 A 
ATOM     14  I   UNL     1       6.918  -5.413  22.458  0.00  0.00    -0.037 I 
ATOM     15  C   UNL     1       7.806  -2.783  23.552  0.00  0.00    +0.113 A 
ENDBRANCH   2   6
BRANCH   5  16
ATOM     16  O3* UNL     1      10.271  -1.658  21.806  0.00  0.00    -0.389 OA
ATOM     17  H3* UNL     1       9.998  -1.621  20.872  0.00  0.00    +0.210 HD
ENDBRANCH   5  16
BRANCH   4  18
ATOM     18  C5* UNL     1       8.924   1.840  21.843  0.00  0.00    +0.190 C 
BRANCH  18  19
ATOM     19  O5* UNL     1      10.242   2.309  21.570  0.00  0.00    -0.392 OA
ATOM     20  H5* UNL     1      10.794   2.020  22.319  0.00  0.00    +0.210 HD
ENDBRANCH  18  19
ENDBRANCH   4  18
TORSDOF 4
ENDMDL
MODEL 2
REMARK VINA RESULT:      -6.0      2.376      3.210
REMARK  Name = 
REMARK  4 active torsions:
REMARK  status: ('A' for Active; 'I' for Inactive)
REMARK    1  A    between atoms: C3*_2  and  O3*_20
REMARK    2  A    between atoms: C4*_4  and  C5*_18
REMARK    3  A    between atoms: C1*_7  and  N_9
REMARK    4  A    between atoms: C5*_18  and  O5*_19
REMARK                            x       y       z     vdW  Elec       q    Type
REMARK                         _______ _______ _______ _____ _____    ______ ____
ROOT
ATOM      1  C2* UNL     1       7.016  -2.883  22.701  0.00  0.00    +0.088 C 
ATOM      2  C1* UNL     1       8.257  -3.403  23.420  0.00  0.00    +0.226 C 
ATOM      3  O4* UNL     1       9.172  -2.308  23.610  0.00  0.00    -0.348 OA
ATOM      4  C4* UNL     1       8.575  -1.109  23.063  0.00  0.00    +0.175 C 
ATOM      5  C3* UNL     1       7.081  -1.393  22.922  0.00  0.00    +0.150 C 
ENDROOT
BRANCH   2   6
ATOM      6  N   UNL     1       7.952  -4.053  24.694  0.00  0.00    -0.273 N 
ATOM      7  C   UNL     1       8.991  -4.734  25.313  0.00  0.00    +0.331 A 
ATOM      8  O   UNL     1      10.130  -4.814  24.860  0.00  0.00    -0.246 OA
ATOM      9  N   UNL     1       8.672  -5.356  26.490  0.00  0.00    -0.274 N 
ATOM     10  H   UNL     1       9.417  -5.849  26.956  0.00  0.00    +0.173 HD
ATOM     11  C   UNL     1       7.432  -5.424  27.065  0.00  0.00    +0.267 A 
ATOM     12  O   UNL     1       7.259  -6.041  28.111  0.00  0.00    -0.267 OA
ATOM     13  C   UNL     1       6.342  -4.722  26.334  0.00  0.00    +0.094 A 
ATOM     14  I   UNL     1       4.431  -4.777  27.054  0.00  0.00    -0.037 I 
ATOM     15  C   UNL     1       6.664  -4.081  25.202  0.00  0.00    +0.113 A 
ENDBRANCH   2   6
BRANCH   5  16
ATOM     16  O3* UNL     1       6.415  -1.073  24.149  0.00  0.00    -0.389 OA
ATOM     17  H3* UNL     1       6.350  -0.102  24.204  0.00  0.00    +0.210 HD
ENDBRANCH   5  16
BRANCH   4  18
ATOM     18  C5* UNL     1       9.267  -0.784  21.732  0.00  0.00    +0.190 C 
BRANCH  18  19
ATOM     19  O5* UNL     1      10.429  -1.584  21.530  0.00  0.00    -0.392 OA
ATOM     20  H5* UNL     1      11.116  -1.220  22.119  0.00  0.00    +0.210 HD
ENDBRANCH  18  19
ENDBRANCH   4  18
TORSDOF 4
ENDMDL
MODEL 3
REMARK VINA RESULT:      -5.6      3.200      4.529
REMARK  Name = 
REMARK  4 active torsions:
REMARK  status: ('A' for Active; 'I' for Inactive)
REMARK    1  A    between atoms: C3*_2  and  O3*_20
REMARK    2  A    between atoms: C4*_4  and  C5*_18
REMARK    3  A    between atoms: C1*_7  and  N_9
REMARK    4  A    between atoms: C5*_18  and  O5*_19
REMARK                            x       y       z     vdW  Elec       q    Type
REMARK                         _______ _______ _______ _____ _____    ______ ____
ROOT
ATOM      1  C2* UNL     1       6.526  -2.682  22.293  0.00  0.00    +0.088 C 
ATOM      2  C1* UNL     1       7.268  -3.953  22.697  0.00  0.00    +0.226 C 
ATOM      3  O4* UNL     1       8.320  -3.599  23.615  0.00  0.00    -0.348 OA
ATOM      4  C4* UNL     1       8.280  -2.170  23.832  0.00  0.00    +0.175 C 
ATOM      5  C3* UNL     1       6.902  -1.698  23.372  0.00  0.00    +0.150 C 
ENDROOT
BRANCH   2   6
ATOM      6  N   UNL     1       6.393  -4.970  23.277  0.00  0.00    -0.273 N 
ATOM      7  C   UNL     1       5.668  -5.752  22.389  0.00  0.00    +0.331 A 
ATOM      8  O   UNL     1       5.726  -5.642  21.167  0.00  0.00    -0.246 OA
ATOM      9  N   UNL     1       4.836  -6.677  22.959  0.00  0.00    -0.274 N 
ATOM     10  H   UNL     1       4.308  -7.258  22.328  0.00  0.00    +0.173 HD
ATOM     11  C   UNL     1       4.607  -6.851  24.297  0.00  0.00    +0.267 A 
ATOM     12  O   UNL     1       3.810  -7.696  24.693  0.00  0.00    -0.267 OA
ATOM     13  C   UNL     1       5.369  -5.951  25.206  0.00  0.00    +0.094 A 
ATOM     14  I   UNL     1       5.093  -6.070  27.227  0.00  0.00    -0.037 I 
ATOM     15  C   UNL     1       6.212  -5.072  24.647  0.00  0.00    +0.113 A 
ENDBRANCH   2   6
BRANCH   5  16
ATOM     16  O3* UNL     1       5.972  -1.811  24.453  0.00  0.00    -0.389 OA
ATOM     17  H3* UNL     1       6.256  -1.194  25.151  0.00  0.00    +0.210 HD
ENDBRANCH   5  16
BRANCH   4  18
ATOM     18  C5* UNL     1       9.439  -1.527  23.058  0.00  0.00    +0.190 C 
BRANCH  18  19
ATOM     19  O5* UNL     1      10.534  -2.426  22.900  0.00  0.00    -0.392 OA
ATOM     20  H5* UNL     1      11.260  -1.905  22.509  0.00  0.00    +0.210 HD
ENDBRANCH  18  19
ENDBRANCH   4  18
TORSDOF 4
ENDMDL
MODEL 4
REMARK VINA RESULT:      -5.5      4.141      6.627
REMARK  Name = 
REMARK  4 active torsions:
REMARK  status: ('A' for Active; 'I' for Inactive)
REMARK    1  A    between atoms: C3*_2  and  O3*_20
REMARK    2  A    between atoms: C4*_4  and  C5*_18
REMARK    3  A    between atoms: C1*_7  and  N_9
REMARK    4  A    between atoms: C5*_18  and  O5*_19
REMARK                            x       y       z     vdW  Elec       q    Type
REMARK                         _______ _______ _______ _____ _____    ______ ____
ROOT
ATOM      1  C2* UNL     1      10.947   1.021  24.440  0.00  0.00    +0.088 C 
ATOM      2  C1* UNL     1      10.387   1.541  23.119  0.00  0.00    +0.226 C 
ATOM      3  O4* UNL     1       9.420   0.594  22.626  0.00  0.00    -0.348 OA
ATOM      4  C4* UNL     1       9.320  -0.497  23.570  0.00  0.00    +0.175 C 
ATOM      5  C3* UNL     1       9.923   0.006  24.880  0.00  0.00    +0.150 C 
ENDROOT
BRANCH   2   6
ATOM      6  N   UNL     1       9.799   2.875  23.228  0.00  0.00    -0.273 N 
ATOM      7  C   UNL     1      10.681   3.937  23.371  0.00  0.00    +0.331 A 
ATOM      8  O   UNL     1      11.903   3.820  23.403  0.00  0.00    -0.246 OA
ATOM      9  N   UNL     1      10.104   5.171  23.499  0.00  0.00    -0.274 N 
ATOM     10  H   UNL     1      10.730   5.954  23.595  0.00  0.00    +0.173 HD
ATOM     11  C   UNL     1       8.763   5.440  23.567  0.00  0.00    +0.267 A 
ATOM     12  O   UNL     1       8.361   6.589  23.716  0.00  0.00    -0.267 OA
ATOM     13  C   UNL     1       7.862   4.260  23.463  0.00  0.00    +0.094 A 
ATOM     14  I   UNL     1       5.838   4.509  23.594  0.00  0.00    -0.037 I 
ATOM     15  C   UNL     1       8.428   3.057  23.299  0.00  0.00    +0.113 A 
ENDBRANCH   2   6
BRANCH   5  16
ATOM     16  O3* UNL     1       8.912   0.664  25.651  0.00  0.00    -0.389 OA
ATOM     17  H3* UNL     1       9.255   1.542  25.897  0.00  0.00    +0.210 HD
ENDBRANCH   5  16
BRANCH   4  18
ATOM     18  C5* UNL     1      10.049  -1.715  22.986  0.00  0.00    +0.190 C 
BRANCH  18  19
ATOM     19  O5* UNL     1      10.184  -1.623  21.570  0.00  0.00    -0.392 OA
ATOM     20  H5* UNL     1      10.000  -2.515  21.221  0.00  0.00    +0.210 HD
ENDBRANCH  18  19
ENDBRANCH   4  18
TORSDOF 4
ENDMDL
MODEL 5
REMARK VINA RESULT:      -5.4      4.428      6.747
REMARK  Name = 
REMARK  4 active torsions:
REMARK  status: ('A' for Active; 'I' for Inactive)
REMARK    1  A    between atoms: C3*_2  and  O3*_20
REMARK    2  A    between atoms: C4*_4  and  C5*_18
REMARK    3  A    between atoms: C1*_7  and  N_9
REMARK    4  A    between atoms: C5*_18  and  O5*_19
REMARK                            x       y       z     vdW  Elec       q    Type
REMARK                         _______ _______ _______ _____ _____    ______ ____
ROOT
ATOM      1  C2* UNL     1      10.879   1.192  24.157  0.00  0.00    +0.088 C 
ATOM      2  C1* UNL     1      10.024   1.426  22.914  0.00  0.00    +0.226 C 
ATOM      3  O4* UNL     1       9.165   0.286  22.726  0.00  0.00    -0.348 OA
ATOM      4  C4* UNL     1       9.413  -0.659  23.792  0.00  0.00    +0.175 C 
ATOM      5  C3* UNL     1      10.133   0.112  24.897  0.00  0.00    +0.150 C 
ENDROOT
BRANCH   2   6
ATOM      6  N   UNL     1       9.243   2.660  22.977  0.00  0.00    -0.273 N 
ATOM      7  C   UNL     1       8.190   2.781  22.082  0.00  0.00    +0.331 A 
ATOM      8  O   UNL     1       7.881   1.922  21.260  0.00  0.00    -0.246 OA
ATOM      9  N   UNL     1       7.493   3.957  22.143  0.00  0.00    -0.274 N 
ATOM     10  H   UNL     1       6.721   4.057  21.505  0.00  0.00    +0.173 HD
ATOM     11  C   UNL     1       7.777   5.031  22.943  0.00  0.00    +0.267 A 
ATOM     12  O   UNL     1       7.098   6.051  22.889  0.00  0.00    -0.267 OA
ATOM     13  C   UNL     1       8.950   4.871  23.847  0.00  0.00    +0.094 A 
ATOM     14  I   UNL     1       9.516   6.411  25.065  0.00  0.00    -0.037 I 
ATOM     15  C   UNL     1       9.606   3.704  23.812  0.00  0.00    +0.113 A 
ENDBRANCH   2   6
BRANCH   5  16
ATOM     16  O3* UNL     1       9.168   0.718  25.764  0.00  0.00    -0.389 OA
ATOM     17  H3* UNL     1       9.462   1.631  25.938  0.00  0.00    +0.210 HD
ENDBRANCH   5  16
BRANCH   4  18
ATOM     18  C5* UNL     1      10.231  -1.828  23.226  0.00  0.00    +0.190 C 
BRANCH  18  19
ATOM     19  O5* UNL     1      10.312  -1.779  21.804  0.00  0.00    -0.392 OA
ATOM     20  H5* UNL     1      10.929  -1.054  21.592  0.00  0.00    +0.210 HD
ENDBRANCH  18  19
ENDBRANCH   4  18
TORSDOF 4
ENDMDL
MODEL 6
REMARK VINA RESULT:      -5.4      2.544      5.714
REMARK  Name = 
REMARK  4 active torsions:
REMARK  status: ('A' for Active; 'I' for Inactive)
REMARK    1  A    between atoms: C3*_2  and  O3*_20
REMARK    2  A    between atoms: C4*_4  and  C5*_18
REMARK    3  A    between atoms: C1*_7  and  N_9
REMARK    4  A    between atoms: C5*_18  and  O5*_19
REMARK                            x       y       z     vdW  Elec       q    Type
REMARK                         _______ _______ _______ _____ _____    ______ ____
ROOT
ATOM      1  C2* UNL     1       8.549  -2.372  25.845  0.00  0.00    +0.088 C 
ATOM      2  C1* UNL     1       9.350  -2.348  24.546  0.00  0.00    +0.226 C 
ATOM      3  O4* UNL     1       9.171  -3.609  23.873  0.00  0.00    -0.348 OA
ATOM      4  C4* UNL     1       8.285  -4.432  24.666  0.00  0.00    +0.175 C 
ATOM      5  C3* UNL     1       7.564  -3.492  25.630  0.00  0.00    +0.150 C 
ENDROOT
BRANCH   2   6
ATOM      6  N   UNL     1       8.990  -1.236  23.669  0.00  0.00    -0.273 N 
ATOM      7  C   UNL     1       9.767  -1.059  22.533  0.00  0.00    +0.331 A 
ATOM      8  O   UNL     1      10.716  -1.776  22.227  0.00  0.00    -0.246 OA
ATOM      9  N   UNL     1       9.426   0.006  21.743  0.00  0.00    -0.274 N 
ATOM     10  H   UNL     1       9.976   0.144  20.910  0.00  0.00    +0.173 HD
ATOM     11  C   UNL     1       8.454   0.934  22.003  0.00  0.00    +0.267 A 
ATOM     12  O   UNL     1       8.259   1.870  21.234  0.00  0.00    -0.267 OA
ATOM     13  C   UNL     1       7.686   0.730  23.262  0.00  0.00    +0.094 A 
ATOM     14  I   UNL     1       6.234   2.064  23.798  0.00  0.00    -0.037 I 
ATOM     15  C   UNL     1       7.996  -0.335  24.013  0.00  0.00    +0.113 A 
ENDBRANCH   2   6
BRANCH   5  16
ATOM     16  O3* UNL     1       6.390  -2.969  25.000  0.00  0.00    -0.389 OA
ATOM     17  H3* UNL     1       6.337  -3.356  24.108  0.00  0.00    +0.210 HD
ENDBRANCH   5  16
BRANCH   4  18
ATOM     18  C5* UNL     1       9.121  -5.511  25.369  0.00  0.00    +0.190 C 
BRANCH  18  19
ATOM     19  O5* UNL     1       8.530  -5.919  26.601  0.00  0.00    -0.392 OA
ATOM     20  H5* UNL     1       9.268  -6.055  27.224  0.00  0.00    +0.210 HD
ENDBRANCH  18  19
ENDBRANCH   4  18
TORSDOF 4
ENDMDL
MODEL 7
REMARK VINA RESULT:      -5.3      2.860      5.901
REMARK  Name = 
REMARK  4 active torsions:
REMARK  status: ('A' for Active; 'I' for Inactive)
REMARK    1  A    between atoms: C3*_2  and  O3*_20
REMARK    2  A    between atoms: C4*_4  and  C5*_18
REMARK    3  A    between atoms: C1*_7  and  N_9
REMARK    4  A    between atoms: C5*_18  and  O5*_19
REMARK                            x       y       z     vdW  Elec       q    Type
REMARK                         _______ _______ _______ _____ _____    ______ ____
ROOT
ATOM      1  C2* UNL     1       5.282  -3.508  24.599  0.00  0.00    +0.088 C 
ATOM      2  C1* UNL     1       6.725  -3.988  24.730  0.00  0.00    +0.226 C 
ATOM      3  O4* UNL     1       6.842  -5.271  24.088  0.00  0.00    -0.348 OA
ATOM      4  C4* UNL     1       5.554  -5.631  23.539  0.00  0.00    +0.175 C 
ATOM      5  C3* UNL     1       4.735  -4.343  23.470  0.00  0.00    +0.150 C 
ENDROOT
BRANCH   2   6
ATOM      6  N   UNL     1       7.697  -3.042  24.184  0.00  0.00    -0.273 N 
ATOM      7  C   UNL     1       9.027  -3.437  24.196  0.00  0.00    +0.331 A 
ATOM      8  O   UNL     1       9.423  -4.518  24.625  0.00  0.00    -0.246 OA
ATOM      9  N   UNL     1       9.920  -2.522  23.704  0.00  0.00    -0.274 N 
ATOM     10  H   UNL     1      10.889  -2.797  23.698  0.00  0.00    +0.173 HD
ATOM     11  C   UNL     1       9.633  -1.254  23.276  0.00  0.00    +0.267 A 
ATOM     12  O   UNL     1      10.525  -0.508  22.885  0.00  0.00    -0.267 OA
ATOM     13  C   UNL     1       8.198  -0.861  23.335  0.00  0.00    +0.094 A 
ATOM     14  I   UNL     1       7.632   1.019  22.769  0.00  0.00    -0.037 I 
ATOM     15  C   UNL     1       7.322  -1.772  23.780  0.00  0.00    +0.113 A 
ENDBRANCH   2   6
BRANCH   5  16
ATOM     16  O3* UNL     1       4.993  -3.678  22.228  0.00  0.00    -0.389 OA
ATOM     17  H3* UNL     1       5.957  -3.670  22.093  0.00  0.00    +0.210 HD
ENDBRANCH   5  16
BRANCH   4  18
ATOM     18  C5* UNL     1       4.927  -6.710  24.432  0.00  0.00    +0.190 C 
BRANCH  18  19
ATOM     19  O5* UNL     1       3.989  -7.510  23.717  0.00  0.00    -0.392 OA
ATOM     20  H5* UNL     1       3.184  -6.968  23.625  0.00  0.00    +0.210 HD
ENDBRANCH  18  19
ENDBRANCH   4  18
TORSDOF 4
ENDMDL
MODEL 8
REMARK VINA RESULT:      -5.3      2.820      5.716
REMARK  Name = 
REMARK  4 active torsions:
REMARK  status: ('A' for Active; 'I' for Inactive)
REMARK    1  A    between atoms: C3*_2  and  O3*_20
REMARK    2  A    between atoms: C4*_4  and  C5*_18
REMARK    3  A    between atoms: C1*_7  and  N_9
REMARK    4  A    between atoms: C5*_18  and  O5*_19
REMARK                            x       y       z     vdW  Elec       q    Type
REMARK                         _______ _______ _______ _____ _____    ______ ____
ROOT
ATOM      1  C2* UNL     1       5.979  -2.652  24.056  0.00  0.00    +0.088 C 
ATOM      2  C1* UNL     1       7.485  -2.869  23.946  0.00  0.00    +0.226 C 
ATOM      3  O4* UNL     1       7.722  -4.054  23.162  0.00  0.00    -0.348 OA
ATOM      4  C4* UNL     1       6.447  -4.598  22.752  0.00  0.00    +0.175 C 
ATOM      5  C3* UNL     1       5.421  -3.480  22.927  0.00  0.00    +0.150 C 
ENDROOT
BRANCH   2   6
ATOM      6  N   UNL     1       8.192  -1.722  23.379  0.00  0.00    -0.273 N 
ATOM      7  C   UNL     1       9.571  -1.830  23.266  0.00  0.00    +0.331 A 
ATOM      8  O   UNL     1      10.215  -2.820  23.603  0.00  0.00    -0.246 OA
ATOM      9  N   UNL     1      10.210  -0.731  22.758  0.00  0.00    -0.274 N 
ATOM     10  H   UNL     1      11.211  -0.797  22.663  0.00  0.00    +0.173 HD
ATOM     11  C   UNL     1       9.634   0.464  22.424  0.00  0.00    +0.267 A 
ATOM     12  O   UNL     1      10.316   1.394  22.007  0.00  0.00    -0.267 OA
ATOM     13  C   UNL     1       8.160   0.546  22.615  0.00  0.00    +0.094 A 
ATOM     14  I   UNL     1       7.173   2.286  22.198  0.00  0.00    -0.037 I 
ATOM     15  C   UNL     1       7.531  -0.543  23.075  0.00  0.00    +0.113 A 
ENDBRANCH   2   6
BRANCH   5  16
ATOM     16  O3* UNL     1       5.376  -2.681  21.739  0.00  0.00    -0.389 OA
ATOM     17  H3* UNL     1       6.294  -2.487  21.480  0.00  0.00    +0.210 HD
ENDBRANCH   5  16
BRANCH   4  18
ATOM     18  C5* UNL     1       6.151  -5.841  23.602  0.00  0.00    +0.190 C 
BRANCH  18  19
ATOM     19  O5* UNL     1       5.240  -6.723  22.951  0.00  0.00    -0.392 OA
ATOM     20  H5* UNL     1       4.564  -6.956  23.615  0.00  0.00    +0.210 HD
ENDBRANCH  18  19
ENDBRANCH   4  18
TORSDOF 4
ENDMDL
MODEL 9
REMARK VINA RESULT:      -5.3      2.357      3.380
REMARK  Name = 
REMARK  4 active torsions:
REMARK  status: ('A' for Active; 'I' for Inactive)
REMARK    1  A    between atoms: C3*_2  and  O3*_20
REMARK    2  A    between atoms: C4*_4  and  C5*_18
REMARK    3  A    between atoms: C1*_7  and  N_9
REMARK    4  A    between atoms: C5*_18  and  O5*_19
REMARK                            x       y       z     vdW  Elec       q    Type
REMARK                         _______ _______ _______ _____ _____    ______ ____
ROOT
ATOM      1  C2* UNL     1       8.073   1.781  21.458  0.00  0.00    +0.088 C 
ATOM      2  C1* UNL     1       9.025   1.548  22.627  0.00  0.00    +0.226 C 
ATOM      3  O4* UNL     1       8.641   2.413  23.713  0.00  0.00    -0.348 OA
ATOM      4  C4* UNL     1       7.483   3.177  23.305  0.00  0.00    +0.175 C 
ATOM      5  C3* UNL     1       6.885   2.451  22.100  0.00  0.00    +0.150 C 
ENDROOT
BRANCH   2   6
ATOM      6  N   UNL     1       9.068   0.154  23.064  0.00  0.00    -0.273 N 
ATOM      7  C   UNL     1      10.167  -0.232  23.819  0.00  0.00    +0.331 A 
ATOM      8  O   UNL     1      11.083   0.522  24.138  0.00  0.00    -0.246 OA
ATOM      9  N   UNL     1      10.196  -1.548  24.192  0.00  0.00    -0.274 N 
ATOM     10  H   UNL     1      10.984  -1.843  24.747  0.00  0.00    +0.173 HD
ATOM     11  C   UNL     1       9.294  -2.515  23.837  0.00  0.00    +0.267 A 
ATOM     12  O   UNL     1       9.442  -3.676  24.206  0.00  0.00    -0.267 OA
ATOM     13  C   UNL     1       8.163  -2.061  22.982  0.00  0.00    +0.094 A 
ATOM     14  I   UNL     1       6.766  -3.406  22.341  0.00  0.00    -0.037 I 
ATOM     15  C   UNL     1       8.116  -0.764  22.651  0.00  0.00    +0.113 A 
ENDBRANCH   2   6
BRANCH   5  16
ATOM     16  O3* UNL     1       5.969   1.448  22.552  0.00  0.00    -0.389 OA
ATOM     17  H3* UNL     1       5.790   0.854  21.801  0.00  0.00    +0.210 HD
ENDBRANCH   5  16
BRANCH   4  18
ATOM     18  C5* UNL     1       7.929   4.613  22.997  0.00  0.00    +0.190 C 
BRANCH  18  19
ATOM     19  O5* UNL     1       7.347   5.101  21.791  0.00  0.00    -0.392 OA
ATOM     20  H5* UNL     1       8.081   5.204  21.157  0.00  0.00    +0.210 HD
ENDBRANCH  18  19
ENDBRANCH   4  18
TORSDOF 4
ENDMDL
