MODEL 1
REMARK VINA RESULT:      -7.1      0.000      0.000
REMARK  Name = 
REMARK  18 active torsions:
REMARK  status: ('A' for Active; 'I' for Inactive)
REMARK    1  A    between atoms: C_1  and  C_2
REMARK    2  A    between atoms: C_2  and  C_39
REMARK    3  A    between atoms: C_7  and  C_25
REMARK    4  A    between atoms: C_10  and  C_12
REMARK    5  A    between atoms: C_12  and  C_13
REMARK    6  A    between atoms: C_12  and  N_17
REMARK    7  A    between atoms: C_13  and  C_14
REMARK    8  A    between atoms: C_13  and  C_15
REMARK    9  A    between atoms: C_13  and  C_16
REMARK   10  A    between atoms: N_20  and  C_21
REMARK   11  A    between atoms: C_21  and  C_22
REMARK   12  A    between atoms: C_21  and  C_23
REMARK   13  A    between atoms: C_21  and  C_24
REMARK   14  A    between atoms: N_27  and  C_28
REMARK   15  A    between atoms: C_28  and  C_29
REMARK   16  A    between atoms: C_28  and  C_34
REMARK   17  A    between atoms: C_29  and  C_30
REMARK   18  A    between atoms: C_34  and  C_36
REMARK                            x       y       z     vdW  Elec       q    Type
REMARK                         _______ _______ _______ _____ _____    ______ ____
ROOT
ATOM      1  C   UNL     1       7.155  -5.581  21.804  0.00  0.00    +0.011 C 
ATOM      2  C   UNL     1       6.790  -4.313  22.552  0.00  0.00    -0.025 C 
ATOM      3  C   UNL     1       5.300  -4.100  22.579  0.00  0.00    +0.011 C 
ATOM      4  C   UNL     1       7.730  -3.933  23.710  0.00  0.00    +0.030 C 
ATOM      5  C   UNL     1       7.596  -2.933  24.848  0.00  0.00    +0.166 C 
ATOM      6  N   UNL     1       7.757  -1.628  24.191  0.00  0.00    -0.288 N 
ATOM      7  C   UNL     1       8.243  -0.548  24.898  0.00  0.00    +0.237 C 
ATOM      8  O   UNL     1       8.588  -0.714  26.074  0.00  0.00    -0.274 OA
ATOM      9  C   UNL     1       7.448  -1.705  22.771  0.00  0.00    +0.113 C 
ATOM     10  C   UNL     1       7.739  -3.139  22.424  0.00  0.00    +0.018 C 
ENDROOT
BRANCH   5  11
ATOM     11  C   UNL     1       6.286  -2.986  25.663  0.00  0.00    +0.234 C 
ATOM     12  N   UNL     1       5.937  -4.215  26.198  0.00  0.00    -0.304 N 
ATOM     13  H   UNL     1       6.588  -4.997  26.096  0.00  0.00    +0.149 HD
ATOM     14  O   UNL     1       5.574  -2.004  25.876  0.00  0.00    -0.274 OA
BRANCH  12  15
ATOM     15  C   UNL     1       4.847  -4.292  27.176  0.00  0.00    +0.149 C 
BRANCH  15  16
ATOM     16  C   UNL     1       5.281  -4.966  28.475  0.00  0.00    +0.237 C 
ATOM     17  O   UNL     1       4.940  -4.618  29.602  0.00  0.00    -0.285 OA
BRANCH  16  18
ATOM     18  C   UNL     1       6.235  -6.158  28.316  0.00  0.00    +0.279 C 
ATOM     19  N   UNL     1       5.694  -7.375  28.611  0.00  0.00    -0.323 N 
ATOM     20  H   UNL     1       6.252  -8.209  28.519  0.00  0.00    +0.145 HD
ATOM     21  H   UNL     1       4.726  -7.440  28.931  0.00  0.00    +0.145 HD
ATOM     22  O   UNL     1       7.381  -6.017  27.927  0.00  0.00    -0.267 OA
ENDBRANCH  16  18
ENDBRANCH  15  16
BRANCH  15  23
ATOM     23  C   UNL     1       3.548  -4.911  26.625  0.00  0.00    +0.034 C 
BRANCH  23  24
ATOM     24  C   UNL     1       3.725  -5.596  25.270  0.00  0.00    -0.009 C 
ATOM     25  C   UNL     1       2.425  -5.994  24.531  0.00  0.00    +0.003 C 
ATOM     26  C   UNL     1       3.021  -7.383  24.269  0.00  0.00    +0.001 C 
ATOM     27  C   UNL     1       4.084  -7.103  25.341  0.00  0.00    +0.003 C 
ENDBRANCH  23  24
ENDBRANCH  15  23
ENDBRANCH  12  15
ENDBRANCH   5  11
BRANCH   7  28
ATOM     28  C   UNL     1       8.397   0.841  24.200  0.00  0.00    +0.166 C 
BRANCH  28  29
ATOM     29  N   UNL     1       7.191   1.160  23.414  0.00  0.00    -0.288 N 
ATOM     30  H   UNL     1       7.006   0.620  22.582  0.00  0.00    +0.151 HD
ATOM     31  C   UNL     1       6.291   2.105  23.825  0.00  0.00    +0.301 C 
ATOM     32  N   UNL     1       5.314   2.365  22.891  0.00  0.00    -0.295 N 
ATOM     33  H   UNL     1       5.508   2.066  21.947  0.00  0.00    +0.151 HD
ATOM     34  O   UNL     1       6.368   2.663  24.913  0.00  0.00    -0.253 OA
BRANCH  32  35
ATOM     35  C   UNL     1       4.274   3.407  23.063  0.00  0.00    +0.028 C 
ATOM     36  C   UNL     1       3.455   3.156  24.340  0.00  0.00    +0.031 C 
ATOM     37  C   UNL     1       3.300   3.358  21.868  0.00  0.00    +0.031 C 
ATOM     38  C   UNL     1       4.889   4.818  23.103  0.00  0.00    +0.031 C 
ENDBRANCH  32  35
ENDBRANCH  28  29
BRANCH  28  39
ATOM     39  C   UNL     1       9.695   0.955  23.309  0.00  0.00    -0.011 C 
ATOM     40  C   UNL     1      10.520   2.188  23.737  0.00  0.00    +0.013 C 
ATOM     41  C   UNL     1       9.300   1.160  21.827  0.00  0.00    +0.013 C 
ATOM     42  C   UNL     1      10.604  -0.291  23.364  0.00  0.00    +0.013 C 
ENDBRANCH  28  39
ENDBRANCH   7  28
TORSDOF 10
ENDMDL
MODEL 2
REMARK VINA RESULT:      -7.0      2.449      3.973
REMARK  Name = 
REMARK  18 active torsions:
REMARK  status: ('A' for Active; 'I' for Inactive)
REMARK    1  A    between atoms: C_1  and  C_2
REMARK    2  A    between atoms: C_2  and  C_39
REMARK    3  A    between atoms: C_7  and  C_25
REMARK    4  A    between atoms: C_10  and  C_12
REMARK    5  A    between atoms: C_12  and  C_13
REMARK    6  A    between atoms: C_12  and  N_17
REMARK    7  A    between atoms: C_13  and  C_14
REMARK    8  A    between atoms: C_13  and  C_15
REMARK    9  A    between atoms: C_13  and  C_16
REMARK   10  A    between atoms: N_20  and  C_21
REMARK   11  A    between atoms: C_21  and  C_22
REMARK   12  A    between atoms: C_21  and  C_23
REMARK   13  A    between atoms: C_21  and  C_24
REMARK   14  A    between atoms: N_27  and  C_28
REMARK   15  A    between atoms: C_28  and  C_29
REMARK   16  A    between atoms: C_28  and  C_34
REMARK   17  A    between atoms: C_29  and  C_30
REMARK   18  A    between atoms: C_34  and  C_36
REMARK                            x       y       z     vdW  Elec       q    Type
REMARK                         _______ _______ _______ _____ _____    ______ ____
ROOT
ATOM      1  C   UNL     1       3.450  -1.522  28.783  0.00  0.00    +0.011 C 
ATOM      2  C   UNL     1       4.601  -1.735  27.818  0.00  0.00    -0.025 C 
ATOM      3  C   UNL     1       5.295  -3.047  28.070  0.00  0.00    +0.011 C 
ATOM      4  C   UNL     1       4.415  -1.119  26.420  0.00  0.00    +0.030 C 
ATOM      5  C   UNL     1       5.168  -1.311  25.112  0.00  0.00    +0.166 C 
ATOM      6  N   UNL     1       6.441  -0.610  25.332  0.00  0.00    -0.288 N 
ATOM      7  C   UNL     1       7.139  -0.084  24.265  0.00  0.00    +0.237 C 
ATOM      8  O   UNL     1       6.647  -0.166  23.134  0.00  0.00    -0.274 OA
ATOM      9  C   UNL     1       6.743  -0.488  26.750  0.00  0.00    +0.113 C 
ATOM     10  C   UNL     1       5.388  -0.509  27.402  0.00  0.00    +0.018 C 
ENDROOT
BRANCH   5  11
ATOM     11  C   UNL     1       5.407  -2.767  24.659  0.00  0.00    +0.234 C 
ATOM     12  N   UNL     1       6.605  -3.347  25.042  0.00  0.00    -0.304 N 
ATOM     13  H   UNL     1       7.230  -2.823  25.659  0.00  0.00    +0.149 HD
ATOM     14  O   UNL     1       4.589  -3.424  24.016  0.00  0.00    -0.274 OA
BRANCH  12  15
ATOM     15  C   UNL     1       6.797  -4.790  24.861  0.00  0.00    +0.149 C 
BRANCH  15  16
ATOM     16  C   UNL     1       6.774  -5.548  26.185  0.00  0.00    +0.237 C 
ATOM     17  O   UNL     1       7.696  -5.585  26.995  0.00  0.00    -0.285 OA
BRANCH  16  18
ATOM     18  C   UNL     1       5.485  -6.328  26.481  0.00  0.00    +0.279 C 
ATOM     19  N   UNL     1       4.493  -6.176  25.558  0.00  0.00    -0.323 N 
ATOM     20  H   UNL     1       3.620  -6.666  25.673  0.00  0.00    +0.145 HD
ATOM     21  H   UNL     1       4.631  -5.561  24.753  0.00  0.00    +0.145 HD
ATOM     22  O   UNL     1       5.380  -7.049  27.458  0.00  0.00    -0.267 OA
ENDBRANCH  16  18
ENDBRANCH  15  16
BRANCH  15  23
ATOM     23  C   UNL     1       8.034  -5.160  24.019  0.00  0.00    +0.034 C 
BRANCH  23  24
ATOM     24  C   UNL     1       7.699  -5.547  22.578  0.00  0.00    -0.009 C 
ATOM     25  C   UNL     1       7.067  -4.439  21.703  0.00  0.00    +0.003 C 
ATOM     26  C   UNL     1       6.001  -5.439  21.239  0.00  0.00    +0.001 C 
ATOM     27  C   UNL     1       6.388  -6.357  22.407  0.00  0.00    +0.003 C 
ENDBRANCH  23  24
ENDBRANCH  15  23
ENDBRANCH  12  15
ENDBRANCH   5  11
BRANCH   7  28
ATOM     28  C   UNL     1       8.501   0.646  24.503  0.00  0.00    +0.166 C 
BRANCH  28  29
ATOM     29  N   UNL     1       8.485   1.985  23.884  0.00  0.00    -0.288 N 
ATOM     30  H   UNL     1       8.654   2.054  22.893  0.00  0.00    +0.151 HD
ATOM     31  C   UNL     1       8.172   3.107  24.602  0.00  0.00    +0.301 C 
ATOM     32  N   UNL     1       8.354   4.271  23.891  0.00  0.00    -0.295 N 
ATOM     33  H   UNL     1       8.932   4.205  23.066  0.00  0.00    +0.151 HD
ATOM     34  O   UNL     1       7.783   3.064  25.762  0.00  0.00    -0.253 OA
BRANCH  32  35
ATOM     35  C   UNL     1       8.167   5.622  24.471  0.00  0.00    +0.028 C 
ATOM     36  C   UNL     1       6.701   5.843  24.880  0.00  0.00    +0.031 C 
ATOM     37  C   UNL     1       8.519   6.687  23.411  0.00  0.00    +0.031 C 
ATOM     38  C   UNL     1       9.090   5.850  25.682  0.00  0.00    +0.031 C 
ENDBRANCH  32  35
ENDBRANCH  28  29
BRANCH  28  39
ATOM     39  C   UNL     1       9.752  -0.184  24.015  0.00  0.00    -0.011 C 
ATOM     40  C   UNL     1      11.034   0.354  24.687  0.00  0.00    +0.013 C 
ATOM     41  C   UNL     1       9.930  -0.017  22.487  0.00  0.00    +0.013 C 
ATOM     42  C   UNL     1       9.645  -1.699  24.294  0.00  0.00    +0.013 C 
ENDBRANCH  28  39
ENDBRANCH   7  28
TORSDOF 10
ENDMDL
MODEL 3
REMARK VINA RESULT:      -6.7      2.354      4.195
REMARK  Name = 
REMARK  18 active torsions:
REMARK  status: ('A' for Active; 'I' for Inactive)
REMARK    1  A    between atoms: C_1  and  C_2
REMARK    2  A    between atoms: C_2  and  C_39
REMARK    3  A    between atoms: C_7  and  C_25
REMARK    4  A    between atoms: C_10  and  C_12
REMARK    5  A    between atoms: C_12  and  C_13
REMARK    6  A    between atoms: C_12  and  N_17
REMARK    7  A    between atoms: C_13  and  C_14
REMARK    8  A    between atoms: C_13  and  C_15
REMARK    9  A    between atoms: C_13  and  C_16
REMARK   10  A    between atoms: N_20  and  C_21
REMARK   11  A    between atoms: C_21  and  C_22
REMARK   12  A    between atoms: C_21  and  C_23
REMARK   13  A    between atoms: C_21  and  C_24
REMARK   14  A    between atoms: N_27  and  C_28
REMARK   15  A    between atoms: C_28  and  C_29
REMARK   16  A    between atoms: C_28  and  C_34
REMARK   17  A    between atoms: C_29  and  C_30
REMARK   18  A    between atoms: C_34  and  C_36
REMARK                            x       y       z     vdW  Elec       q    Type
REMARK                         _______ _______ _______ _____ _____    ______ ____
ROOT
ATOM      1  C   UNL     1       6.343  -6.001  21.167  0.00  0.00    +0.011 C 
ATOM      2  C   UNL     1       5.878  -5.262  22.408  0.00  0.00    -0.025 C 
ATOM      3  C   UNL     1       4.470  -5.641  22.779  0.00  0.00    +0.011 C 
ATOM      4  C   UNL     1       6.976  -4.938  23.436  0.00  0.00    +0.030 C 
ATOM      5  C   UNL     1       6.915  -4.467  24.882  0.00  0.00    +0.166 C 
ATOM      6  N   UNL     1       6.496  -3.062  24.777  0.00  0.00    -0.288 N 
ATOM      7  C   UNL     1       6.847  -2.157  25.756  0.00  0.00    +0.237 C 
ATOM      8  O   UNL     1       7.564  -2.538  26.689  0.00  0.00    -0.274 OA
ATOM      9  C   UNL     1       5.807  -2.804  23.521  0.00  0.00    +0.113 C 
ATOM     10  C   UNL     1       6.373  -3.841  22.590  0.00  0.00    +0.018 C 
ENDROOT
BRANCH   5  11
ATOM     11  C   UNL     1       5.983  -5.256  25.826  0.00  0.00    +0.234 C 
ATOM     12  N   UNL     1       4.717  -4.731  26.030  0.00  0.00    -0.304 N 
ATOM     13  H   UNL     1       4.437  -3.905  25.497  0.00  0.00    +0.149 HD
ATOM     14  O   UNL     1       6.298  -6.316  26.366  0.00  0.00    -0.274 OA
BRANCH  12  15
ATOM     15  C   UNL     1       3.703  -5.541  26.712  0.00  0.00    +0.149 C 
BRANCH  15  16
ATOM     16  C   UNL     1       2.643  -6.071  25.751  0.00  0.00    +0.237 C 
ATOM     17  O   UNL     1       1.847  -5.378  25.123  0.00  0.00    -0.285 OA
BRANCH  16  18
ATOM     18  C   UNL     1       2.588  -7.598  25.599  0.00  0.00    +0.279 C 
ATOM     19  N   UNL     1       1.775  -8.238  26.487  0.00  0.00    -0.323 N 
ATOM     20  H   UNL     1       1.675  -9.240  26.444  0.00  0.00    +0.145 HD
ATOM     21  H   UNL     1       1.275  -7.704  27.200  0.00  0.00    +0.145 HD
ATOM     22  O   UNL     1       3.207  -8.179  24.725  0.00  0.00    -0.267 OA
ENDBRANCH  16  18
ENDBRANCH  15  16
BRANCH  15  23
ATOM     23  C   UNL     1       3.064  -4.853  27.934  0.00  0.00    +0.034 C 
BRANCH  23  24
ATOM     24  C   UNL     1       3.618  -5.346  29.272  0.00  0.00    -0.009 C 
ATOM     25  C   UNL     1       5.015  -4.815  29.669  0.00  0.00    +0.003 C 
ATOM     26  C   UNL     1       5.438  -6.247  30.022  0.00  0.00    +0.001 C 
ATOM     27  C   UNL     1       4.225  -6.772  29.241  0.00  0.00    +0.003 C 
ENDBRANCH  23  24
ENDBRANCH  15  23
ENDBRANCH  12  15
ENDBRANCH   5  11
BRANCH   7  28
ATOM     28  C   UNL     1       6.385  -0.668  25.649  0.00  0.00    +0.166 C 
BRANCH  28  29
ATOM     29  N   UNL     1       7.545   0.220  25.446  0.00  0.00    -0.288 N 
ATOM     30  H   UNL     1       8.161   0.386  26.228  0.00  0.00    +0.151 HD
ATOM     31  C   UNL     1       7.841   0.751  24.221  0.00  0.00    +0.301 C 
ATOM     32  N   UNL     1       8.868   1.667  24.263  0.00  0.00    -0.295 N 
ATOM     33  H   UNL     1       9.093   2.045  25.171  0.00  0.00    +0.151 HD
ATOM     34  O   UNL     1       7.238   0.442  23.201  0.00  0.00    -0.253 OA
BRANCH  32  35
ATOM     35  C   UNL     1       9.320   2.443  23.084  0.00  0.00    +0.028 C 
ATOM     36  C   UNL     1       9.838   1.507  21.979  0.00  0.00    +0.031 C 
ATOM     37  C   UNL     1      10.486   3.366  23.496  0.00  0.00    +0.031 C 
ATOM     38  C   UNL     1       8.195   3.338  22.531  0.00  0.00    +0.031 C 
ENDBRANCH  32  35
ENDBRANCH  28  29
BRANCH  28  39
ATOM     39  C   UNL     1       5.518  -0.189  26.878  0.00  0.00    -0.011 C 
ATOM     40  C   UNL     1       4.525   0.904  26.427  0.00  0.00    +0.013 C 
ATOM     41  C   UNL     1       6.434   0.440  27.955  0.00  0.00    +0.013 C 
ATOM     42  C   UNL     1       4.727  -1.323  27.565  0.00  0.00    +0.013 C 
ENDBRANCH  28  39
ENDBRANCH   7  28
TORSDOF 10
ENDMDL
MODEL 4
REMARK VINA RESULT:      -6.6      2.599      4.405
REMARK  Name = 
REMARK  18 active torsions:
REMARK  status: ('A' for Active; 'I' for Inactive)
REMARK    1  A    between atoms: C_1  and  C_2
REMARK    2  A    between atoms: C_2  and  C_39
REMARK    3  A    between atoms: C_7  and  C_25
REMARK    4  A    between atoms: C_10  and  C_12
REMARK    5  A    between atoms: C_12  and  C_13
REMARK    6  A    between atoms: C_12  and  N_17
REMARK    7  A    between atoms: C_13  and  C_14
REMARK    8  A    between atoms: C_13  and  C_15
REMARK    9  A    between atoms: C_13  and  C_16
REMARK   10  A    between atoms: N_20  and  C_21
REMARK   11  A    between atoms: C_21  and  C_22
REMARK   12  A    between atoms: C_21  and  C_23
REMARK   13  A    between atoms: C_21  and  C_24
REMARK   14  A    between atoms: N_27  and  C_28
REMARK   15  A    between atoms: C_28  and  C_29
REMARK   16  A    between atoms: C_28  and  C_34
REMARK   17  A    between atoms: C_29  and  C_30
REMARK   18  A    between atoms: C_34  and  C_36
REMARK                            x       y       z     vdW  Elec       q    Type
REMARK                         _______ _______ _______ _____ _____    ______ ____
ROOT
ATOM      1  C   UNL     1       3.068  -1.500  28.255  0.00  0.00    +0.011 C 
ATOM      2  C   UNL     1       4.388  -1.690  27.532  0.00  0.00    -0.025 C 
ATOM      3  C   UNL     1       5.250  -2.714  28.221  0.00  0.00    +0.011 C 
ATOM      4  C   UNL     1       4.341  -1.497  26.006  0.00  0.00    +0.030 C 
ATOM      5  C   UNL     1       5.332  -1.838  24.903  0.00  0.00    +0.166 C 
ATOM      6  N   UNL     1       6.402  -0.844  25.071  0.00  0.00    -0.288 N 
ATOM      7  C   UNL     1       7.169  -0.460  23.991  0.00  0.00    +0.237 C 
ATOM      8  O   UNL     1       6.904  -0.927  22.877  0.00  0.00    -0.274 OA
ATOM      9  C   UNL     1       6.426  -0.311  26.424  0.00  0.00    +0.113 C 
ATOM     10  C   UNL     1       5.004  -0.464  26.888  0.00  0.00    +0.018 C 
ENDROOT
BRANCH   5  11
ATOM     11  C   UNL     1       5.901  -3.273  24.906  0.00  0.00    +0.234 C 
ATOM     12  N   UNL     1       5.230  -4.209  24.136  0.00  0.00    -0.304 N 
ATOM     13  H   UNL     1       4.451  -3.896  23.553  0.00  0.00    +0.149 HD
ATOM     14  O   UNL     1       6.914  -3.604  25.523  0.00  0.00    -0.274 OA
BRANCH  12  15
ATOM     15  C   UNL     1       5.844  -5.519  23.898  0.00  0.00    +0.149 C 
BRANCH  15  16
ATOM     16  C   UNL     1       6.781  -5.509  22.694  0.00  0.00    +0.237 C 
ATOM     17  O   UNL     1       7.972  -5.806  22.721  0.00  0.00    -0.285 OA
BRANCH  16  18
ATOM     18  C   UNL     1       6.150  -5.067  21.366  0.00  0.00    +0.279 C 
ATOM     19  N   UNL     1       6.094  -6.033  20.404  0.00  0.00    -0.323 N 
ATOM     20  H   UNL     1       5.681  -5.826  19.508  0.00  0.00    +0.145 HD
ATOM     21  H   UNL     1       6.475  -6.963  20.589  0.00  0.00    +0.145 HD
ATOM     22  O   UNL     1       5.709  -3.943  21.206  0.00  0.00    -0.267 OA
ENDBRANCH  16  18
ENDBRANCH  15  16
BRANCH  15  23
ATOM     23  C   UNL     1       4.836  -6.682  23.819  0.00  0.00    +0.034 C 
BRANCH  23  24
ATOM     24  C   UNL     1       4.261  -7.086  25.178  0.00  0.00    -0.009 C 
ATOM     25  C   UNL     1       3.113  -6.205  25.722  0.00  0.00    +0.003 C 
ATOM     26  C   UNL     1       3.824  -6.147  27.080  0.00  0.00    +0.001 C 
ATOM     27  C   UNL     1       5.108  -6.647  26.401  0.00  0.00    +0.003 C 
ENDBRANCH  23  24
ENDBRANCH  15  23
ENDBRANCH  12  15
ENDBRANCH   5  11
BRANCH   7  28
ATOM     28  C   UNL     1       8.316   0.584  24.177  0.00  0.00    +0.166 C 
BRANCH  28  29
ATOM     29  N   UNL     1       8.015   1.821  23.432  0.00  0.00    -0.288 N 
ATOM     30  H   UNL     1       7.688   1.737  22.482  0.00  0.00    +0.151 HD
ATOM     31  C   UNL     1       8.094   3.054  24.019  0.00  0.00    +0.301 C 
ATOM     32  N   UNL     1       7.920   4.089  23.129  0.00  0.00    -0.295 N 
ATOM     33  H   UNL     1       8.032   3.861  22.152  0.00  0.00    +0.151 HD
ATOM     34  O   UNL     1       8.309   3.205  25.215  0.00  0.00    -0.253 OA
BRANCH  32  35
ATOM     35  C   UNL     1       8.045   5.518  23.501  0.00  0.00    +0.028 C 
ATOM     36  C   UNL     1       7.703   6.426  22.308  0.00  0.00    +0.031 C 
ATOM     37  C   UNL     1       9.503   5.815  23.909  0.00  0.00    +0.031 C 
ATOM     38  C   UNL     1       7.147   5.869  24.702  0.00  0.00    +0.031 C 
ENDBRANCH  32  35
ENDBRANCH  28  29
BRANCH  28  39
ATOM     39  C   UNL     1       9.742   0.027  23.790  0.00  0.00    -0.011 C 
ATOM     40  C   UNL     1       9.835  -1.473  24.145  0.00  0.00    +0.013 C 
ATOM     41  C   UNL     1      10.833   0.760  24.607  0.00  0.00    +0.013 C 
ATOM     42  C   UNL     1      10.100   0.206  22.299  0.00  0.00    +0.013 C 
ENDBRANCH  28  39
ENDBRANCH   7  28
TORSDOF 10
ENDMDL
MODEL 5
REMARK VINA RESULT:      -6.2      1.967      3.593
REMARK  Name = 
REMARK  18 active torsions:
REMARK  status: ('A' for Active; 'I' for Inactive)
REMARK    1  A    between atoms: C_1  and  C_2
REMARK    2  A    between atoms: C_2  and  C_39
REMARK    3  A    between atoms: C_7  and  C_25
REMARK    4  A    between atoms: C_10  and  C_12
REMARK    5  A    between atoms: C_12  and  C_13
REMARK    6  A    between atoms: C_12  and  N_17
REMARK    7  A    between atoms: C_13  and  C_14
REMARK    8  A    between atoms: C_13  and  C_15
REMARK    9  A    between atoms: C_13  and  C_16
REMARK   10  A    between atoms: N_20  and  C_21
REMARK   11  A    between atoms: C_21  and  C_22
REMARK   12  A    between atoms: C_21  and  C_23
REMARK   13  A    between atoms: C_21  and  C_24
REMARK   14  A    between atoms: N_27  and  C_28
REMARK   15  A    between atoms: C_28  and  C_29
REMARK   16  A    between atoms: C_28  and  C_34
REMARK   17  A    between atoms: C_29  and  C_30
REMARK   18  A    between atoms: C_34  and  C_36
REMARK                            x       y       z     vdW  Elec       q    Type
REMARK                         _______ _______ _______ _____ _____    ______ ____
ROOT
ATOM      1  C   UNL     1      10.239  -1.358  22.249  0.00  0.00    +0.011 C 
ATOM      2  C   UNL     1       8.851  -0.884  22.637  0.00  0.00    -0.025 C 
ATOM      3  C   UNL     1       7.783  -1.727  21.995  0.00  0.00    +0.011 C 
ATOM      4  C   UNL     1       8.729  -0.274  24.045  0.00  0.00    +0.030 C 
ATOM      5  C   UNL     1       7.524   0.069  24.908  0.00  0.00    +0.166 C 
ATOM      6  N   UNL     1       6.955   1.260  24.261  0.00  0.00    -0.288 N 
ATOM      7  C   UNL     1       6.234   2.174  25.000  0.00  0.00    +0.237 C 
ATOM      8  O   UNL     1       6.124   2.000  26.220  0.00  0.00    -0.274 OA
ATOM      9  C   UNL     1       7.348   1.346  22.863  0.00  0.00    +0.113 C 
ATOM     10  C   UNL     1       8.657   0.608  22.819  0.00  0.00    +0.018 C 
ENDROOT
BRANCH   5  11
ATOM     11  C   UNL     1       6.459  -1.035  25.075  0.00  0.00    +0.234 C 
ATOM     12  N   UNL     1       6.925  -2.310  25.350  0.00  0.00    -0.304 N 
ATOM     13  H   UNL     1       7.926  -2.445  25.502  0.00  0.00    +0.149 HD
ATOM     14  O   UNL     1       5.247  -0.830  25.007  0.00  0.00    -0.274 OA
BRANCH  12  15
ATOM     15  C   UNL     1       5.975  -3.351  25.758  0.00  0.00    +0.149 C 
BRANCH  15  16
ATOM     16  C   UNL     1       6.456  -4.123  26.984  0.00  0.00    +0.237 C 
ATOM     17  O   UNL     1       5.791  -4.327  27.997  0.00  0.00    -0.285 OA
BRANCH  16  18
ATOM     18  C   UNL     1       7.894  -4.653  26.913  0.00  0.00    +0.279 C 
ATOM     19  N   UNL     1       8.018  -6.006  27.032  0.00  0.00    -0.323 N 
ATOM     20  H   UNL     1       8.929  -6.434  26.982  0.00  0.00    +0.145 HD
ATOM     21  H   UNL     1       7.189  -6.586  27.179  0.00  0.00    +0.145 HD
ATOM     22  O   UNL     1       8.845  -3.912  26.733  0.00  0.00    -0.267 OA
ENDBRANCH  16  18
ENDBRANCH  15  16
BRANCH  15  23
ATOM     23  C   UNL     1       5.555  -4.302  24.621  0.00  0.00    +0.034 C 
BRANCH  23  24
ATOM     24  C   UNL     1       6.453  -4.213  23.386  0.00  0.00    -0.009 C 
ATOM     25  C   UNL     1       5.855  -4.752  22.066  0.00  0.00    +0.003 C 
ATOM     26  C   UNL     1       7.155  -5.525  21.812  0.00  0.00    +0.001 C 
ATOM     27  C   UNL     1       7.536  -5.319  23.286  0.00  0.00    +0.003 C 
ENDBRANCH  23  24
ENDBRANCH  15  23
ENDBRANCH  12  15
ENDBRANCH   5  11
BRANCH   7  28
ATOM     28  C   UNL     1       5.616   3.430  24.305  0.00  0.00    +0.166 C 
BRANCH  28  29
ATOM     29  N   UNL     1       4.864   3.036  23.099  0.00  0.00    -0.288 N 
ATOM     30  H   UNL     1       5.351   2.523  22.380  0.00  0.00    +0.151 HD
ATOM     31  C   UNL     1       3.524   3.279  22.974  0.00  0.00    +0.301 C 
ATOM     32  N   UNL     1       3.034   2.973  21.725  0.00  0.00    -0.295 N 
ATOM     33  H   UNL     1       3.716   2.878  20.988  0.00  0.00    +0.151 HD
ATOM     34  O   UNL     1       2.845   3.734  23.886  0.00  0.00    -0.253 OA
BRANCH  32  35
ATOM     35  C   UNL     1       1.633   3.225  21.311  0.00  0.00    +0.028 C 
ATOM     36  C   UNL     1       0.649   2.475  22.225  0.00  0.00    +0.031 C 
ATOM     37  C   UNL     1       1.423   2.705  19.874  0.00  0.00    +0.031 C 
ATOM     38  C   UNL     1       1.306   4.730  21.312  0.00  0.00    +0.031 C 
ENDBRANCH  32  35
ENDBRANCH  28  29
BRANCH  28  39
ATOM     39  C   UNL     1       6.680   4.546  23.965  0.00  0.00    -0.011 C 
ATOM     40  C   UNL     1       6.113   5.939  24.317  0.00  0.00    +0.013 C 
ATOM     41  C   UNL     1       6.977   4.544  22.446  0.00  0.00    +0.013 C 
ATOM     42  C   UNL     1       8.031   4.365  24.689  0.00  0.00    +0.013 C 
ENDBRANCH  28  39
ENDBRANCH   7  28
TORSDOF 10
ENDMDL
MODEL 6
REMARK VINA RESULT:      -6.2      2.615      9.118
REMARK  Name = 
REMARK  18 active torsions:
REMARK  status: ('A' for Active; 'I' for Inactive)
REMARK    1  A    between atoms: C_1  and  C_2
REMARK    2  A    between atoms: C_2  and  C_39
REMARK    3  A    between atoms: C_7  and  C_25
REMARK    4  A    between atoms: C_10  and  C_12
REMARK    5  A    between atoms: C_12  and  C_13
REMARK    6  A    between atoms: C_12  and  N_17
REMARK    7  A    between atoms: C_13  and  C_14
REMARK    8  A    between atoms: C_13  and  C_15
REMARK    9  A    between atoms: C_13  and  C_16
REMARK   10  A    between atoms: N_20  and  C_21
REMARK   11  A    between atoms: C_21  and  C_22
REMARK   12  A    between atoms: C_21  and  C_23
REMARK   13  A    between atoms: C_21  and  C_24
REMARK   14  A    between atoms: N_27  and  C_28
REMARK   15  A    between atoms: C_28  and  C_29
REMARK   16  A    between atoms: C_28  and  C_34
REMARK   17  A    between atoms: C_29  and  C_30
REMARK   18  A    between atoms: C_34  and  C_36
REMARK                            x       y       z     vdW  Elec       q    Type
REMARK                         _______ _______ _______ _____ _____    ______ ____
ROOT
ATOM      1  C   UNL     1      10.179  -0.345  21.875  0.00  0.00    +0.011 C 
ATOM      2  C   UNL     1       9.431  -0.054  23.163  0.00  0.00    -0.025 C 
ATOM      3  C   UNL     1      10.347   0.509  24.215  0.00  0.00    +0.011 C 
ATOM      4  C   UNL     1       7.960   0.365  22.995  0.00  0.00    +0.030 C 
ATOM      5  C   UNL     1       6.957   0.981  23.959  0.00  0.00    +0.166 C 
ATOM      6  N   UNL     1       6.616  -0.124  24.866  0.00  0.00    -0.288 N 
ATOM      7  C   UNL     1       5.390  -0.152  25.497  0.00  0.00    +0.237 C 
ATOM      8  O   UNL     1       4.569   0.738  25.242  0.00  0.00    -0.274 OA
ATOM      9  C   UNL     1       7.660  -1.137  24.887  0.00  0.00    +0.113 C 
ATOM     10  C   UNL     1       8.309  -1.002  23.538  0.00  0.00    +0.018 C 
ENDROOT
BRANCH   5  11
ATOM     11  C   UNL     1       7.430   2.221  24.747  0.00  0.00    +0.234 C 
ATOM     12  N   UNL     1       7.766   3.339  24.001  0.00  0.00    -0.304 N 
ATOM     13  H   UNL     1       7.615   3.319  22.991  0.00  0.00    +0.149 HD
ATOM     14  O   UNL     1       7.492   2.266  25.976  0.00  0.00    -0.274 OA
BRANCH  12  15
ATOM     15  C   UNL     1       7.988   4.619  24.683  0.00  0.00    +0.149 C 
BRANCH  15  16
ATOM     16  C   UNL     1       7.322   5.785  23.957  0.00  0.00    +0.237 C 
ATOM     17  O   UNL     1       7.185   6.917  24.413  0.00  0.00    -0.285 OA
BRANCH  16  18
ATOM     18  C   UNL     1       6.779   5.471  22.556  0.00  0.00    +0.279 C 
ATOM     19  N   UNL     1       7.489   6.014  21.526  0.00  0.00    -0.323 N 
ATOM     20  H   UNL     1       7.204   5.843  20.574  0.00  0.00    +0.145 HD
ATOM     21  H   UNL     1       8.304   6.599  21.718  0.00  0.00    +0.145 HD
ATOM     22  O   UNL     1       5.801   4.762  22.390  0.00  0.00    -0.267 OA
ENDBRANCH  16  18
ENDBRANCH  15  16
BRANCH  15  23
ATOM     23  C   UNL     1       9.468   4.919  24.994  0.00  0.00    +0.034 C 
BRANCH  23  24
ATOM     24  C   UNL     1      10.329   5.108  23.744  0.00  0.00    -0.009 C 
ATOM     25  C   UNL     1      11.271   3.937  23.381  0.00  0.00    +0.003 C 
ATOM     26  C   UNL     1      12.416   4.940  23.191  0.00  0.00    +0.001 C 
ATOM     27  C   UNL     1      11.588   5.990  23.946  0.00  0.00    +0.003 C 
ENDBRANCH  23  24
ENDBRANCH  15  23
ENDBRANCH  12  15
ENDBRANCH   5  11
BRANCH   7  28
ATOM     28  C   UNL     1       5.038  -1.320  26.474  0.00  0.00    +0.166 C 
BRANCH  28  29
ATOM     29  N   UNL     1       4.272  -2.367  25.772  0.00  0.00    -0.288 N 
ATOM     30  H   UNL     1       3.353  -2.135  25.428  0.00  0.00    +0.151 HD
ATOM     31  C   UNL     1       4.805  -3.600  25.514  0.00  0.00    +0.301 C 
ATOM     32  N   UNL     1       3.892  -4.484  24.986  0.00  0.00    -0.295 N 
ATOM     33  H   UNL     1       2.919  -4.243  25.101  0.00  0.00    +0.151 HD
ATOM     34  O   UNL     1       5.975  -3.877  25.747  0.00  0.00    -0.253 OA
BRANCH  32  35
ATOM     35  C   UNL     1       4.200  -5.905  24.700  0.00  0.00    +0.028 C 
ATOM     36  C   UNL     1       5.283  -6.021  23.613  0.00  0.00    +0.031 C 
ATOM     37  C   UNL     1       2.932  -6.606  24.171  0.00  0.00    +0.031 C 
ATOM     38  C   UNL     1       4.648  -6.653  25.969  0.00  0.00    +0.031 C 
ENDBRANCH  32  35
ENDBRANCH  28  29
BRANCH  28  39
ATOM     39  C   UNL     1       4.280  -0.844  27.774  0.00  0.00    -0.011 C 
ATOM     40  C   UNL     1       5.078   0.283  28.465  0.00  0.00    +0.013 C 
ATOM     41  C   UNL     1       4.177  -2.015  28.781  0.00  0.00    +0.013 C 
ATOM     42  C   UNL     1       2.843  -0.346  27.514  0.00  0.00    +0.013 C 
ENDBRANCH  28  39
ENDBRANCH   7  28
TORSDOF 10
ENDMDL
MODEL 7
REMARK VINA RESULT:      -6.2      2.053      3.442
REMARK  Name = 
REMARK  18 active torsions:
REMARK  status: ('A' for Active; 'I' for Inactive)
REMARK    1  A    between atoms: C_1  and  C_2
REMARK    2  A    between atoms: C_2  and  C_39
REMARK    3  A    between atoms: C_7  and  C_25
REMARK    4  A    between atoms: C_10  and  C_12
REMARK    5  A    between atoms: C_12  and  C_13
REMARK    6  A    between atoms: C_12  and  N_17
REMARK    7  A    between atoms: C_13  and  C_14
REMARK    8  A    between atoms: C_13  and  C_15
REMARK    9  A    between atoms: C_13  and  C_16
REMARK   10  A    between atoms: N_20  and  C_21
REMARK   11  A    between atoms: C_21  and  C_22
REMARK   12  A    between atoms: C_21  and  C_23
REMARK   13  A    between atoms: C_21  and  C_24
REMARK   14  A    between atoms: N_27  and  C_28
REMARK   15  A    between atoms: C_28  and  C_29
REMARK   16  A    between atoms: C_28  and  C_34
REMARK   17  A    between atoms: C_29  and  C_30
REMARK   18  A    between atoms: C_34  and  C_36
REMARK                            x       y       z     vdW  Elec       q    Type
REMARK                         _______ _______ _______ _____ _____    ______ ____
ROOT
ATOM      1  C   UNL     1       7.156  -6.012  21.313  0.00  0.00    +0.011 C 
ATOM      2  C   UNL     1       6.501  -5.247  22.447  0.00  0.00    -0.025 C 
ATOM      3  C   UNL     1       5.042  -5.597  22.576  0.00  0.00    +0.011 C 
ATOM      4  C   UNL     1       7.413  -4.927  23.645  0.00  0.00    +0.030 C 
ATOM      5  C   UNL     1       7.114  -4.434  25.053  0.00  0.00    +0.166 C 
ATOM      6  N   UNL     1       6.746  -3.024  24.861  0.00  0.00    -0.288 N 
ATOM      7  C   UNL     1       6.942  -2.110  25.876  0.00  0.00    +0.237 C 
ATOM      8  O   UNL     1       7.480  -2.490  26.922  0.00  0.00    -0.274 OA
ATOM      9  C   UNL     1       6.287  -2.773  23.503  0.00  0.00    +0.113 C 
ATOM     10  C   UNL     1       6.984  -3.832  22.695  0.00  0.00    +0.018 C 
ENDROOT
BRANCH   5  11
ATOM     11  C   UNL     1       6.019  -5.193  25.832  0.00  0.00    +0.234 C 
ATOM     12  N   UNL     1       5.141  -4.423  26.577  0.00  0.00    -0.304 N 
ATOM     13  H   UNL     1       5.208  -3.405  26.517  0.00  0.00    +0.149 HD
ATOM     14  O   UNL     1       5.880  -6.416  25.797  0.00  0.00    -0.274 OA
BRANCH  12  15
ATOM     15  C   UNL     1       3.939  -5.046  27.143  0.00  0.00    +0.149 C 
BRANCH  15  16
ATOM     16  C   UNL     1       4.144  -5.489  28.589  0.00  0.00    +0.237 C 
ATOM     17  O   UNL     1       3.339  -5.320  29.501  0.00  0.00    -0.285 OA
BRANCH  16  18
ATOM     18  C   UNL     1       5.481  -6.181  28.888  0.00  0.00    +0.279 C 
ATOM     19  N   UNL     1       5.515  -7.516  28.613  0.00  0.00    -0.323 N 
ATOM     20  H   UNL     1       6.361  -8.040  28.770  0.00  0.00    +0.145 HD
ATOM     21  H   UNL     1       4.681  -7.987  28.256  0.00  0.00    +0.145 HD
ATOM     22  O   UNL     1       6.443  -5.564  29.312  0.00  0.00    -0.267 OA
ENDBRANCH  16  18
ENDBRANCH  15  16
BRANCH  15  23
ATOM     23  C   UNL     1       3.353  -6.182  26.281  0.00  0.00    +0.034 C 
BRANCH  23  24
ATOM     24  C   UNL     1       2.065  -5.794  25.554  0.00  0.00    -0.009 C 
ATOM     25  C   UNL     1       1.742  -6.587  24.267  0.00  0.00    +0.003 C 
ATOM     26  C   UNL     1       1.451  -5.265  23.546  0.00  0.00    +0.001 C 
ATOM     27  C   UNL     1       2.167  -4.517  24.679  0.00  0.00    +0.003 C 
ENDBRANCH  23  24
ENDBRANCH  15  23
ENDBRANCH  12  15
ENDBRANCH   5  11
BRANCH   7  28
ATOM     28  C   UNL     1       6.533  -0.616  25.674  0.00  0.00    +0.166 C 
BRANCH  28  29
ATOM     29  N   UNL     1       7.726   0.219  25.436  0.00  0.00    -0.288 N 
ATOM     30  H   UNL     1       8.392   0.323  26.186  0.00  0.00    +0.151 HD
ATOM     31  C   UNL     1       7.982   0.779  24.214  0.00  0.00    +0.301 C 
ATOM     32  N   UNL     1       9.057   1.638  24.229  0.00  0.00    -0.295 N 
ATOM     33  H   UNL     1       9.352   1.970  25.135  0.00  0.00    +0.151 HD
ATOM     34  O   UNL     1       7.307   0.539  23.221  0.00  0.00    -0.253 OA
BRANCH  32  35
ATOM     35  C   UNL     1       9.484   2.434  23.053  0.00  0.00    +0.028 C 
ATOM     36  C   UNL     1      10.677   3.337  23.409  0.00  0.00    +0.031 C 
ATOM     37  C   UNL     1       8.324   3.350  22.608  0.00  0.00    +0.031 C 
ATOM     38  C   UNL     1       9.846   1.530  21.860  0.00  0.00    +0.031 C 
ENDBRANCH  32  35
ENDBRANCH  28  29
BRANCH  28  39
ATOM     39  C   UNL     1       5.668  -0.035  26.860  0.00  0.00    -0.011 C 
ATOM     40  C   UNL     1       4.696  -1.116  27.380  0.00  0.00    +0.013 C 
ATOM     41  C   UNL     1       4.809   1.149  26.354  0.00  0.00    +0.013 C 
ATOM     42  C   UNL     1       6.505   0.490  28.046  0.00  0.00    +0.013 C 
ENDBRANCH  28  39
ENDBRANCH   7  28
TORSDOF 10
ENDMDL
MODEL 8
REMARK VINA RESULT:      -6.2      1.180      2.075
REMARK  Name = 
REMARK  18 active torsions:
REMARK  status: ('A' for Active; 'I' for Inactive)
REMARK    1  A    between atoms: C_1  and  C_2
REMARK    2  A    between atoms: C_2  and  C_39
REMARK    3  A    between atoms: C_7  and  C_25
REMARK    4  A    between atoms: C_10  and  C_12
REMARK    5  A    between atoms: C_12  and  C_13
REMARK    6  A    between atoms: C_12  and  N_17
REMARK    7  A    between atoms: C_13  and  C_14
REMARK    8  A    between atoms: C_13  and  C_15
REMARK    9  A    between atoms: C_13  and  C_16
REMARK   10  A    between atoms: N_20  and  C_21
REMARK   11  A    between atoms: C_21  and  C_22
REMARK   12  A    between atoms: C_21  and  C_23
REMARK   13  A    between atoms: C_21  and  C_24
REMARK   14  A    between atoms: N_27  and  C_28
REMARK   15  A    between atoms: C_28  and  C_29
REMARK   16  A    between atoms: C_28  and  C_34
REMARK   17  A    between atoms: C_29  and  C_30
REMARK   18  A    between atoms: C_34  and  C_36
REMARK                            x       y       z     vdW  Elec       q    Type
REMARK                         _______ _______ _______ _____ _____    ______ ____
ROOT
ATOM      1  C   UNL     1       6.759  -5.612  21.503  0.00  0.00    +0.011 C 
ATOM      2  C   UNL     1       6.540  -4.409  22.402  0.00  0.00    -0.025 C 
ATOM      3  C   UNL     1       5.079  -4.197  22.691  0.00  0.00    +0.011 C 
ATOM      4  C   UNL     1       7.663  -4.127  23.415  0.00  0.00    +0.030 C 
ATOM      5  C   UNL     1       7.733  -3.223  24.637  0.00  0.00    +0.166 C 
ATOM      6  N   UNL     1       7.804  -1.869  24.070  0.00  0.00    -0.288 N 
ATOM      7  C   UNL     1       8.415  -0.851  24.772  0.00  0.00    +0.237 C 
ATOM      8  O   UNL     1       8.946  -1.114  25.858  0.00  0.00    -0.274 OA
ATOM      9  C   UNL     1       7.264  -1.828  22.719  0.00  0.00    +0.113 C 
ATOM     10  C   UNL     1       7.473  -3.229  22.214  0.00  0.00    +0.018 C 
ENDROOT
BRANCH   5  11
ATOM     11  C   UNL     1       6.574  -3.341  25.650  0.00  0.00    +0.234 C 
ATOM     12  N   UNL     1       6.148  -4.622  25.959  0.00  0.00    -0.304 N 
ATOM     13  H   UNL     1       6.661  -5.417  25.570  0.00  0.00    +0.149 HD
ATOM     14  O   UNL     1       6.047  -2.374  26.200  0.00  0.00    -0.274 OA
BRANCH  12  15
ATOM     15  C   UNL     1       5.227  -4.824  27.083  0.00  0.00    +0.149 C 
BRANCH  15  16
ATOM     16  C   UNL     1       5.353  -6.218  27.691  0.00  0.00    +0.237 C 
ATOM     17  O   UNL     1       4.932  -7.253  27.180  0.00  0.00    -0.285 OA
BRANCH  16  18
ATOM     18  C   UNL     1       6.048  -6.286  29.057  0.00  0.00    +0.279 C 
ATOM     19  N   UNL     1       6.697  -7.457  29.317  0.00  0.00    -0.323 N 
ATOM     20  H   UNL     1       7.190  -7.575  30.189  0.00  0.00    +0.145 HD
ATOM     21  H   UNL     1       6.678  -8.216  28.634  0.00  0.00    +0.145 HD
ATOM     22  O   UNL     1       6.039  -5.344  29.831  0.00  0.00    -0.267 OA
ENDBRANCH  16  18
ENDBRANCH  15  16
BRANCH  15  23
ATOM     23  C   UNL     1       3.760  -4.476  26.765  0.00  0.00    +0.034 C 
BRANCH  23  24
ATOM     24  C   UNL     1       3.083  -3.636  27.848  0.00  0.00    -0.009 C 
ATOM     25  C   UNL     1       4.024  -2.911  28.839  0.00  0.00    +0.003 C 
ATOM     26  C   UNL     1       3.166  -3.423  30.002  0.00  0.00    +0.001 C 
ATOM     27  C   UNL     1       2.527  -4.444  29.049  0.00  0.00    +0.003 C 
ENDBRANCH  23  24
ENDBRANCH  15  23
ENDBRANCH  12  15
ENDBRANCH   5  11
BRANCH   7  28
ATOM     28  C   UNL     1       8.473   0.590  24.172  0.00  0.00    +0.166 C 
BRANCH  28  29
ATOM     29  N   UNL     1       7.220   0.904  23.459  0.00  0.00    -0.288 N 
ATOM     30  H   UNL     1       6.939   0.300  22.702  0.00  0.00    +0.151 HD
ATOM     31  C   UNL     1       6.407   1.932  23.848  0.00  0.00    +0.301 C 
ATOM     32  N   UNL     1       5.367   2.159  22.976  0.00  0.00    -0.295 N 
ATOM     33  H   UNL     1       5.464   1.763  22.053  0.00  0.00    +0.151 HD
ATOM     34  O   UNL     1       6.604   2.584  24.866  0.00  0.00    -0.253 OA
BRANCH  32  35
ATOM     35  C   UNL     1       4.398   3.270  23.129  0.00  0.00    +0.028 C 
ATOM     36  C   UNL     1       5.124   4.625  23.182  0.00  0.00    +0.031 C 
ATOM     37  C   UNL     1       3.632   3.101  24.457  0.00  0.00    +0.031 C 
ATOM     38  C   UNL     1       3.359   3.275  21.992  0.00  0.00    +0.031 C 
ENDBRANCH  32  35
ENDBRANCH  28  29
BRANCH  28  39
ATOM     39  C   UNL     1       9.725   0.834  23.243  0.00  0.00    -0.011 C 
ATOM     40  C   UNL     1      10.686   1.843  23.908  0.00  0.00    +0.013 C 
ATOM     41  C   UNL     1       9.270   1.452  21.898  0.00  0.00    +0.013 C 
ATOM     42  C   UNL     1      10.513  -0.450  22.905  0.00  0.00    +0.013 C 
ENDBRANCH  28  39
ENDBRANCH   7  28
TORSDOF 10
ENDMDL
MODEL 9
REMARK VINA RESULT:      -6.2      2.449      5.183
REMARK  Name = 
REMARK  18 active torsions:
REMARK  status: ('A' for Active; 'I' for Inactive)
REMARK    1  A    between atoms: C_1  and  C_2
REMARK    2  A    between atoms: C_2  and  C_39
REMARK    3  A    between atoms: C_7  and  C_25
REMARK    4  A    between atoms: C_10  and  C_12
REMARK    5  A    between atoms: C_12  and  C_13
REMARK    6  A    between atoms: C_12  and  N_17
REMARK    7  A    between atoms: C_13  and  C_14
REMARK    8  A    between atoms: C_13  and  C_15
REMARK    9  A    between atoms: C_13  and  C_16
REMARK   10  A    between atoms: N_20  and  C_21
REMARK   11  A    between atoms: C_21  and  C_22
REMARK   12  A    between atoms: C_21  and  C_23
REMARK   13  A    between atoms: C_21  and  C_24
REMARK   14  A    between atoms: N_27  and  C_28
REMARK   15  A    between atoms: C_28  and  C_29
REMARK   16  A    between atoms: C_28  and  C_34
REMARK   17  A    between atoms: C_29  and  C_30
REMARK   18  A    between atoms: C_34  and  C_36
REMARK                            x       y       z     vdW  Elec       q    Type
REMARK                         _______ _______ _______ _____ _____    ______ ____
ROOT
ATOM      1  C   UNL     1      10.926   2.600  23.224  0.00  0.00    +0.011 C 
ATOM      2  C   UNL     1       9.489   2.120  23.152  0.00  0.00    -0.025 C 
ATOM      3  C   UNL     1       9.208   1.416  21.852  0.00  0.00    +0.011 C 
ATOM      4  C   UNL     1       8.856   1.718  24.496  0.00  0.00    +0.030 C 
ATOM      5  C   UNL     1       7.582   0.960  24.840  0.00  0.00    +0.166 C 
ATOM      6  N   UNL     1       6.510   1.919  24.537  0.00  0.00    -0.288 N 
ATOM      7  C   UNL     1       5.304   1.845  25.202  0.00  0.00    +0.237 C 
ATOM      8  O   UNL     1       5.165   0.996  26.090  0.00  0.00    -0.274 OA
ATOM      9  C   UNL     1       6.949   2.927  23.585  0.00  0.00    +0.113 C 
ATOM     10  C   UNL     1       8.436   2.994  23.804  0.00  0.00    +0.018 C 
ENDROOT
BRANCH   5  11
ATOM     11  C   UNL     1       7.356  -0.377  24.104  0.00  0.00    +0.234 C 
ATOM     12  N   UNL     1       8.192  -1.426  24.451  0.00  0.00    -0.304 N 
ATOM     13  H   UNL     1       8.856  -1.292  25.216  0.00  0.00    +0.149 HD
ATOM     14  O   UNL     1       6.470  -0.555  23.268  0.00  0.00    -0.274 OA
BRANCH  12  15
ATOM     15  C   UNL     1       7.884  -2.780  23.977  0.00  0.00    +0.149 C 
BRANCH  15  16
ATOM     16  C   UNL     1       8.704  -3.845  24.699  0.00  0.00    +0.237 C 
ATOM     17  O   UNL     1       9.889  -4.092  24.487  0.00  0.00    -0.285 OA
BRANCH  16  18
ATOM     18  C   UNL     1       7.947  -4.665  25.753  0.00  0.00    +0.279 C 
ATOM     19  N   UNL     1       8.680  -5.640  26.363  0.00  0.00    -0.323 N 
ATOM     20  H   UNL     1       8.258  -6.213  27.077  0.00  0.00    +0.145 HD
ATOM     21  H   UNL     1       9.652  -5.795  26.092  0.00  0.00    +0.145 HD
ATOM     22  O   UNL     1       6.785  -4.431  26.036  0.00  0.00    -0.267 OA
ENDBRANCH  16  18
ENDBRANCH  15  16
BRANCH  15  23
ATOM     23  C   UNL     1       7.965  -2.946  22.447  0.00  0.00    +0.034 C 
BRANCH  23  24
ATOM     24  C   UNL     1       6.815  -3.767  21.861  0.00  0.00    -0.009 C 
ATOM     25  C   UNL     1       5.593  -3.985  22.782  0.00  0.00    +0.003 C 
ATOM     26  C   UNL     1       5.612  -5.476  22.425  0.00  0.00    +0.001 C 
ATOM     27  C   UNL     1       7.035  -5.302  21.876  0.00  0.00    +0.003 C 
ENDBRANCH  23  24
ENDBRANCH  15  23
ENDBRANCH  12  15
ENDBRANCH   5  11
BRANCH   7  28
ATOM     28  C   UNL     1       4.161   2.856  24.865  0.00  0.00    +0.166 C 
BRANCH  28  29
ATOM     29  N   UNL     1       3.972   2.955  23.405  0.00  0.00    -0.288 N 
ATOM     30  H   UNL     1       4.791   2.942  22.817  0.00  0.00    +0.151 HD
ATOM     31  C   UNL     1       2.727   2.983  22.840  0.00  0.00    +0.301 C 
ATOM     32  N   UNL     1       2.755   3.226  21.485  0.00  0.00    -0.295 N 
ATOM     33  H   UNL     1       3.610   3.617  21.118  0.00  0.00    +0.151 HD
ATOM     34  O   UNL     1       1.701   2.820  23.487  0.00  0.00    -0.253 OA
BRANCH  32  35
ATOM     35  C   UNL     1       1.535   3.389  20.658  0.00  0.00    +0.028 C 
ATOM     36  C   UNL     1       0.705   2.094  20.647  0.00  0.00    +0.031 C 
ATOM     37  C   UNL     1       1.943   3.692  19.201  0.00  0.00    +0.031 C 
ATOM     38  C   UNL     1       0.671   4.563  21.152  0.00  0.00    +0.031 C 
ENDBRANCH  32  35
ENDBRANCH  28  29
BRANCH  28  39
ATOM     39  C   UNL     1       4.377   4.284  25.502  0.00  0.00    -0.011 C 
ATOM     40  C   UNL     1       5.404   4.197  26.652  0.00  0.00    +0.013 C 
ATOM     41  C   UNL     1       3.049   4.795  26.111  0.00  0.00    +0.013 C 
ATOM     42  C   UNL     1       4.852   5.353  24.495  0.00  0.00    +0.013 C 
ENDBRANCH  28  39
ENDBRANCH   7  28
TORSDOF 10
ENDMDL
