MODEL 1
REMARK VINA RESULT:      -6.0      0.000      0.000
REMARK  Name = 
REMARK  5 active torsions:
REMARK  status: ('A' for Active; 'I' for Inactive)
REMARK    1  A    between atoms: C3*_2  and  O3*_22
REMARK    2  A    between atoms: C4*_4  and  C5*_20
REMARK    3  A    between atoms: C1*_7  and  N_9
REMARK    4  A    between atoms: C_11  and  C_17
REMARK    5  A    between atoms: C5*_20  and  O5*_21
REMARK                            x       y       z     vdW  Elec       q    Type
REMARK                         _______ _______ _______ _____ _____    ______ ____
ROOT
ATOM      1  N   UNL     1       8.081  -2.878  23.998  0.00  0.00    -0.258 N 
ATOM      2  C   UNL     1       9.457  -3.022  24.076  0.00  0.00    +0.310 C 
ATOM      3  O   UNL     1      10.019  -4.031  24.489  0.00  0.00    -0.252 OA
ATOM      4  N   UNL     1      10.180  -1.923  23.684  0.00  0.00    -0.239 N 
ATOM      5  H   UNL     1      11.184  -2.011  23.740  0.00  0.00    +0.159 HD
ATOM      6  C   UNL     1       9.696  -0.655  23.450  0.00  0.00    +0.229 C 
ATOM      7  O   UNL     1      10.466   0.284  23.266  0.00  0.00    -0.275 OA
ATOM      8  C   UNL     1       8.180  -0.509  23.535  0.00  0.00    +0.116 C 
ATOM      9  C   UNL     1       7.580  -1.842  23.106  0.00  0.00    +0.128 C 
ENDROOT
BRANCH   1  11
ATOM     10  C2* UNL     1       5.752  -3.697  24.260  0.00  0.00    +0.086 C 
ATOM     11  C1* UNL     1       7.243  -3.991  24.425  0.00  0.00    +0.212 C 
ATOM     12  O4* UNL     1       7.523  -5.151  23.616  0.00  0.00    -0.350 OA
ATOM     13  C4* UNL     1       6.320  -5.519  22.909  0.00  0.00    +0.174 C 
ATOM     14  C3* UNL     1       5.453  -4.270  22.896  0.00  0.00    +0.150 C 
BRANCH  14  15
ATOM     15  O3* UNL     1       4.074  -4.545  22.712  0.00  0.00    -0.389 OA
ATOM     16  H3* UNL     1       3.578  -4.214  23.480  0.00  0.00    +0.210 HD
ENDBRANCH  14  15
BRANCH  13  17
ATOM     17  C5* UNL     1       6.645  -6.061  21.518  0.00  0.00    +0.190 C 
BRANCH  17  18
ATOM     18  O5* UNL     1       5.941  -5.355  20.499  0.00  0.00    -0.392 OA
ATOM     19  H5* UNL     1       5.534  -4.590  20.939  0.00  0.00    +0.210 HD
ENDBRANCH  17  18
ENDBRANCH  13  17
ENDBRANCH   1  11
BRANCH   8  20
ATOM     20  C   UNL     1       7.662   0.622  22.689  0.00  0.00    -0.005 C 
ATOM     21  C   UNL     1       7.310   1.811  23.195  0.00  0.00    +0.047 C 
ATOM     22 BR   UNL     1       6.651   3.214  22.178  0.00  0.00    -0.059 Br
ENDBRANCH   8  20
TORSDOF 5
ENDMDL
MODEL 2
REMARK VINA RESULT:      -6.0      1.805      2.029
REMARK  Name = 
REMARK  5 active torsions:
REMARK  status: ('A' for Active; 'I' for Inactive)
REMARK    1  A    between atoms: C3*_2  and  O3*_22
REMARK    2  A    between atoms: C4*_4  and  C5*_20
REMARK    3  A    between atoms: C1*_7  and  N_9
REMARK    4  A    between atoms: C_11  and  C_17
REMARK    5  A    between atoms: C5*_20  and  O5*_21
REMARK                            x       y       z     vdW  Elec       q    Type
REMARK                         _______ _______ _______ _____ _____    ______ ____
ROOT
ATOM      1  N   UNL     1       7.551  -3.992  24.955  0.00  0.00    -0.258 N 
ATOM      2  C   UNL     1       7.988  -3.828  26.259  0.00  0.00    +0.310 C 
ATOM      3  O   UNL     1       7.813  -4.652  27.151  0.00  0.00    -0.252 OA
ATOM      4  N   UNL     1       8.620  -2.637  26.515  0.00  0.00    -0.239 N 
ATOM      5  H   UNL     1       8.940  -2.500  27.463  0.00  0.00    +0.159 HD
ATOM      6  C   UNL     1       8.657  -1.529  25.698  0.00  0.00    +0.229 C 
ATOM      7  O   UNL     1       9.113  -0.464  26.109  0.00  0.00    -0.275 OA
ATOM      8  C   UNL     1       8.016  -1.707  24.326  0.00  0.00    +0.116 C 
ATOM      9  C   UNL     1       8.193  -3.170  23.940  0.00  0.00    +0.128 C 
ENDROOT
BRANCH   1  11
ATOM     10  C2* UNL     1       5.325  -5.050  24.650  0.00  0.00    +0.086 C 
ATOM     11  C1* UNL     1       6.844  -5.219  24.611  0.00  0.00    +0.212 C 
ATOM     12  O4* UNL     1       7.178  -5.613  23.264  0.00  0.00    -0.350 OA
ATOM     13  C4* UNL     1       5.971  -5.606  22.472  0.00  0.00    +0.174 C 
ATOM     14  C3* UNL     1       4.996  -4.708  23.217  0.00  0.00    +0.150 C 
BRANCH  14  15
ATOM     15  O3* UNL     1       3.639  -4.963  22.895  0.00  0.00    -0.389 OA
ATOM     16  H3* UNL     1       3.228  -5.462  23.620  0.00  0.00    +0.210 HD
ENDBRANCH  14  15
BRANCH  13  17
ATOM     17  C5* UNL     1       6.258  -5.155  21.041  0.00  0.00    +0.190 C 
BRANCH  17  18
ATOM     18  O5* UNL     1       5.645  -3.901  20.750  0.00  0.00    -0.392 OA
ATOM     19  H5* UNL     1       5.932  -3.296  21.455  0.00  0.00    +0.210 HD
ENDBRANCH  17  18
ENDBRANCH  13  17
ENDBRANCH   1  11
BRANCH   8  20
ATOM     20  C   UNL     1       8.610  -0.792  23.289  0.00  0.00    -0.005 C 
ATOM     21  C   UNL     1       8.027   0.351  22.905  0.00  0.00    +0.047 C 
ATOM     22 BR   UNL     1       8.728   1.486  21.617  0.00  0.00    -0.059 Br
ENDBRANCH   8  20
TORSDOF 5
ENDMDL
MODEL 3
REMARK VINA RESULT:      -6.0      3.555      5.609
REMARK  Name = 
REMARK  5 active torsions:
REMARK  status: ('A' for Active; 'I' for Inactive)
REMARK    1  A    between atoms: C3*_2  and  O3*_22
REMARK    2  A    between atoms: C4*_4  and  C5*_20
REMARK    3  A    between atoms: C1*_7  and  N_9
REMARK    4  A    between atoms: C_11  and  C_17
REMARK    5  A    between atoms: C5*_20  and  O5*_21
REMARK                            x       y       z     vdW  Elec       q    Type
REMARK                         _______ _______ _______ _____ _____    ______ ____
ROOT
ATOM      1  N   UNL     1       8.478  -3.683  24.977  0.00  0.00    -0.258 N 
ATOM      2  C   UNL     1       9.300  -4.700  25.436  0.00  0.00    +0.310 C 
ATOM      3  O   UNL     1      10.345  -5.038  24.889  0.00  0.00    -0.252 OA
ATOM      4  N   UNL     1       8.848  -5.352  26.556  0.00  0.00    -0.239 N 
ATOM      5  H   UNL     1       9.434  -6.100  26.899  0.00  0.00    +0.159 HD
ATOM      6  C   UNL     1       7.593  -5.261  27.115  0.00  0.00    +0.229 C 
ATOM      7  O   UNL     1       7.255  -6.021  28.020  0.00  0.00    -0.275 OA
ATOM      8  C   UNL     1       6.663  -4.239  26.471  0.00  0.00    +0.116 C 
ATOM      9  C   UNL     1       7.542  -3.115  25.935  0.00  0.00    +0.128 C 
ENDROOT
BRANCH   1  11
ATOM     10  C2* UNL     1       7.779  -2.025  23.266  0.00  0.00    +0.086 C 
ATOM     11  C1* UNL     1       8.875  -2.962  23.774  0.00  0.00    +0.212 C 
ATOM     12  O4* UNL     1      10.022  -2.135  24.057  0.00  0.00    -0.350 OA
ATOM     13  C4* UNL     1       9.659  -0.756  23.837  0.00  0.00    +0.174 C 
ATOM     14  C3* UNL     1       8.141  -0.713  23.919  0.00  0.00    +0.150 C 
BRANCH  14  15
ATOM     15  O3* UNL     1       7.574   0.401  23.250  0.00  0.00    -0.389 OA
ATOM     16  H3* UNL     1       7.152   0.099  22.428  0.00  0.00    +0.210 HD
ENDBRANCH  14  15
BRANCH  13  17
ATOM     17  C5* UNL     1      10.359   0.162  24.837  0.00  0.00    +0.190 C 
BRANCH  17  18
ATOM     18  O5* UNL     1       9.544   1.279  25.187  0.00  0.00    -0.392 OA
ATOM     19  H5* UNL     1       9.447   1.801  24.374  0.00  0.00    +0.210 HD
ENDBRANCH  17  18
ENDBRANCH  13  17
ENDBRANCH   1  11
BRANCH   8  20
ATOM     20  C   UNL     1       5.629  -3.715  27.431  0.00  0.00    -0.005 C 
ATOM     21  C   UNL     1       5.097  -2.490  27.333  0.00  0.00    +0.047 C 
ATOM     22 BR   UNL     1       3.836  -1.814  28.512  0.00  0.00    -0.059 Br
ENDBRANCH   8  20
TORSDOF 5
ENDMDL
MODEL 4
REMARK VINA RESULT:      -6.0      3.541      6.041
REMARK  Name = 
REMARK  5 active torsions:
REMARK  status: ('A' for Active; 'I' for Inactive)
REMARK    1  A    between atoms: C3*_2  and  O3*_22
REMARK    2  A    between atoms: C4*_4  and  C5*_20
REMARK    3  A    between atoms: C1*_7  and  N_9
REMARK    4  A    between atoms: C_11  and  C_17
REMARK    5  A    between atoms: C5*_20  and  O5*_21
REMARK                            x       y       z     vdW  Elec       q    Type
REMARK                         _______ _______ _______ _____ _____    ______ ____
ROOT
ATOM      1  N   UNL     1       9.760  -0.854  24.294  0.00  0.00    -0.258 N 
ATOM      2  C   UNL     1       9.775  -2.231  24.141  0.00  0.00    +0.310 C 
ATOM      3  O   UNL     1      10.404  -2.818  23.266  0.00  0.00    -0.252 OA
ATOM      4  N   UNL     1       8.993  -2.923  25.032  0.00  0.00    -0.239 N 
ATOM      5  H   UNL     1       8.989  -3.928  24.929  0.00  0.00    +0.159 HD
ATOM      6  C   UNL     1       8.047  -2.398  25.883  0.00  0.00    +0.229 C 
ATOM      7  O   UNL     1       7.294  -3.136  26.513  0.00  0.00    -0.275 OA
ATOM      8  C   UNL     1       7.955  -0.876  25.898  0.00  0.00    +0.116 C 
ATOM      9  C   UNL     1       9.349  -0.343  25.593  0.00  0.00    +0.128 C 
ENDROOT
BRANCH   1  11
ATOM     10  C2* UNL     1       9.809   0.209  22.050  0.00  0.00    +0.086 C 
ATOM     11  C1* UNL     1      10.542  -0.046  23.367  0.00  0.00    +0.212 C 
ATOM     12  O4* UNL     1      10.803   1.248  23.948  0.00  0.00    -0.350 OA
ATOM     13  C4* UNL     1      10.198   2.257  23.112  0.00  0.00    +0.174 C 
ATOM     14  C3* UNL     1       9.131   1.534  22.303  0.00  0.00    +0.150 C 
BRANCH  14  15
ATOM     15  O3* UNL     1       8.784   2.205  21.104  0.00  0.00    -0.389 OA
ATOM     16  H3* UNL     1       8.092   1.699  20.644  0.00  0.00    +0.210 HD
ENDBRANCH  14  15
BRANCH  13  17
ATOM     17  C5* UNL     1       9.659   3.414  23.950  0.00  0.00    +0.190 C 
BRANCH  17  18
ATOM     18  O5* UNL     1       9.152   4.467  23.133  0.00  0.00    -0.392 OA
ATOM     19  H5* UNL     1       9.545   5.285  23.479  0.00  0.00    +0.210 HD
ENDBRANCH  17  18
ENDBRANCH  13  17
ENDBRANCH   1  11
BRANCH   8  20
ATOM     20  C   UNL     1       7.439  -0.342  27.207  0.00  0.00    -0.005 C 
ATOM     21  C   UNL     1       7.133   0.947  27.400  0.00  0.00    +0.047 C 
ATOM     22 BR   UNL     1       6.514   1.633  29.007  0.00  0.00    -0.059 Br
ENDBRANCH   8  20
TORSDOF 5
ENDMDL
MODEL 5
REMARK VINA RESULT:      -5.9      3.694      6.312
REMARK  Name = 
REMARK  5 active torsions:
REMARK  status: ('A' for Active; 'I' for Inactive)
REMARK    1  A    between atoms: C3*_2  and  O3*_22
REMARK    2  A    between atoms: C4*_4  and  C5*_20
REMARK    3  A    between atoms: C1*_7  and  N_9
REMARK    4  A    between atoms: C_11  and  C_17
REMARK    5  A    between atoms: C5*_20  and  O5*_21
REMARK                            x       y       z     vdW  Elec       q    Type
REMARK                         _______ _______ _______ _____ _____    ______ ____
ROOT
ATOM      1  N   UNL     1       6.500  -4.852  23.020  0.00  0.00    -0.258 N 
ATOM      2  C   UNL     1       5.784  -5.766  22.264  0.00  0.00    +0.310 C 
ATOM      3  O   UNL     1       5.693  -5.724  21.040  0.00  0.00    -0.252 OA
ATOM      4  N   UNL     1       5.133  -6.734  22.985  0.00  0.00    -0.239 N 
ATOM      5  H   UNL     1       4.602  -7.405  22.448  0.00  0.00    +0.159 HD
ATOM      6  C   UNL     1       4.931  -6.755  24.347  0.00  0.00    +0.229 C 
ATOM      7  O   UNL     1       4.189  -7.591  24.857  0.00  0.00    -0.275 OA
ATOM      8  C   UNL     1       5.607  -5.631  25.124  0.00  0.00    +0.116 C 
ATOM      9  C   UNL     1       6.876  -5.265  24.364  0.00  0.00    +0.128 C 
ENDROOT
BRANCH   1  11
ATOM     10  C2* UNL     1       6.337  -2.517  22.189  0.00  0.00    +0.086 C 
ATOM     11  C1* UNL     1       7.195  -3.774  22.328  0.00  0.00    +0.212 C 
ATOM     12  O4* UNL     1       8.366  -3.390  23.076  0.00  0.00    -0.350 OA
ATOM     13  C4* UNL     1       8.225  -2.009  23.471  0.00  0.00    +0.174 C 
ATOM     14  C3* UNL     1       6.735  -1.712  23.402  0.00  0.00    +0.150 C 
BRANCH  14  15
ATOM     15  O3* UNL     1       6.443  -0.333  23.258  0.00  0.00    -0.389 OA
ATOM     16  H3* UNL     1       5.908  -0.201  22.457  0.00  0.00    +0.210 HD
ENDBRANCH  14  15
BRANCH  13  17
ATOM     17  C5* UNL     1       8.841  -1.766  24.848  0.00  0.00    +0.190 C 
BRANCH  17  18
ATOM     18  O5* UNL     1       8.787  -0.389  25.215  0.00  0.00    -0.392 OA
ATOM     19  H5* UNL     1       8.717  -0.376  26.184  0.00  0.00    +0.210 HD
ENDBRANCH  17  18
ENDBRANCH  13  17
ENDBRANCH   1  11
BRANCH   8  20
ATOM     20  C   UNL     1       5.915  -6.017  26.547  0.00  0.00    -0.005 C 
ATOM     21  C   UNL     1       5.241  -5.530  27.596  0.00  0.00    +0.047 C 
ATOM     22 BR   UNL     1       5.611  -5.974  29.358  0.00  0.00    -0.059 Br
ENDBRANCH   8  20
TORSDOF 5
ENDMDL
MODEL 6
REMARK VINA RESULT:      -5.9      3.170      5.678
REMARK  Name = 
REMARK  5 active torsions:
REMARK  status: ('A' for Active; 'I' for Inactive)
REMARK    1  A    between atoms: C3*_2  and  O3*_22
REMARK    2  A    between atoms: C4*_4  and  C5*_20
REMARK    3  A    between atoms: C1*_7  and  N_9
REMARK    4  A    between atoms: C_11  and  C_17
REMARK    5  A    between atoms: C5*_20  and  O5*_21
REMARK                            x       y       z     vdW  Elec       q    Type
REMARK                         _______ _______ _______ _____ _____    ______ ____
ROOT
ATOM      1  N   UNL     1       8.983  -1.661  24.865  0.00  0.00    -0.258 N 
ATOM      2  C   UNL     1       8.619  -1.804  26.193  0.00  0.00    +0.310 C 
ATOM      3  O   UNL     1       8.821  -0.955  27.057  0.00  0.00    -0.252 OA
ATOM      4  N   UNL     1       8.027  -3.002  26.509  0.00  0.00    -0.239 N 
ATOM      5  H   UNL     1       7.761  -3.122  27.475  0.00  0.00    +0.159 HD
ATOM      6  C   UNL     1       7.973  -4.129  25.720  0.00  0.00    +0.229 C 
ATOM      7  O   UNL     1       7.562  -5.193  26.178  0.00  0.00    -0.275 OA
ATOM      8  C   UNL     1       8.537  -3.969  24.313  0.00  0.00    +0.116 C 
ATOM      9  C   UNL     1       8.308  -2.520  23.904  0.00  0.00    +0.128 C 
ENDROOT
BRANCH   1  11
ATOM     10  C2* UNL     1      10.006  -0.421  22.972  0.00  0.00    +0.086 C 
ATOM     11  C1* UNL     1       9.644  -0.428  24.457  0.00  0.00    +0.212 C 
ATOM     12  O4* UNL     1       8.761   0.692  24.668  0.00  0.00    -0.350 OA
ATOM     13  C4* UNL     1       8.498   1.316  23.393  0.00  0.00    +0.174 C 
ATOM     14  C3* UNL     1       8.813   0.259  22.346  0.00  0.00    +0.150 C 
BRANCH  14  15
ATOM     15  O3* UNL     1       9.104   0.801  21.069  0.00  0.00    -0.389 OA
ATOM     16  H3* UNL     1      10.064   0.929  20.988  0.00  0.00    +0.210 HD
ENDBRANCH  14  15
BRANCH  13  17
ATOM     17  C5* UNL     1       7.068   1.847  23.326  0.00  0.00    +0.190 C 
BRANCH  17  18
ATOM     18  O5* UNL     1       6.280   1.123  22.383  0.00  0.00    -0.392 OA
ATOM     19  H5* UNL     1       5.745   1.788  21.918  0.00  0.00    +0.210 HD
ENDBRANCH  17  18
ENDBRANCH  13  17
ENDBRANCH   1  11
BRANCH   8  20
ATOM     20  C   UNL     1       7.910  -4.921  23.329  0.00  0.00    -0.005 C 
ATOM     21  C   UNL     1       7.065  -4.526  22.369  0.00  0.00    +0.047 C 
ATOM     22 BR   UNL     1       6.265  -5.680  21.157  0.00  0.00    -0.059 Br
ENDBRANCH   8  20
TORSDOF 5
ENDMDL
MODEL 7
REMARK VINA RESULT:      -5.8      3.377      5.088
REMARK  Name = 
REMARK  5 active torsions:
REMARK  status: ('A' for Active; 'I' for Inactive)
REMARK    1  A    between atoms: C3*_2  and  O3*_22
REMARK    2  A    between atoms: C4*_4  and  C5*_20
REMARK    3  A    between atoms: C1*_7  and  N_9
REMARK    4  A    between atoms: C_11  and  C_17
REMARK    5  A    between atoms: C5*_20  and  O5*_21
REMARK                            x       y       z     vdW  Elec       q    Type
REMARK                         _______ _______ _______ _____ _____    ______ ____
ROOT
ATOM      1  N   UNL     1       7.958  -4.300  25.017  0.00  0.00    -0.258 N 
ATOM      2  C   UNL     1       8.758  -5.317  25.511  0.00  0.00    +0.310 C 
ATOM      3  O   UNL     1       9.704  -5.805  24.899  0.00  0.00    -0.252 OA
ATOM      4  N   UNL     1       8.402  -5.787  26.750  0.00  0.00    -0.239 N 
ATOM      5  H   UNL     1       8.974  -6.533  27.121  0.00  0.00    +0.159 HD
ATOM      6  C   UNL     1       7.234  -5.525  27.429  0.00  0.00    +0.229 C 
ATOM      7  O   UNL     1       6.958  -6.138  28.458  0.00  0.00    -0.275 OA
ATOM      8  C   UNL     1       6.304  -4.516  26.764  0.00  0.00    +0.116 C 
ATOM      9  C   UNL     1       7.185  -3.543  25.990  0.00  0.00    +0.128 C 
ENDROOT
BRANCH   1  11
ATOM     10  C2* UNL     1       7.236  -4.213  22.642  0.00  0.00    +0.086 C 
ATOM     11  C1* UNL     1       8.253  -3.767  23.693  0.00  0.00    +0.212 C 
ATOM     12  O4* UNL     1       8.203  -2.326  23.725  0.00  0.00    -0.350 OA
ATOM     13  C4* UNL     1       7.163  -1.883  22.828  0.00  0.00    +0.174 C 
ATOM     14  C3* UNL     1       6.241  -3.078  22.646  0.00  0.00    +0.150 C 
BRANCH  14  15
ATOM     15  O3* UNL     1       5.476  -3.022  21.454  0.00  0.00    -0.389 OA
ATOM     16  H3* UNL     1       4.558  -3.273  21.651  0.00  0.00    +0.210 HD
ENDBRANCH  14  15
BRANCH  13  17
ATOM     17  C5* UNL     1       6.463  -0.639  23.372  0.00  0.00    +0.190 C 
BRANCH  17  18
ATOM     18  O5* UNL     1       5.457  -0.974  24.325  0.00  0.00    -0.392 OA
ATOM     19  H5* UNL     1       5.661  -0.453  25.120  0.00  0.00    +0.210 HD
ENDBRANCH  17  18
ENDBRANCH  13  17
ENDBRANCH   1  11
BRANCH   8  20
ATOM     20  C   UNL     1       5.431  -3.795  27.756  0.00  0.00    -0.005 C 
ATOM     21  C   UNL     1       4.440  -2.971  27.392  0.00  0.00    +0.047 C 
ATOM     22 BR   UNL     1       3.364  -2.057  28.593  0.00  0.00    -0.059 Br
ENDBRANCH   8  20
TORSDOF 5
ENDMDL
MODEL 8
REMARK VINA RESULT:      -5.7      2.704      5.881
REMARK  Name = 
REMARK  5 active torsions:
REMARK  status: ('A' for Active; 'I' for Inactive)
REMARK    1  A    between atoms: C3*_2  and  O3*_22
REMARK    2  A    between atoms: C4*_4  and  C5*_20
REMARK    3  A    between atoms: C1*_7  and  N_9
REMARK    4  A    between atoms: C_11  and  C_17
REMARK    5  A    between atoms: C5*_20  and  O5*_21
REMARK                            x       y       z     vdW  Elec       q    Type
REMARK                         _______ _______ _______ _____ _____    ______ ____
ROOT
ATOM      1  N   UNL     1       9.040  -1.305  24.314  0.00  0.00    -0.258 N 
ATOM      2  C   UNL     1       9.223  -2.674  24.200  0.00  0.00    +0.310 C 
ATOM      3  O   UNL     1      10.287  -3.202  23.891  0.00  0.00    -0.252 OA
ATOM      4  N   UNL     1       8.101  -3.431  24.427  0.00  0.00    -0.239 N 
ATOM      5  H   UNL     1       8.217  -4.431  24.342  0.00  0.00    +0.159 HD
ATOM      6  C   UNL     1       6.804  -2.978  24.523  0.00  0.00    +0.229 C 
ATOM      7  O   UNL     1       5.866  -3.771  24.561  0.00  0.00    -0.275 OA
ATOM      8  C   UNL     1       6.636  -1.463  24.480  0.00  0.00    +0.116 C 
ATOM      9  C   UNL     1       7.894  -0.859  25.091  0.00  0.00    +0.128 C 
ENDROOT
BRANCH   1  11
ATOM     10  C2* UNL     1      10.263   0.009  22.597  0.00  0.00    +0.086 C 
ATOM     11  C1* UNL     1      10.179  -0.432  24.058  0.00  0.00    +0.212 C 
ATOM     12  O4* UNL     1      10.055   0.773  24.842  0.00  0.00    -0.350 OA
ATOM     13  C4* UNL     1       9.970   1.898  23.943  0.00  0.00    +0.174 C 
ATOM     14  C3* UNL     1       9.523   1.324  22.607  0.00  0.00    +0.150 C 
BRANCH  14  15
ATOM     15  O3* UNL     1       9.859   2.146  21.502  0.00  0.00    -0.389 OA
ATOM     16  H3* UNL     1       9.423   1.802  20.705  0.00  0.00    +0.210 HD
ENDBRANCH  14  15
BRANCH  13  17
ATOM     17  C5* UNL     1       9.037   2.974  24.497  0.00  0.00    +0.190 C 
BRANCH  17  18
ATOM     18  O5* UNL     1       8.719   3.955  23.512  0.00  0.00    -0.392 OA
ATOM     19  H5* UNL     1       9.522   4.490  23.402  0.00  0.00    +0.210 HD
ENDBRANCH  17  18
ENDBRANCH  13  17
ENDBRANCH   1  11
BRANCH   8  20
ATOM     20  C   UNL     1       5.400  -0.999  25.201  0.00  0.00    -0.005 C 
ATOM     21  C   UNL     1       5.350  -0.829  26.529  0.00  0.00    +0.047 C 
ATOM     22 BR   UNL     1       3.835  -0.277  27.444  0.00  0.00    -0.059 Br
ENDBRANCH   8  20
TORSDOF 5
ENDMDL
MODEL 9
REMARK VINA RESULT:      -5.7      3.253      5.768
REMARK  Name = 
REMARK  5 active torsions:
REMARK  status: ('A' for Active; 'I' for Inactive)
REMARK    1  A    between atoms: C3*_2  and  O3*_22
REMARK    2  A    between atoms: C4*_4  and  C5*_20
REMARK    3  A    between atoms: C1*_7  and  N_9
REMARK    4  A    between atoms: C_11  and  C_17
REMARK    5  A    between atoms: C5*_20  and  O5*_21
REMARK                            x       y       z     vdW  Elec       q    Type
REMARK                         _______ _______ _______ _____ _____    ______ ____
ROOT
ATOM      1  N   UNL     1       7.518  -1.515  25.094  0.00  0.00    -0.258 N 
ATOM      2  C   UNL     1       7.046  -1.788  26.368  0.00  0.00    +0.310 C 
ATOM      3  O   UNL     1       6.936  -0.946  27.254  0.00  0.00    -0.252 OA
ATOM      4  N   UNL     1       6.728  -3.102  26.601  0.00  0.00    -0.239 N 
ATOM      5  H   UNL     1       6.387  -3.317  27.527  0.00  0.00    +0.159 HD
ATOM      6  C   UNL     1       7.039  -4.182  25.805  0.00  0.00    +0.229 C 
ATOM      7  O   UNL     1       6.846  -5.328  26.202  0.00  0.00    -0.275 OA
ATOM      8  C   UNL     1       7.709  -3.842  24.478  0.00  0.00    +0.116 C 
ATOM      9  C   UNL     1       7.187  -2.476  24.053  0.00  0.00    +0.128 C 
ENDROOT
BRANCH   1  11
ATOM     10  C2* UNL     1       9.308   0.196  25.280  0.00  0.00    +0.086 C 
ATOM     11  C1* UNL     1       7.906  -0.146  24.778  0.00  0.00    +0.212 C 
ATOM     12  O4* UNL     1       7.927   0.036  23.347  0.00  0.00    -0.350 OA
ATOM     13  C4* UNL     1       9.271   0.379  22.948  0.00  0.00    +0.174 C 
ATOM     14  C3* UNL     1      10.170  -0.103  24.077  0.00  0.00    +0.150 C 
BRANCH  14  15
ATOM     15  O3* UNL     1      11.419   0.565  24.124  0.00  0.00    -0.389 OA
ATOM     16  H3* UNL     1      12.130  -0.094  24.196  0.00  0.00    +0.210 HD
ENDBRANCH  14  15
BRANCH  13  17
ATOM     17  C5* UNL     1       9.610  -0.224  21.587  0.00  0.00    +0.190 C 
BRANCH  17  18
ATOM     18  O5* UNL     1      10.335  -1.446  21.717  0.00  0.00    -0.392 OA
ATOM     19  H5* UNL     1       9.670  -2.153  21.689  0.00  0.00    +0.210 HD
ENDBRANCH  17  18
ENDBRANCH  13  17
ENDBRANCH   1  11
BRANCH   8  20
ATOM     20  C   UNL     1       7.450  -4.881  23.419  0.00  0.00    -0.005 C 
ATOM     21  C   UNL     1       6.661  -4.662  22.360  0.00  0.00    +0.047 C 
ATOM     22 BR   UNL     1       6.310  -5.929  21.053  0.00  0.00    -0.059 Br
ENDBRANCH   8  20
TORSDOF 5
ENDMDL
