MODEL 1
REMARK VINA RESULT:      -6.2      0.000      0.000
REMARK  Name = 
REMARK  8 active torsions:
REMARK  status: ('A' for Active; 'I' for Inactive)
REMARK    1  A    between atoms: C_1  and  N_2
REMARK    2  A    between atoms: N_2  and  C_3
REMARK    3  A    between atoms: N_2  and  C_4
REMARK    4  A    between atoms: C_4  and  C_5
REMARK    5  A    between atoms: C_5  and  O_6
REMARK    6  A    between atoms: O_6  and  C_7
REMARK    7  A    between atoms: C_7  and  C_8
REMARK    8  A    between atoms: N_10  and  C_11
REMARK                            x       y       z     vdW  Elec       q    Type
REMARK                         _______ _______ _______ _____ _____    ______ ____
ROOT
ATOM      1  C   UNL     1       9.672  -2.633  23.969  0.00  0.00    +0.239 C 
ATOM      2  N   UNL     1       8.909  -1.570  24.415  0.00  0.00    -0.308 N 
ATOM      3  H   UNL     1       8.131  -1.814  25.015  0.00  0.00    +0.149 HD
ATOM      4  O   UNL     1      10.508  -2.567  23.070  0.00  0.00    -0.273 OA
ENDROOT
BRANCH   2   5
ATOM      5  C   UNL     1       8.966  -0.227  23.838  0.00  0.00    +0.035 C 
ATOM      6  C   UNL     1       7.831   0.642  24.450  0.00  0.00    +0.029 C 
ATOM      7  C   UNL     1       7.871   2.073  23.883  0.00  0.00    -0.008 C 
ATOM      8  C   UNL     1       7.692   2.021  22.357  0.00  0.00    +0.007 C 
ATOM      9  C   UNL     1       8.807   1.172  21.726  0.00  0.00    -0.008 C 
ATOM     10  C   UNL     1      10.169   1.806  22.058  0.00  0.00    +0.007 C 
ATOM     11  C   UNL     1      10.361   1.883  23.583  0.00  0.00    -0.008 C 
ATOM     12  C   UNL     1       9.230   2.712  24.209  0.00  0.00    +0.007 C 
ATOM     13  C   UNL     1      10.317   0.462  24.163  0.00  0.00    +0.029 C 
ATOM     14  C   UNL     1       8.754  -0.252  22.305  0.00  0.00    +0.029 C 
ENDBRANCH   2   5
BRANCH   1  15
ATOM     15  C   UNL     1       9.440  -3.920  24.747  0.00  0.00    +0.255 C 
BRANCH  15  16
ATOM     16  O   UNL     1       8.678  -4.849  23.983  0.00  0.00    -0.369 OA
BRANCH  16  17
ATOM     17  C   UNL     1       7.405  -5.083  24.595  0.00  0.00    +0.175 C 
BRANCH  17  18
ATOM     18  C   UNL     1       6.324  -5.140  23.508  0.00  0.00    +0.112 C 
BRANCH  18  20
ATOM     19  C   UNL     1       6.350  -5.649  21.159  0.00  0.00    +0.104 C 
ATOM     20  N   UNL     1       6.772  -4.683  22.179  0.00  0.00    -0.306 NA
ATOM     21  C   UNL     1       6.252  -3.356  21.844  0.00  0.00    +0.104 C 
ENDBRANCH  18  20
ENDBRANCH  17  18
ENDBRANCH  16  17
ENDBRANCH  15  16
ENDBRANCH   1  15
TORSDOF 6
ENDMDL
MODEL 2
REMARK VINA RESULT:      -6.1      0.147      1.645
REMARK  Name = 
REMARK  8 active torsions:
REMARK  status: ('A' for Active; 'I' for Inactive)
REMARK    1  A    between atoms: C_1  and  N_2
REMARK    2  A    between atoms: N_2  and  C_3
REMARK    3  A    between atoms: N_2  and  C_4
REMARK    4  A    between atoms: C_4  and  C_5
REMARK    5  A    between atoms: C_5  and  O_6
REMARK    6  A    between atoms: O_6  and  C_7
REMARK    7  A    between atoms: C_7  and  C_8
REMARK    8  A    between atoms: N_10  and  C_11
REMARK                            x       y       z     vdW  Elec       q    Type
REMARK                         _______ _______ _______ _____ _____    ______ ____
ROOT
ATOM      1  C   UNL     1       9.650  -2.645  23.927  0.00  0.00    +0.239 C 
ATOM      2  N   UNL     1       8.822  -1.617  24.340  0.00  0.00    -0.308 N 
ATOM      3  H   UNL     1       8.030  -1.897  24.905  0.00  0.00    +0.149 HD
ATOM      4  O   UNL     1      10.520  -2.539  23.066  0.00  0.00    -0.273 OA
ENDROOT
BRANCH   2   5
ATOM      5  C   UNL     1       8.846  -0.271  23.769  0.00  0.00    +0.035 C 
ATOM      6  C   UNL     1      10.162   0.441  24.191  0.00  0.00    +0.029 C 
ATOM      7  C   UNL     1      10.236   1.857  23.590  0.00  0.00    -0.008 C 
ATOM      8  C   UNL     1       9.039   2.684  24.086  0.00  0.00    +0.007 C 
ATOM      9  C   UNL     1       7.724   2.004  23.675  0.00  0.00    -0.008 C 
ATOM     10  C   UNL     1       7.671   1.901  22.141  0.00  0.00    +0.007 C 
ATOM     11  C   UNL     1       8.871   1.090  21.622  0.00  0.00    -0.008 C 
ATOM     12  C   UNL     1      10.181   1.763  22.058  0.00  0.00    +0.007 C 
ATOM     13  C   UNL     1       8.814  -0.323  22.219  0.00  0.00    +0.029 C 
ATOM     14  C   UNL     1       7.668   0.591  24.282  0.00  0.00    +0.029 C 
ENDBRANCH   2   5
BRANCH   1  15
ATOM     15  C   UNL     1       9.439  -3.944  24.692  0.00  0.00    +0.255 C 
BRANCH  15  16
ATOM     16  O   UNL     1       8.653  -4.860  23.936  0.00  0.00    -0.369 OA
BRANCH  16  17
ATOM     17  C   UNL     1       7.379  -5.063  24.556  0.00  0.00    +0.175 C 
BRANCH  17  18
ATOM     18  C   UNL     1       6.306  -5.209  23.469  0.00  0.00    +0.112 C 
BRANCH  18  20
ATOM     19  C   UNL     1       6.323  -5.605  21.099  0.00  0.00    +0.104 C 
ATOM     20  N   UNL     1       6.689  -4.658  22.156  0.00  0.00    -0.306 NA
ATOM     21  C   UNL     1       6.061  -3.362  21.894  0.00  0.00    +0.104 C 
ENDBRANCH  18  20
ENDBRANCH  17  18
ENDBRANCH  16  17
ENDBRANCH  15  16
ENDBRANCH   1  15
TORSDOF 6
ENDMDL
MODEL 3
REMARK VINA RESULT:      -6.0      0.962      2.030
REMARK  Name = 
REMARK  8 active torsions:
REMARK  status: ('A' for Active; 'I' for Inactive)
REMARK    1  A    between atoms: C_1  and  N_2
REMARK    2  A    between atoms: N_2  and  C_3
REMARK    3  A    between atoms: N_2  and  C_4
REMARK    4  A    between atoms: C_4  and  C_5
REMARK    5  A    between atoms: C_5  and  O_6
REMARK    6  A    between atoms: O_6  and  C_7
REMARK    7  A    between atoms: C_7  and  C_8
REMARK    8  A    between atoms: N_10  and  C_11
REMARK                            x       y       z     vdW  Elec       q    Type
REMARK                         _______ _______ _______ _____ _____    ______ ____
ROOT
ATOM      1  C   UNL     1       9.197  -2.746  24.868  0.00  0.00    +0.239 C 
ATOM      2  N   UNL     1       9.511  -2.147  23.663  0.00  0.00    -0.308 N 
ATOM      3  H   UNL     1      10.097  -2.695  23.044  0.00  0.00    +0.149 HD
ATOM      4  O   UNL     1       8.694  -2.166  25.828  0.00  0.00    -0.273 OA
ENDROOT
BRANCH   2   5
ATOM      5  C   UNL     1       9.325  -0.723  23.387  0.00  0.00    +0.035 C 
ATOM      6  C   UNL     1       9.498  -0.469  21.863  0.00  0.00    +0.029 C 
ATOM      7  C   UNL     1       9.287   1.019  21.527  0.00  0.00    -0.008 C 
ATOM      8  C   UNL     1      10.316   1.864  22.295  0.00  0.00    +0.007 C 
ATOM      9  C   UNL     1      10.161   1.636  23.806  0.00  0.00    -0.008 C 
ATOM     10  C   UNL     1       8.742   2.051  24.233  0.00  0.00    +0.007 C 
ATOM     11  C   UNL     1       7.695   1.227  23.463  0.00  0.00    -0.008 C 
ATOM     12  C   UNL     1       7.872   1.441  21.953  0.00  0.00    +0.007 C 
ATOM     13  C   UNL     1       7.898  -0.260  23.784  0.00  0.00    +0.029 C 
ATOM     14  C   UNL     1      10.373   0.146  24.123  0.00  0.00    +0.029 C 
ENDBRANCH   2   5
BRANCH   1  15
ATOM     15  C   UNL     1       9.469  -4.243  24.896  0.00  0.00    +0.255 C 
BRANCH  15  16
ATOM     16  O   UNL     1       8.615  -4.934  23.990  0.00  0.00    -0.369 OA
BRANCH  16  17
ATOM     17  C   UNL     1       7.348  -5.209  24.600  0.00  0.00    +0.175 C 
BRANCH  17  18
ATOM     18  C   UNL     1       6.231  -4.953  23.579  0.00  0.00    +0.112 C 
BRANCH  18  20
ATOM     19  C   UNL     1       6.326  -5.502  21.241  0.00  0.00    +0.104 C 
ATOM     20  N   UNL     1       6.705  -4.512  22.254  0.00  0.00    -0.306 NA
ATOM     21  C   UNL     1       6.171  -3.200  21.883  0.00  0.00    +0.104 C 
ENDBRANCH  18  20
ENDBRANCH  17  18
ENDBRANCH  16  17
ENDBRANCH  15  16
ENDBRANCH   1  15
TORSDOF 6
ENDMDL
MODEL 4
REMARK VINA RESULT:      -5.9      1.778      2.953
REMARK  Name = 
REMARK  8 active torsions:
REMARK  status: ('A' for Active; 'I' for Inactive)
REMARK    1  A    between atoms: C_1  and  N_2
REMARK    2  A    between atoms: N_2  and  C_3
REMARK    3  A    between atoms: N_2  and  C_4
REMARK    4  A    between atoms: C_4  and  C_5
REMARK    5  A    between atoms: C_5  and  O_6
REMARK    6  A    between atoms: O_6  and  C_7
REMARK    7  A    between atoms: C_7  and  C_8
REMARK    8  A    between atoms: N_10  and  C_11
REMARK                            x       y       z     vdW  Elec       q    Type
REMARK                         _______ _______ _______ _____ _____    ______ ____
ROOT
ATOM      1  C   UNL     1       9.235  -2.631  23.708  0.00  0.00    +0.239 C 
ATOM      2  N   UNL     1       8.287  -1.633  23.829  0.00  0.00    -0.308 N 
ATOM      3  H   UNL     1       7.333  -1.951  23.949  0.00  0.00    +0.149 HD
ATOM      4  O   UNL     1      10.394  -2.455  23.339  0.00  0.00    -0.273 OA
ENDROOT
BRANCH   2   5
ATOM      5  C   UNL     1       8.530  -0.232  23.489  0.00  0.00    +0.035 C 
ATOM      6  C   UNL     1       9.568   0.364  24.481  0.00  0.00    +0.029 C 
ATOM      7  C   UNL     1       9.868   1.836  24.142  0.00  0.00    -0.008 C 
ATOM      8  C   UNL     1       8.569   2.653  24.227  0.00  0.00    +0.007 C 
ATOM      9  C   UNL     1       7.528   2.088  23.248  0.00  0.00    -0.008 C 
ATOM     10  C   UNL     1       8.088   2.169  21.817  0.00  0.00    +0.007 C 
ATOM     11  C   UNL     1       9.399   1.370  21.716  0.00  0.00    -0.008 C 
ATOM     12  C   UNL     1      10.426   1.925  22.713  0.00  0.00    +0.007 C 
ATOM     13  C   UNL     1       9.115  -0.099  22.058  0.00  0.00    +0.029 C 
ATOM     14  C   UNL     1       7.241   0.618  23.601  0.00  0.00    +0.029 C 
ENDBRANCH   2   5
BRANCH   1  15
ATOM     15  C   UNL     1       8.738  -4.002  24.143  0.00  0.00    +0.255 C 
BRANCH  15  16
ATOM     16  O   UNL     1       9.747  -4.708  24.858  0.00  0.00    -0.369 OA
BRANCH  16  17
ATOM     17  C   UNL     1       9.377  -4.865  26.232  0.00  0.00    +0.175 C 
BRANCH  17  18
ATOM     18  C   UNL     1       7.907  -5.300  26.313  0.00  0.00    +0.112 C 
BRANCH  18  20
ATOM     19  C   UNL     1       6.293  -3.667  27.020  0.00  0.00    +0.104 C 
ATOM     20  N   UNL     1       7.172  -4.752  27.467  0.00  0.00    -0.306 NA
ATOM     21  C   UNL     1       6.381  -5.772  28.158  0.00  0.00    +0.104 C 
ENDBRANCH  18  20
ENDBRANCH  17  18
ENDBRANCH  16  17
ENDBRANCH  15  16
ENDBRANCH   1  15
TORSDOF 6
ENDMDL
MODEL 5
REMARK VINA RESULT:      -5.8      1.812      3.105
REMARK  Name = 
REMARK  8 active torsions:
REMARK  status: ('A' for Active; 'I' for Inactive)
REMARK    1  A    between atoms: C_1  and  N_2
REMARK    2  A    between atoms: N_2  and  C_3
REMARK    3  A    between atoms: N_2  and  C_4
REMARK    4  A    between atoms: C_4  and  C_5
REMARK    5  A    between atoms: C_5  and  O_6
REMARK    6  A    between atoms: O_6  and  C_7
REMARK    7  A    between atoms: C_7  and  C_8
REMARK    8  A    between atoms: N_10  and  C_11
REMARK                            x       y       z     vdW  Elec       q    Type
REMARK                         _______ _______ _______ _____ _____    ______ ____
ROOT
ATOM      1  C   UNL     1       8.225  -2.634  23.308  0.00  0.00    +0.239 C 
ATOM      2  N   UNL     1       9.185  -1.763  23.787  0.00  0.00    -0.308 N 
ATOM      3  H   UNL     1       9.764  -2.123  24.536  0.00  0.00    +0.149 HD
ATOM      4  O   UNL     1       7.295  -2.315  22.569  0.00  0.00    -0.273 OA
ENDROOT
BRANCH   2   5
ATOM      5  C   UNL     1       9.193  -0.327  23.511  0.00  0.00    +0.035 C 
ATOM      6  C   UNL     1       9.493  -0.096  22.004  0.00  0.00    +0.029 C 
ATOM      7  C   UNL     1       9.489   1.407  21.667  0.00  0.00    -0.008 C 
ATOM      8  C   UNL     1      10.563   2.119  22.506  0.00  0.00    +0.007 C 
ATOM      9  C   UNL     1      10.284   1.912  24.003  0.00  0.00    -0.008 C 
ATOM     10  C   UNL     1       8.902   2.497  24.341  0.00  0.00    +0.007 C 
ATOM     11  C   UNL     1       7.814   1.809  23.499  0.00  0.00    -0.008 C 
ATOM     12  C   UNL     1       8.112   1.999  22.005  0.00  0.00    +0.007 C 
ATOM     13  C   UNL     1       7.811   0.308  23.820  0.00  0.00    +0.029 C 
ATOM     14  C   UNL     1      10.290   0.406  24.320  0.00  0.00    +0.029 C 
ENDBRANCH   2   5
BRANCH   1  15
ATOM     15  C   UNL     1       8.450  -4.081  23.723  0.00  0.00    +0.255 C 
BRANCH  15  16
ATOM     16  O   UNL     1       9.564  -4.192  24.603  0.00  0.00    -0.369 OA
BRANCH  16  17
ATOM     17  C   UNL     1       9.312  -5.174  25.615  0.00  0.00    +0.175 C 
BRANCH  17  18
ATOM     18  C   UNL     1       8.101  -4.739  26.451  0.00  0.00    +0.112 C 
BRANCH  18  20
ATOM     19  C   UNL     1       6.643  -5.713  28.093  0.00  0.00    +0.104 C 
ATOM     20  N   UNL     1       7.124  -5.812  26.712  0.00  0.00    -0.306 NA
ATOM     21  C   UNL     1       5.987  -5.765  25.791  0.00  0.00    +0.104 C 
ENDBRANCH  18  20
ENDBRANCH  17  18
ENDBRANCH  16  17
ENDBRANCH  15  16
ENDBRANCH   1  15
TORSDOF 6
ENDMDL
MODEL 6
REMARK VINA RESULT:      -5.8      1.881      2.425
REMARK  Name = 
REMARK  8 active torsions:
REMARK  status: ('A' for Active; 'I' for Inactive)
REMARK    1  A    between atoms: C_1  and  N_2
REMARK    2  A    between atoms: N_2  and  C_3
REMARK    3  A    between atoms: N_2  and  C_4
REMARK    4  A    between atoms: C_4  and  C_5
REMARK    5  A    between atoms: C_5  and  O_6
REMARK    6  A    between atoms: O_6  and  C_7
REMARK    7  A    between atoms: C_7  and  C_8
REMARK    8  A    between atoms: N_10  and  C_11
REMARK                            x       y       z     vdW  Elec       q    Type
REMARK                         _______ _______ _______ _____ _____    ______ ____
ROOT
ATOM      1  C   UNL     1       9.617  -2.691  24.014  0.00  0.00    +0.239 C 
ATOM      2  N   UNL     1       8.852  -1.622  24.441  0.00  0.00    -0.308 N 
ATOM      3  H   UNL     1       8.055  -1.860  25.020  0.00  0.00    +0.149 HD
ATOM      4  O   UNL     1      10.477  -2.630  23.137  0.00  0.00    -0.273 OA
ENDROOT
BRANCH   2   5
ATOM      5  C   UNL     1       8.936  -0.278  23.870  0.00  0.00    +0.035 C 
ATOM      6  C   UNL     1       7.812   0.608  24.476  0.00  0.00    +0.029 C 
ATOM      7  C   UNL     1       7.881   2.041  23.915  0.00  0.00    -0.008 C 
ATOM      8  C   UNL     1       7.714   1.997  22.387  0.00  0.00    +0.007 C 
ATOM      9  C   UNL     1       8.819   1.131  21.762  0.00  0.00    -0.008 C 
ATOM     10  C   UNL     1      10.189   1.740  22.108  0.00  0.00    +0.007 C 
ATOM     11  C   UNL     1      10.369   1.809  23.634  0.00  0.00    -0.008 C 
ATOM     12  C   UNL     1       9.248   2.655  24.254  0.00  0.00    +0.007 C 
ATOM     13  C   UNL     1      10.297   0.387  24.208  0.00  0.00    +0.029 C 
ATOM     14  C   UNL     1       8.737  -0.294  22.335  0.00  0.00    +0.029 C 
ENDBRANCH   2   5
BRANCH   1  15
ATOM     15  C   UNL     1       9.352  -3.978  24.781  0.00  0.00    +0.255 C 
BRANCH  15  16
ATOM     16  O   UNL     1       8.347  -3.785  25.771  0.00  0.00    -0.369 OA
BRANCH  16  17
ATOM     17  C   UNL     1       8.245  -4.934  26.619  0.00  0.00    +0.175 C 
BRANCH  17  18
ATOM     18  C   UNL     1       6.821  -5.020  27.184  0.00  0.00    +0.112 C 
BRANCH  18  20
ATOM     19  C   UNL     1       5.180  -6.622  27.904  0.00  0.00    +0.104 C 
ATOM     20  N   UNL     1       6.094  -6.250  26.819  0.00  0.00    -0.306 NA
ATOM     21  C   UNL     1       5.341  -6.101  25.572  0.00  0.00    +0.104 C 
ENDBRANCH  18  20
ENDBRANCH  17  18
ENDBRANCH  16  17
ENDBRANCH  15  16
ENDBRANCH   1  15
TORSDOF 6
ENDMDL
MODEL 7
REMARK VINA RESULT:      -5.5      1.874      2.668
REMARK  Name = 
REMARK  8 active torsions:
REMARK  status: ('A' for Active; 'I' for Inactive)
REMARK    1  A    between atoms: C_1  and  N_2
REMARK    2  A    between atoms: N_2  and  C_3
REMARK    3  A    between atoms: N_2  and  C_4
REMARK    4  A    between atoms: C_4  and  C_5
REMARK    5  A    between atoms: C_5  and  O_6
REMARK    6  A    between atoms: O_6  and  C_7
REMARK    7  A    between atoms: C_7  and  C_8
REMARK    8  A    between atoms: N_10  and  C_11
REMARK                            x       y       z     vdW  Elec       q    Type
REMARK                         _______ _______ _______ _____ _____    ______ ____
ROOT
ATOM      1  C   UNL     1       8.272  -3.058  23.389  0.00  0.00    +0.239 C 
ATOM      2  N   UNL     1       7.628  -1.862  23.137  0.00  0.00    -0.308 N 
ATOM      3  H   UNL     1       6.725  -1.941  22.685  0.00  0.00    +0.149 HD
ATOM      4  O   UNL     1       9.452  -3.162  23.721  0.00  0.00    -0.273 OA
ENDROOT
BRANCH   2   5
ATOM      5  C   UNL     1       8.283  -0.556  23.190  0.00  0.00    +0.035 C 
ATOM      6  C   UNL     1       7.212   0.562  23.041  0.00  0.00    +0.029 C 
ATOM      7  C   UNL     1       7.861   1.956  23.114  0.00  0.00    -0.008 C 
ATOM      8  C   UNL     1       8.891   2.097  21.981  0.00  0.00    +0.007 C 
ATOM      9  C   UNL     1       9.966   1.007  22.110  0.00  0.00    -0.008 C 
ATOM     10  C   UNL     1      10.677   1.160  23.466  0.00  0.00    +0.007 C 
ATOM     11  C   UNL     1       9.659   1.039  24.614  0.00  0.00    -0.008 C 
ATOM     12  C   UNL     1       8.575   2.116  24.465  0.00  0.00    +0.007 C 
ATOM     13  C   UNL     1       8.999  -0.346  24.550  0.00  0.00    +0.029 C 
ATOM     14  C   UNL     1       9.301  -0.378  22.037  0.00  0.00    +0.029 C 
ENDBRANCH   2   5
BRANCH   1  15
ATOM     15  C   UNL     1       7.364  -4.275  23.287  0.00  0.00    +0.255 C 
BRANCH  15  16
ATOM     16  O   UNL     1       6.047  -3.969  23.733  0.00  0.00    -0.369 OA
BRANCH  16  17
ATOM     17  C   UNL     1       5.900  -4.280  25.123  0.00  0.00    +0.175 C 
BRANCH  17  18
ATOM     18  C   UNL     1       6.566  -5.632  25.412  0.00  0.00    +0.112 C 
BRANCH  18  20
ATOM     19  C   UNL     1       8.429  -4.856  26.716  0.00  0.00    +0.104 C 
ATOM     20  N   UNL     1       7.239  -5.713  26.721  0.00  0.00    -0.306 NA
ATOM     21  C   UNL     1       6.358  -5.323  27.823  0.00  0.00    +0.104 C 
ENDBRANCH  18  20
ENDBRANCH  17  18
ENDBRANCH  16  17
ENDBRANCH  15  16
ENDBRANCH   1  15
TORSDOF 6
ENDMDL
MODEL 8
REMARK VINA RESULT:      -5.5      1.673      2.456
REMARK  Name = 
REMARK  8 active torsions:
REMARK  status: ('A' for Active; 'I' for Inactive)
REMARK    1  A    between atoms: C_1  and  N_2
REMARK    2  A    between atoms: N_2  and  C_3
REMARK    3  A    between atoms: N_2  and  C_4
REMARK    4  A    between atoms: C_4  and  C_5
REMARK    5  A    between atoms: C_5  and  O_6
REMARK    6  A    between atoms: O_6  and  C_7
REMARK    7  A    between atoms: C_7  and  C_8
REMARK    8  A    between atoms: N_10  and  C_11
REMARK                            x       y       z     vdW  Elec       q    Type
REMARK                         _______ _______ _______ _____ _____    ______ ____
ROOT
ATOM      1  C   UNL     1       8.850  -2.339  24.943  0.00  0.00    +0.239 C 
ATOM      2  N   UNL     1       9.329  -1.751  23.787  0.00  0.00    -0.308 N 
ATOM      3  H   UNL     1       9.995  -2.305  23.261  0.00  0.00    +0.149 HD
ATOM      4  O   UNL     1       8.219  -1.750  25.817  0.00  0.00    -0.273 OA
ENDROOT
BRANCH   2   5
ATOM      5  C   UNL     1       9.184  -0.330  23.474  0.00  0.00    +0.035 C 
ATOM      6  C   UNL     1       9.906   0.511  24.564  0.00  0.00    +0.029 C 
ATOM      7  C   UNL     1       9.795   2.016  24.258  0.00  0.00    -0.008 C 
ATOM      8  C   UNL     1       8.312   2.419  24.217  0.00  0.00    +0.007 C 
ATOM      9  C   UNL     1       7.577   1.605  23.141  0.00  0.00    -0.008 C 
ATOM     10  C   UNL     1       8.219   1.888  21.771  0.00  0.00    +0.007 C 
ATOM     11  C   UNL     1       9.709   1.507  21.797  0.00  0.00    -0.008 C 
ATOM     12  C   UNL     1      10.433   2.306  22.890  0.00  0.00    +0.007 C 
ATOM     13  C   UNL     1       9.835   0.009  22.107  0.00  0.00    +0.029 C 
ATOM     14  C   UNL     1       7.699   0.106  23.461  0.00  0.00    +0.029 C 
ENDBRANCH   2   5
BRANCH   1  15
ATOM     15  C   UNL     1       9.115  -3.835  25.022  0.00  0.00    +0.255 C 
BRANCH  15  16
ATOM     16  O   UNL     1       8.771  -4.481  23.800  0.00  0.00    -0.369 OA
BRANCH  16  17
ATOM     17  C   UNL     1       7.502  -5.134  23.913  0.00  0.00    +0.175 C 
BRANCH  17  18
ATOM     18  C   UNL     1       7.137  -5.276  25.397  0.00  0.00    +0.112 C 
BRANCH  18  20
ATOM     19  C   UNL     1       5.269  -6.388  26.420  0.00  0.00    +0.104 C 
ATOM     20  N   UNL     1       5.692  -5.195  25.680  0.00  0.00    -0.306 NA
ATOM     21  C   UNL     1       5.342  -3.994  26.440  0.00  0.00    +0.104 C 
ENDBRANCH  18  20
ENDBRANCH  17  18
ENDBRANCH  16  17
ENDBRANCH  15  16
ENDBRANCH   1  15
TORSDOF 6
ENDMDL
MODEL 9
REMARK VINA RESULT:      -5.4      1.592      2.718
REMARK  Name = 
REMARK  8 active torsions:
REMARK  status: ('A' for Active; 'I' for Inactive)
REMARK    1  A    between atoms: C_1  and  N_2
REMARK    2  A    between atoms: N_2  and  C_3
REMARK    3  A    between atoms: N_2  and  C_4
REMARK    4  A    between atoms: C_4  and  C_5
REMARK    5  A    between atoms: C_5  and  O_6
REMARK    6  A    between atoms: O_6  and  C_7
REMARK    7  A    between atoms: C_7  and  C_8
REMARK    8  A    between atoms: N_10  and  C_11
REMARK                            x       y       z     vdW  Elec       q    Type
REMARK                         _______ _______ _______ _____ _____    ______ ____
ROOT
ATOM      1  C   UNL     1       8.217  -2.682  24.035  0.00  0.00    +0.239 C 
ATOM      2  N   UNL     1       8.788  -1.893  23.055  0.00  0.00    -0.308 N 
ATOM      3  H   UNL     1       9.322  -2.389  22.352  0.00  0.00    +0.149 HD
ATOM      4  O   UNL     1       7.728  -2.256  25.080  0.00  0.00    -0.273 OA
ENDROOT
BRANCH   2   5
ATOM      5  C   UNL     1       8.926  -0.440  23.155  0.00  0.00    +0.035 C 
ATOM      6  C   UNL     1       9.720   0.085  21.926  0.00  0.00    +0.029 C 
ATOM      7  C   UNL     1       9.868   1.617  21.983  0.00  0.00    -0.008 C 
ATOM      8  C   UNL     1      10.618   2.008  23.267  0.00  0.00    +0.007 C 
ATOM      9  C   UNL     1       9.848   1.506  24.498  0.00  0.00    -0.008 C 
ATOM     10  C   UNL     1       8.449   2.145  24.510  0.00  0.00    +0.007 C 
ATOM     11  C   UNL     1       7.688   1.779  23.225  0.00  0.00    -0.008 C 
ATOM     12  C   UNL     1       8.474   2.263  21.998  0.00  0.00    +0.007 C 
ATOM     13  C   UNL     1       7.538   0.253  23.152  0.00  0.00    +0.029 C 
ATOM     14  C   UNL     1       9.708  -0.024  24.424  0.00  0.00    +0.029 C 
ENDBRANCH   2   5
BRANCH   1  15
ATOM     15  C   UNL     1       8.177  -4.162  23.683  0.00  0.00    +0.255 C 
BRANCH  15  16
ATOM     16  O   UNL     1       7.494  -4.376  22.452  0.00  0.00    -0.369 OA
BRANCH  16  17
ATOM     17  C   UNL     1       6.081  -4.455  22.665  0.00  0.00    +0.175 C 
BRANCH  17  18
ATOM     18  C   UNL     1       5.765  -5.703  23.501  0.00  0.00    +0.112 C 
BRANCH  18  20
ATOM     19  C   UNL     1       5.642  -5.890  25.893  0.00  0.00    +0.104 C 
ATOM     20  N   UNL     1       4.932  -5.446  24.690  0.00  0.00    -0.306 NA
ATOM     21  C   UNL     1       4.575  -4.032  24.822  0.00  0.00    +0.104 C 
ENDBRANCH  18  20
ENDBRANCH  17  18
ENDBRANCH  16  17
ENDBRANCH  15  16
ENDBRANCH   1  15
TORSDOF 6
ENDMDL
