MODEL 1
REMARK VINA RESULT:      -7.3      0.000      0.000
REMARK  Name = 
REMARK  4 active torsions:
REMARK  status: ('A' for Active; 'I' for Inactive)
REMARK    1  A    between atoms: C_3  and  C_21
REMARK    2  A    between atoms: C_5  and  O_20
REMARK    3  A    between atoms: C_8  and  N_9
REMARK    4  A    between atoms: C_21  and  O_22
REMARK                            x       y       z     vdW  Elec       q    Type
REMARK                         _______ _______ _______ _____ _____    ______ ____
ROOT
ATOM      1  N   UNL     1       8.631  -1.795  23.190  0.00  0.00    -0.308 N 
ATOM      2  C   UNL     1       8.654  -3.038  23.762  0.00  0.00    +0.170 A 
ATOM      3  N   UNL     1       9.652  -3.570  24.510  0.00  0.00    -0.196 NA
ATOM      4  C   UNL     1       9.413  -4.797  24.895  0.00  0.00    +0.195 A 
ATOM      5  N   UNL     1      10.328  -5.467  25.639  0.00  0.00    -0.329 N 
ATOM      6  H   UNL     1       9.996  -6.176  26.277  0.00  0.00    +0.145 HD
ATOM      7  H   UNL     1      11.032  -4.855  26.044  0.00  0.00    +0.145 HD
ATOM      8  N   UNL     1       8.255  -5.484  24.593  0.00  0.00    -0.293 N 
ATOM      9  H   UNL     1       8.141  -6.440  24.887  0.00  0.00    +0.172 HD
ATOM     10  C   UNL     1       7.212  -4.976  23.834  0.00  0.00    +0.280 A 
ATOM     11  O   UNL     1       6.209  -5.639  23.587  0.00  0.00    -0.265 OA
ATOM     12  C   UNL     1       7.466  -3.623  23.389  0.00  0.00    +0.172 A 
ATOM     13  N   UNL     1       6.717  -2.785  22.603  0.00  0.00    -0.229 NA
ATOM     14  C   UNL     1       7.447  -1.695  22.497  0.00  0.00    +0.202 A 
ENDROOT
BRANCH   1  17
ATOM     15  C   UNL     1       9.024   0.100  25.523  0.00  0.00    +0.010 C 
ATOM     16  C   UNL     1       9.545   0.274  24.298  0.00  0.00    -0.046 C 
ATOM     17  C   UNL     1       9.699  -0.810  23.243  0.00  0.00    +0.118 C 
ATOM     18  C   UNL     1       9.881  -0.050  21.920  0.00  0.00    +0.061 C 
ATOM     19  C   UNL     1       9.610   1.417  22.245  0.00  0.00    +0.126 C 
ATOM     20  C   UNL     1      10.025   1.590  23.710  0.00  0.00    +0.070 C 
BRANCH  19  21
ATOM     21  O   UNL     1      10.339   2.276  21.380  0.00  0.00    -0.391 OA
ATOM     22  H   UNL     1       9.867   3.123  21.302  0.00  0.00    +0.210 HD
ENDBRANCH  19  21
BRANCH  20  23
ATOM     23  C   UNL     1       9.484   2.907  24.284  0.00  0.00    +0.166 C 
BRANCH  23  24
ATOM     24  O   UNL     1       9.703   4.000  23.395  0.00  0.00    -0.394 OA
ATOM     25  H   UNL     1      10.152   4.704  23.893  0.00  0.00    +0.209 HD
ENDBRANCH  23  24
ENDBRANCH  20  23
ENDBRANCH   1  17
TORSDOF 4
ENDMDL
MODEL 2
REMARK VINA RESULT:      -6.6      3.978      7.493
REMARK  Name = 
REMARK  4 active torsions:
REMARK  status: ('A' for Active; 'I' for Inactive)
REMARK    1  A    between atoms: C_3  and  C_21
REMARK    2  A    between atoms: C_5  and  O_20
REMARK    3  A    between atoms: C_8  and  N_9
REMARK    4  A    between atoms: C_21  and  O_22
REMARK                            x       y       z     vdW  Elec       q    Type
REMARK                         _______ _______ _______ _____ _____    ______ ____
ROOT
ATOM      1  N   UNL     1       9.603   2.464  23.934  0.00  0.00    -0.308 N 
ATOM      2  C   UNL     1      10.336   3.603  23.748  0.00  0.00    +0.170 A 
ATOM      3  N   UNL     1      11.653   3.682  23.434  0.00  0.00    -0.196 NA
ATOM      4  C   UNL     1      12.095   4.910  23.355  0.00  0.00    +0.195 A 
ATOM      5  N   UNL     1      13.398   5.147  23.064  0.00  0.00    -0.329 N 
ATOM      6  H   UNL     1      13.631   6.005  22.585  0.00  0.00    +0.145 HD
ATOM      7  H   UNL     1      13.872   4.330  22.685  0.00  0.00    +0.145 HD
ATOM      8  N   UNL     1      11.305   6.024  23.551  0.00  0.00    -0.293 N 
ATOM      9  H   UNL     1      11.708   6.945  23.513  0.00  0.00    +0.172 HD
ATOM     10  C   UNL     1       9.956   5.987  23.872  0.00  0.00    +0.280 A 
ATOM     11  O   UNL     1       9.305   7.013  24.046  0.00  0.00    -0.265 OA
ATOM     12  C   UNL     1       9.453   4.635  23.975  0.00  0.00    +0.172 A 
ATOM     13  N   UNL     1       8.206   4.167  24.299  0.00  0.00    -0.229 NA
ATOM     14  C   UNL     1       8.329   2.857  24.271  0.00  0.00    +0.202 A 
ENDROOT
BRANCH   1  17
ATOM     15  C   UNL     1       9.410   0.744  21.445  0.00  0.00    +0.010 C 
ATOM     16  C   UNL     1       9.626   0.276  22.684  0.00  0.00    -0.046 C 
ATOM     17  C   UNL     1      10.108   1.102  23.867  0.00  0.00    +0.118 C 
ATOM     18  C   UNL     1       9.749   0.266  25.105  0.00  0.00    +0.061 C 
ATOM     19  C   UNL     1       8.892  -0.889  24.590  0.00  0.00    +0.126 C 
ATOM     20  C   UNL     1       9.378  -1.146  23.160  0.00  0.00    +0.070 C 
BRANCH  19  21
ATOM     21  O   UNL     1       9.032  -2.036  25.415  0.00  0.00    -0.391 OA
ATOM     22  H   UNL     1       8.372  -1.996  26.129  0.00  0.00    +0.210 HD
ENDBRANCH  19  21
BRANCH  20  23
ATOM     23  C   UNL     1       8.383  -2.028  22.391  0.00  0.00    +0.166 C 
BRANCH  23  24
ATOM     24  O   UNL     1       8.227  -3.305  23.004  0.00  0.00    -0.394 OA
ATOM     25  H   UNL     1       7.335  -3.630  22.794  0.00  0.00    +0.209 HD
ENDBRANCH  23  24
ENDBRANCH  20  23
ENDBRANCH   1  17
TORSDOF 4
ENDMDL
MODEL 3
REMARK VINA RESULT:      -6.5      2.414      6.766
REMARK  Name = 
REMARK  4 active torsions:
REMARK  status: ('A' for Active; 'I' for Inactive)
REMARK    1  A    between atoms: C_3  and  C_21
REMARK    2  A    between atoms: C_5  and  O_20
REMARK    3  A    between atoms: C_8  and  N_9
REMARK    4  A    between atoms: C_21  and  O_22
REMARK                            x       y       z     vdW  Elec       q    Type
REMARK                         _______ _______ _______ _____ _____    ______ ____
ROOT
ATOM      1  N   UNL     1       8.338  -2.248  25.485  0.00  0.00    -0.308 N 
ATOM      2  C   UNL     1       8.749  -1.419  24.477  0.00  0.00    +0.170 A 
ATOM      3  N   UNL     1       9.084  -1.779  23.213  0.00  0.00    -0.196 NA
ATOM      4  C   UNL     1       9.477  -0.773  22.475  0.00  0.00    +0.195 A 
ATOM      5  N   UNL     1       9.859  -0.981  21.191  0.00  0.00    -0.329 N 
ATOM      6  H   UNL     1       9.732  -0.229  20.529  0.00  0.00    +0.145 HD
ATOM      7  H   UNL     1       9.567  -1.888  20.834  0.00  0.00    +0.145 HD
ATOM      8  N   UNL     1       9.532   0.531  22.922  0.00  0.00    -0.293 N 
ATOM      9  H   UNL     1       9.877   1.260  22.319  0.00  0.00    +0.172 HD
ATOM     10  C   UNL     1       9.198   0.940  24.204  0.00  0.00    +0.280 A 
ATOM     11  O   UNL     1       9.278   2.115  24.548  0.00  0.00    -0.265 OA
ATOM     12  C   UNL     1       8.772  -0.162  25.038  0.00  0.00    +0.172 A 
ATOM     13  N   UNL     1       8.394  -0.193  26.356  0.00  0.00    -0.229 NA
ATOM     14  C   UNL     1       8.144  -1.463  26.597  0.00  0.00    +0.202 A 
ENDROOT
BRANCH   1  17
ATOM     15  C   UNL     1       5.964  -3.641  24.213  0.00  0.00    +0.010 C 
ATOM     16  C   UNL     1       6.829  -4.221  25.061  0.00  0.00    -0.046 C 
ATOM     17  C   UNL     1       8.214  -3.695  25.405  0.00  0.00    +0.118 C 
ATOM     18  C   UNL     1       8.592  -4.404  26.714  0.00  0.00    +0.061 C 
ATOM     19  C   UNL     1       7.330  -5.132  27.169  0.00  0.00    +0.126 C 
ATOM     20  C   UNL     1       6.573  -5.474  25.881  0.00  0.00    +0.070 C 
BRANCH  19  21
ATOM     21  O   UNL     1       7.652  -6.292  27.922  0.00  0.00    -0.391 OA
ATOM     22  H   UNL     1       8.408  -6.741  27.505  0.00  0.00    +0.210 HD
ENDBRANCH  19  21
BRANCH  20  23
ATOM     23  C   UNL     1       5.126  -5.885  26.186  0.00  0.00    +0.166 C 
BRANCH  23  24
ATOM     24  O   UNL     1       5.065  -7.133  26.873  0.00  0.00    -0.394 OA
ATOM     25  H   UNL     1       4.283  -7.612  26.551  0.00  0.00    +0.209 HD
ENDBRANCH  23  24
ENDBRANCH  20  23
ENDBRANCH   1  17
TORSDOF 4
ENDMDL
MODEL 4
REMARK VINA RESULT:      -6.4      2.254      3.292
REMARK  Name = 
REMARK  4 active torsions:
REMARK  status: ('A' for Active; 'I' for Inactive)
REMARK    1  A    between atoms: C_3  and  C_21
REMARK    2  A    between atoms: C_5  and  O_20
REMARK    3  A    between atoms: C_8  and  N_9
REMARK    4  A    between atoms: C_21  and  O_22
REMARK                            x       y       z     vdW  Elec       q    Type
REMARK                         _______ _______ _______ _____ _____    ______ ____
ROOT
ATOM      1  N   UNL     1       7.889  -2.729  24.505  0.00  0.00    -0.308 N 
ATOM      2  C   UNL     1       7.241  -3.891  24.822  0.00  0.00    +0.170 A 
ATOM      3  N   UNL     1       6.377  -4.581  24.038  0.00  0.00    -0.196 NA
ATOM      4  C   UNL     1       5.880  -5.641  24.621  0.00  0.00    +0.195 A 
ATOM      5  N   UNL     1       4.989  -6.424  23.964  0.00  0.00    -0.329 N 
ATOM      6  H   UNL     1       4.954  -7.405  24.199  0.00  0.00    +0.145 HD
ATOM      7  H   UNL     1       4.971  -6.246  22.963  0.00  0.00    +0.145 HD
ATOM      8  N   UNL     1       6.209  -6.037  25.901  0.00  0.00    -0.293 N 
ATOM      9  H   UNL     1       5.767  -6.843  26.312  0.00  0.00    +0.172 HD
ATOM     10  C   UNL     1       7.087  -5.361  26.734  0.00  0.00    +0.280 A 
ATOM     11  O   UNL     1       7.333  -5.756  27.871  0.00  0.00    -0.265 OA
ATOM     12  C   UNL     1       7.637  -4.179  26.109  0.00  0.00    +0.172 A 
ATOM     13  N   UNL     1       8.502  -3.231  26.593  0.00  0.00    -0.229 NA
ATOM     14  C   UNL     1       8.631  -2.369  25.606  0.00  0.00    +0.202 A 
ENDROOT
BRANCH   1  17
ATOM     15  C   UNL     1      10.246  -1.929  22.774  0.00  0.00    +0.010 C 
ATOM     16  C   UNL     1       9.027  -1.370  22.714  0.00  0.00    -0.046 C 
ATOM     17  C   UNL     1       7.748  -1.982  23.265  0.00  0.00    +0.118 C 
ATOM     18  C   UNL     1       6.766  -0.807  23.380  0.00  0.00    +0.061 C 
ATOM     19  C   UNL     1       7.587   0.449  23.096  0.00  0.00    +0.126 C 
ATOM     20  C   UNL     1       8.697  -0.002  22.140  0.00  0.00    +0.070 C 
BRANCH  19  21
ATOM     21  O   UNL     1       6.779   1.471  22.530  0.00  0.00    -0.391 OA
ATOM     22  H   UNL     1       6.584   1.245  21.604  0.00  0.00    +0.210 HD
ENDBRANCH  19  21
BRANCH  20  23
ATOM     23  C   UNL     1       9.805   1.056  22.046  0.00  0.00    +0.166 C 
BRANCH  23  24
ATOM     24  O   UNL     1       9.360   2.228  21.369  0.00  0.00    -0.394 OA
ATOM     25  H   UNL     1       8.530   2.011  20.910  0.00  0.00    +0.209 HD
ENDBRANCH  23  24
ENDBRANCH  20  23
ENDBRANCH   1  17
TORSDOF 4
ENDMDL
MODEL 5
REMARK VINA RESULT:      -6.3      2.160      2.659
REMARK  Name = 
REMARK  4 active torsions:
REMARK  status: ('A' for Active; 'I' for Inactive)
REMARK    1  A    between atoms: C_3  and  C_21
REMARK    2  A    between atoms: C_5  and  O_20
REMARK    3  A    between atoms: C_8  and  N_9
REMARK    4  A    between atoms: C_21  and  O_22
REMARK                            x       y       z     vdW  Elec       q    Type
REMARK                         _______ _______ _______ _____ _____    ______ ____
ROOT
ATOM      1  N   UNL     1       6.723  -3.052  23.664  0.00  0.00    -0.308 N 
ATOM      2  C   UNL     1       6.541  -4.097  24.528  0.00  0.00    +0.170 A 
ATOM      3  N   UNL     1       7.291  -4.394  25.617  0.00  0.00    -0.196 NA
ATOM      4  C   UNL     1       6.903  -5.479  26.235  0.00  0.00    +0.195 A 
ATOM      5  N   UNL     1       7.568  -5.910  27.335  0.00  0.00    -0.329 N 
ATOM      6  H   UNL     1       7.052  -6.431  28.030  0.00  0.00    +0.145 HD
ATOM      7  H   UNL     1       8.177  -5.199  27.732  0.00  0.00    +0.145 HD
ATOM      8  N   UNL     1       5.825  -6.244  25.838  0.00  0.00    -0.293 N 
ATOM      9  H   UNL     1       5.594  -7.090  26.332  0.00  0.00    +0.172 HD
ATOM     10  C   UNL     1       5.032  -5.975  24.733  0.00  0.00    +0.280 A 
ATOM     11  O   UNL     1       4.092  -6.699  24.421  0.00  0.00    -0.265 OA
ATOM     12  C   UNL     1       5.456  -4.784  24.030  0.00  0.00    +0.172 A 
ATOM     13  N   UNL     1       4.971  -4.198  22.888  0.00  0.00    -0.229 NA
ATOM     14  C   UNL     1       5.757  -3.161  22.692  0.00  0.00    +0.202 A 
ENDROOT
BRANCH   1  17
ATOM     15  C   UNL     1       6.229  -0.100  24.150  0.00  0.00    +0.010 C 
ATOM     16  C   UNL     1       7.355  -0.613  23.629  0.00  0.00    -0.046 C 
ATOM     17  C   UNL     1       7.791  -2.067  23.728  0.00  0.00    +0.118 C 
ATOM     18  C   UNL     1       8.838  -2.242  22.618  0.00  0.00    +0.061 C 
ATOM     19  C   UNL     1       8.796  -0.952  21.803  0.00  0.00    +0.126 C 
ATOM     20  C   UNL     1       8.377   0.139  22.793  0.00  0.00    +0.070 C 
BRANCH  19  21
ATOM     21  O   UNL     1      10.058  -0.680  21.211  0.00  0.00    -0.391 OA
ATOM     22  H   UNL     1      10.252   0.269  21.300  0.00  0.00    +0.210 HD
ENDBRANCH  19  21
BRANCH  20  23
ATOM     23  C   UNL     1       7.947   1.416  22.057  0.00  0.00    +0.166 C 
BRANCH  23  24
ATOM     24  O   UNL     1       9.050   2.056  21.421  0.00  0.00    -0.394 OA
ATOM     25  H   UNL     1       9.857   1.808  21.903  0.00  0.00    +0.209 HD
ENDBRANCH  23  24
ENDBRANCH  20  23
ENDBRANCH   1  17
TORSDOF 4
ENDMDL
MODEL 6
REMARK VINA RESULT:      -6.3      2.699      6.606
REMARK  Name = 
REMARK  4 active torsions:
REMARK  status: ('A' for Active; 'I' for Inactive)
REMARK    1  A    between atoms: C_3  and  C_21
REMARK    2  A    between atoms: C_5  and  O_20
REMARK    3  A    between atoms: C_8  and  N_9
REMARK    4  A    between atoms: C_21  and  O_22
REMARK                            x       y       z     vdW  Elec       q    Type
REMARK                         _______ _______ _______ _____ _____    ______ ____
ROOT
ATOM      1  N   UNL     1       9.201  -0.287  24.203  0.00  0.00    -0.308 N 
ATOM      2  C   UNL     1       8.993   0.946  23.649  0.00  0.00    +0.170 A 
ATOM      3  N   UNL     1       7.867   1.383  23.034  0.00  0.00    -0.196 NA
ATOM      4  C   UNL     1       7.970   2.600  22.566  0.00  0.00    +0.195 A 
ATOM      5  N   UNL     1       6.927   3.168  21.911  0.00  0.00    -0.329 N 
ATOM      6  H   UNL     1       6.830   4.172  21.949  0.00  0.00    +0.145 HD
ATOM      7  H   UNL     1       6.051   2.671  22.058  0.00  0.00    +0.145 HD
ATOM      8  N   UNL     1       9.101   3.379  22.696  0.00  0.00    -0.293 N 
ATOM      9  H   UNL     1       9.136   4.297  22.285  0.00  0.00    +0.172 HD
ATOM     10  C   UNL     1      10.271   2.971  23.319  0.00  0.00    +0.280 A 
ATOM     11  O   UNL     1      11.252   3.705  23.394  0.00  0.00    -0.265 OA
ATOM     12  C   UNL     1      10.179   1.622  23.831  0.00  0.00    +0.172 A 
ATOM     13  N   UNL     1      11.108   0.843  24.473  0.00  0.00    -0.229 NA
ATOM     14  C   UNL     1      10.491  -0.301  24.680  0.00  0.00    +0.202 A 
ENDROOT
BRANCH   1  17
ATOM     15  C   UNL     1       7.784  -1.249  26.705  0.00  0.00    +0.010 C 
ATOM     16  C   UNL     1       7.912  -1.962  25.575  0.00  0.00    -0.046 C 
ATOM     17  C   UNL     1       8.256  -1.393  24.207  0.00  0.00    +0.118 C 
ATOM     18  C   UNL     1       8.739  -2.599  23.388  0.00  0.00    +0.061 C 
ATOM     19  C   UNL     1       8.852  -3.754  24.379  0.00  0.00    +0.126 C 
ATOM     20  C   UNL     1       7.795  -3.472  25.451  0.00  0.00    +0.070 C 
BRANCH  19  21
ATOM     21  O   UNL     1       8.640  -5.002  23.736  0.00  0.00    -0.391 OA
ATOM     22  H   UNL     1       9.500  -5.424  23.569  0.00  0.00    +0.210 HD
ENDBRANCH  19  21
BRANCH  20  23
ATOM     23  C   UNL     1       8.025  -4.343  26.694  0.00  0.00    +0.166 C 
BRANCH  23  24
ATOM     24  O   UNL     1       9.324  -4.930  26.694  0.00  0.00    -0.394 OA
ATOM     25  H   UNL     1       9.248  -5.822  27.074  0.00  0.00    +0.209 HD
ENDBRANCH  23  24
ENDBRANCH  20  23
ENDBRANCH   1  17
TORSDOF 4
ENDMDL
MODEL 7
REMARK VINA RESULT:      -6.3      2.339      6.474
REMARK  Name = 
REMARK  4 active torsions:
REMARK  status: ('A' for Active; 'I' for Inactive)
REMARK    1  A    between atoms: C_3  and  C_21
REMARK    2  A    between atoms: C_5  and  O_20
REMARK    3  A    between atoms: C_8  and  N_9
REMARK    4  A    between atoms: C_21  and  O_22
REMARK                            x       y       z     vdW  Elec       q    Type
REMARK                         _______ _______ _______ _____ _____    ______ ____
ROOT
ATOM      1  N   UNL     1       8.470  -1.119  24.333  0.00  0.00    -0.308 N 
ATOM      2  C   UNL     1       8.777   0.151  23.926  0.00  0.00    +0.170 A 
ATOM      3  N   UNL     1       9.384   0.510  22.769  0.00  0.00    -0.196 NA
ATOM      4  C   UNL     1       9.585   1.798  22.666  0.00  0.00    +0.195 A 
ATOM      5  N   UNL     1      10.197   2.306  21.568  0.00  0.00    -0.329 N 
ATOM      6  H   UNL     1       9.964   3.247  21.285  0.00  0.00    +0.145 HD
ATOM      7  H   UNL     1      10.229   1.647  20.794  0.00  0.00    +0.145 HD
ATOM      8  N   UNL     1       9.202   2.713  23.626  0.00  0.00    -0.293 N 
ATOM      9  H   UNL     1       9.414   3.690  23.509  0.00  0.00    +0.172 HD
ATOM     10  C   UNL     1       8.579   2.388  24.820  0.00  0.00    +0.280 A 
ATOM     11  O   UNL     1       8.271   3.245  25.643  0.00  0.00    -0.265 OA
ATOM     12  C   UNL     1       8.360   0.964  24.956  0.00  0.00    +0.172 A 
ATOM     13  N   UNL     1       7.814   0.237  25.982  0.00  0.00    -0.229 NA
ATOM     14  C   UNL     1       7.898  -1.013  25.579  0.00  0.00    +0.202 A 
ENDROOT
BRANCH   1  17
ATOM     15  C   UNL     1       6.454  -2.547  22.576  0.00  0.00    +0.010 C 
ATOM     16  C   UNL     1       7.570  -3.105  23.070  0.00  0.00    -0.046 C 
ATOM     17  C   UNL     1       8.771  -2.344  23.611  0.00  0.00    +0.118 C 
ATOM     18  C   UNL     1       9.538  -3.369  24.460  0.00  0.00    +0.061 C 
ATOM     19  C   UNL     1       8.635  -4.597  24.542  0.00  0.00    +0.126 C 
ATOM     20  C   UNL     1       7.828  -4.593  23.239  0.00  0.00    +0.070 C 
BRANCH  19  21
ATOM     21  O   UNL     1       9.399  -5.785  24.691  0.00  0.00    -0.391 OA
ATOM     22  H   UNL     1       9.104  -6.437  24.033  0.00  0.00    +0.210 HD
ENDBRANCH  19  21
BRANCH  20  23
ATOM     23  C   UNL     1       6.633  -5.552  23.329  0.00  0.00    +0.166 C 
BRANCH  23  24
ATOM     24  O   UNL     1       6.167  -5.691  24.669  0.00  0.00    -0.394 OA
ATOM     25  H   UNL     1       5.991  -6.634  24.827  0.00  0.00    +0.209 HD
ENDBRANCH  23  24
ENDBRANCH  20  23
ENDBRANCH   1  17
TORSDOF 4
ENDMDL
MODEL 8
REMARK VINA RESULT:      -6.3      3.074      7.283
REMARK  Name = 
REMARK  4 active torsions:
REMARK  status: ('A' for Active; 'I' for Inactive)
REMARK    1  A    between atoms: C_3  and  C_21
REMARK    2  A    between atoms: C_5  and  O_20
REMARK    3  A    between atoms: C_8  and  N_9
REMARK    4  A    between atoms: C_21  and  O_22
REMARK                            x       y       z     vdW  Elec       q    Type
REMARK                         _______ _______ _______ _____ _____    ______ ____
ROOT
ATOM      1  N   UNL     1       6.834  -4.399  24.702  0.00  0.00    -0.308 N 
ATOM      2  C   UNL     1       7.237  -3.223  24.130  0.00  0.00    +0.170 A 
ATOM      3  N   UNL     1       6.468  -2.136  23.875  0.00  0.00    -0.196 NA
ATOM      4  C   UNL     1       7.118  -1.167  23.286  0.00  0.00    +0.195 A 
ATOM      5  N   UNL     1       6.476  -0.019  22.954  0.00  0.00    -0.329 N 
ATOM      6  H   UNL     1       7.012   0.836  22.926  0.00  0.00    +0.145 HD
ATOM      7  H   UNL     1       5.579   0.080  23.424  0.00  0.00    +0.145 HD
ATOM      8  N   UNL     1       8.459  -1.225  22.968  0.00  0.00    -0.293 N 
ATOM      9  H   UNL     1       8.900  -0.462  22.482  0.00  0.00    +0.172 HD
ATOM     10  C   UNL     1       9.281  -2.316  23.212  0.00  0.00    +0.280 A 
ATOM     11  O   UNL     1      10.467  -2.315  22.896  0.00  0.00    -0.265 OA
ATOM     12  C   UNL     1       8.574  -3.402  23.853  0.00  0.00    +0.172 A 
ATOM     13  N   UNL     1       9.003  -4.649  24.230  0.00  0.00    -0.229 NA
ATOM     14  C   UNL     1       7.932  -5.227  24.733  0.00  0.00    +0.202 A 
ENDROOT
BRANCH   1  17
ATOM     15  C   UNL     1       5.824  -3.997  27.532  0.00  0.00    +0.010 C 
ATOM     16  C   UNL     1       5.248  -4.794  26.618  0.00  0.00    -0.046 C 
ATOM     17  C   UNL     1       5.480  -4.727  25.116  0.00  0.00    +0.118 C 
ATOM     18  C   UNL     1       5.000  -6.085  24.582  0.00  0.00    +0.061 C 
ATOM     19  C   UNL     1       4.719  -6.939  25.816  0.00  0.00    +0.126 C 
ATOM     20  C   UNL     1       4.302  -5.948  26.907  0.00  0.00    +0.070 C 
BRANCH  19  21
ATOM     21  O   UNL     1       3.706  -7.899  25.552  0.00  0.00    -0.391 OA
ATOM     22  H   UNL     1       3.511  -7.902  24.599  0.00  0.00    +0.210 HD
ENDBRANCH  19  21
BRANCH  20  23
ATOM     23  C   UNL     1       4.333  -6.610  28.292  0.00  0.00    +0.166 C 
BRANCH  23  24
ATOM     24  O   UNL     1       5.326  -7.631  28.367  0.00  0.00    -0.394 OA
ATOM     25  H   UNL     1       5.248  -8.182  27.570  0.00  0.00    +0.209 HD
ENDBRANCH  23  24
ENDBRANCH  20  23
ENDBRANCH   1  17
TORSDOF 4
ENDMDL
MODEL 9
REMARK VINA RESULT:      -6.3      2.181      6.777
REMARK  Name = 
REMARK  4 active torsions:
REMARK  status: ('A' for Active; 'I' for Inactive)
REMARK    1  A    between atoms: C_3  and  C_21
REMARK    2  A    between atoms: C_5  and  O_20
REMARK    3  A    between atoms: C_8  and  N_9
REMARK    4  A    between atoms: C_21  and  O_22
REMARK                            x       y       z     vdW  Elec       q    Type
REMARK                         _______ _______ _______ _____ _____    ______ ____
ROOT
ATOM      1  N   UNL     1       7.785  -2.593  23.383  0.00  0.00    -0.308 N 
ATOM      2  C   UNL     1       7.911  -1.231  23.356  0.00  0.00    +0.170 A 
ATOM      3  N   UNL     1       6.993  -0.337  22.912  0.00  0.00    -0.196 NA
ATOM      4  C   UNL     1       7.405   0.903  22.973  0.00  0.00    +0.195 A 
ATOM      5  N   UNL     1       6.600   1.908  22.549  0.00  0.00    -0.329 N 
ATOM      6  H   UNL     1       6.705   2.816  22.979  0.00  0.00    +0.145 HD
ATOM      7  H   UNL     1       5.630   1.620  22.443  0.00  0.00    +0.145 HD
ATOM      8  N   UNL     1       8.641   1.278  23.456  0.00  0.00    -0.293 N 
ATOM      9  H   UNL     1       8.918   2.245  23.446  0.00  0.00    +0.172 HD
ATOM     10  C   UNL     1       9.606   0.397  23.920  0.00  0.00    +0.280 A 
ATOM     11  O   UNL     1      10.696   0.789  24.329  0.00  0.00    -0.265 OA
ATOM     12  C   UNL     1       9.172  -0.981  23.849  0.00  0.00    +0.172 A 
ATOM     13  N   UNL     1       9.826  -2.142  24.171  0.00  0.00    -0.229 NA
ATOM     14  C   UNL     1       8.967  -3.095  23.876  0.00  0.00    +0.202 A 
ENDROOT
BRANCH   1  17
ATOM     15  C   UNL     1       5.413  -3.310  25.129  0.00  0.00    +0.010 C 
ATOM     16  C   UNL     1       5.726  -3.919  23.975  0.00  0.00    -0.046 C 
ATOM     17  C   UNL     1       6.645  -3.355  22.901  0.00  0.00    +0.118 C 
ATOM     18  C   UNL     1       7.049  -4.569  22.051  0.00  0.00    +0.061 C 
ATOM     19  C   UNL     1       6.522  -5.792  22.797  0.00  0.00    +0.126 C 
ATOM     20  C   UNL     1       5.275  -5.304  23.543  0.00  0.00    +0.070 C 
BRANCH  19  21
ATOM     21  O   UNL     1       6.226  -6.851  21.899  0.00  0.00    -0.391 OA
ATOM     22  H   UNL     1       6.783  -7.618  22.118  0.00  0.00    +0.210 HD
ENDBRANCH  19  21
BRANCH  20  23
ATOM     23  C   UNL     1       4.842  -6.316  24.612  0.00  0.00    +0.166 C 
BRANCH  23  24
ATOM     24  O   UNL     1       4.400  -7.541  24.032  0.00  0.00    -0.394 OA
ATOM     25  H   UNL     1       3.747  -7.937  24.634  0.00  0.00    +0.209 HD
ENDBRANCH  23  24
ENDBRANCH  20  23
ENDBRANCH   1  17
TORSDOF 4
ENDMDL
