MODEL 1
REMARK VINA RESULT:      -6.5      0.000      0.000
REMARK  Name = 
REMARK  6 active torsions:
REMARK  status: ('A' for Active; 'I' for Inactive)
REMARK    1  A    between atoms: C6_3  and  N6_23
REMARK    2  A    between atoms: N9_7  and  C1*_10
REMARK    3  A    between atoms: C2*_12  and  O2*_22
REMARK    4  A    between atoms: C3*_14  and  O3*_21
REMARK    5  A    between atoms: C4*_16  and  C5*_19
REMARK    6  A    between atoms: C5*_19  and  O5*_20
REMARK                            x       y       z     vdW  Elec       q    Type
REMARK                         _______ _______ _______ _____ _____    ______ ____
ROOT
ATOM      1  C2    A A   1      10.476   0.814  24.873  0.00  0.00    +0.225 A 
ATOM      2  N3    A A   1      10.126  -0.482  25.040  0.00  0.00    -0.216 NA
ATOM      3  C4    A A   1       9.594  -0.976  23.909  0.00  0.00    +0.167 A 
ATOM      4  N9    A A   1       9.156  -2.254  23.674  0.00  0.00    -0.286 N 
ATOM      5  C8    A A   1       8.651  -2.286  22.404  0.00  0.00    +0.203 A 
ATOM      6  N7    A A   1       8.802  -1.135  21.782  0.00  0.00    -0.231 NA
ATOM      7  C5    A A   1       9.412  -0.314  22.708  0.00  0.00    +0.147 A 
ATOM      8  C6    A A   1       9.867   1.014  22.640  0.00  0.00    +0.147 A 
ATOM      9  N1    A A   1      10.381   1.574  23.759  0.00  0.00    -0.219 NA
ENDROOT
BRANCH   4  10
ATOM     10  C1*   A A   1       9.278  -3.351  24.619  0.00  0.00    +0.253 C 
ATOM     11  O4*   A A   1       8.556  -3.056  25.834  0.00  0.00    -0.346 OA
ATOM     12  C4*   A A   1       7.314  -3.803  25.828  0.00  0.00    +0.177 C 
ATOM     13  C3*   A A   1       7.292  -4.673  24.567  0.00  0.00    +0.178 C 
ATOM     14  C2*   A A   1       8.733  -4.678  24.083  0.00  0.00    +0.195 C 
BRANCH  13  15
ATOM     15  O3*   A A   1       6.468  -4.030  23.588  0.00  0.00    -0.386 OA
ATOM     16  H3*   A A   1       6.794  -3.118  23.476  0.00  0.00    +0.210 HD
ENDBRANCH  13  15
BRANCH  14  17
ATOM     17  O2*   A A   1       9.442  -5.783  24.651  0.00  0.00    -0.385 OA
ATOM     18  H2*   A A   1       9.842  -6.286  23.917  0.00  0.00    +0.210 HD
ENDBRANCH  14  17
BRANCH  12  19
ATOM     19  C5*   A A   1       7.188  -4.597  27.134  0.00  0.00    +0.190 C 
BRANCH  19  20
ATOM     20  O5*   A A   1       8.141  -5.646  27.235  0.00  0.00    -0.392 OA
ATOM     21  H5*   A A   1       9.020  -5.230  27.301  0.00  0.00    +0.210 HD
ENDBRANCH  19  20
ENDBRANCH  12  19
ENDBRANCH   4  10
BRANCH   8  22
ATOM     22  N6    A A   1       9.815   1.773  21.481  0.00  0.00    -0.341 N 
ATOM     23  H61   A A   1       8.873   2.004  21.188  0.00  0.00    +0.144 HD
ATOM     24  H62   A A   1      10.518   2.496  21.449  0.00  0.00    +0.144 HD
ENDBRANCH   8  22
TORSDOF 6
ENDMDL
MODEL 2
REMARK VINA RESULT:      -6.2      3.456      6.118
REMARK  Name = 
REMARK  6 active torsions:
REMARK  status: ('A' for Active; 'I' for Inactive)
REMARK    1  A    between atoms: C6_3  and  N6_23
REMARK    2  A    between atoms: N9_7  and  C1*_10
REMARK    3  A    between atoms: C2*_12  and  O2*_22
REMARK    4  A    between atoms: C3*_14  and  O3*_21
REMARK    5  A    between atoms: C4*_16  and  C5*_19
REMARK    6  A    between atoms: C5*_19  and  O5*_20
REMARK                            x       y       z     vdW  Elec       q    Type
REMARK                         _______ _______ _______ _____ _____    ______ ____
ROOT
ATOM      1  C2    A A   1       5.989  -2.620  23.041  0.00  0.00    +0.225 A 
ATOM      2  N3    A A   1       6.709  -1.507  22.774  0.00  0.00    -0.216 NA
ATOM      3  C4    A A   1       8.015  -1.724  23.004  0.00  0.00    +0.167 A 
ATOM      4  N9    A A   1       9.058  -0.854  22.816  0.00  0.00    -0.286 N 
ATOM      5  C8    A A   1      10.199  -1.486  23.226  0.00  0.00    +0.203 A 
ATOM      6  N7    A A   1       9.969  -2.729  23.597  0.00  0.00    -0.231 NA
ATOM      7  C5    A A   1       8.607  -2.895  23.440  0.00  0.00    +0.147 A 
ATOM      8  C6    A A   1       7.761  -4.001  23.629  0.00  0.00    +0.147 A 
ATOM      9  N1    A A   1       6.433  -3.831  23.445  0.00  0.00    -0.219 NA
ENDROOT
BRANCH   4  10
ATOM     10  C1*   A A   1       8.928   0.471  22.232  0.00  0.00    +0.253 C 
ATOM     11  O4*   A A   1       7.710   1.105  22.679  0.00  0.00    -0.346 OA
ATOM     12  C4*   A A   1       8.042   2.084  23.694  0.00  0.00    +0.177 C 
ATOM     13  C3*   A A   1       9.567   2.117  23.837  0.00  0.00    +0.178 C 
ATOM     14  C2*   A A   1      10.081   1.411  22.593  0.00  0.00    +0.195 C 
BRANCH  13  15
ATOM     15  O3*   A A   1       9.928   1.355  24.996  0.00  0.00    -0.386 OA
ATOM     16  H3*   A A   1       9.170   0.786  25.227  0.00  0.00    +0.210 HD
ENDBRANCH  13  15
BRANCH  14  17
ATOM     17  O2*   A A   1      10.311   2.358  21.546  0.00  0.00    -0.385 OA
ATOM     18  H2*   A A   1      11.274   2.493  21.476  0.00  0.00    +0.210 HD
ENDBRANCH  14  17
BRANCH  12  19
ATOM     19  C5*   A A   1       7.423   3.436  23.321  0.00  0.00    +0.190 C 
BRANCH  19  20
ATOM     20  O5*   A A   1       8.061   4.046  22.207  0.00  0.00    -0.392 OA
ATOM     21  H5*   A A   1       8.518   3.340  21.716  0.00  0.00    +0.210 HD
ENDBRANCH  19  20
ENDBRANCH  12  19
ENDBRANCH   4  10
BRANCH   8  22
ATOM     22  N6    A A   1       8.228  -5.255  23.995  0.00  0.00    -0.341 N 
ATOM     23  H61   A A   1       8.529  -5.312  24.960  0.00  0.00    +0.144 HD
ATOM     24  H62   A A   1       7.669  -6.009  23.622  0.00  0.00    +0.144 HD
ENDBRANCH   8  22
TORSDOF 6
ENDMDL
MODEL 3
REMARK VINA RESULT:      -6.2      1.922      3.366
REMARK  Name = 
REMARK  6 active torsions:
REMARK  status: ('A' for Active; 'I' for Inactive)
REMARK    1  A    between atoms: C6_3  and  N6_23
REMARK    2  A    between atoms: N9_7  and  C1*_10
REMARK    3  A    between atoms: C2*_12  and  O2*_22
REMARK    4  A    between atoms: C3*_14  and  O3*_21
REMARK    5  A    between atoms: C4*_16  and  C5*_19
REMARK    6  A    between atoms: C5*_19  and  O5*_20
REMARK                            x       y       z     vdW  Elec       q    Type
REMARK                         _______ _______ _______ _____ _____    ______ ____
ROOT
ATOM      1  C2    A A   1       9.706  -0.379  21.818  0.00  0.00    +0.225 A 
ATOM      2  N3    A A   1       8.993  -1.525  21.891  0.00  0.00    -0.216 NA
ATOM      3  C4    A A   1       8.849  -1.910  23.171  0.00  0.00    +0.167 A 
ATOM      4  N9    A A   1       8.161  -2.996  23.650  0.00  0.00    -0.286 N 
ATOM      5  C8    A A   1       8.326  -3.018  25.007  0.00  0.00    +0.203 A 
ATOM      6  N7    A A   1       9.011  -1.980  25.439  0.00  0.00    -0.231 NA
ATOM      7  C5    A A   1       9.324  -1.268  24.299  0.00  0.00    +0.147 A 
ATOM      8  C6    A A   1      10.003  -0.054  24.099  0.00  0.00    +0.147 A 
ATOM      9  N1    A A   1      10.207   0.365  22.829  0.00  0.00    -0.219 NA
ENDROOT
BRANCH   4  10
ATOM     10  C1*   A A   1       7.373  -3.897  22.827  0.00  0.00    +0.253 C 
ATOM     11  O4*   A A   1       7.006  -5.077  23.574  0.00  0.00    -0.346 OA
ATOM     12  C4*   A A   1       5.617  -4.960  23.973  0.00  0.00    +0.177 C 
ATOM     13  C3*   A A   1       5.062  -3.664  23.375  0.00  0.00    +0.178 C 
ATOM     14  C2*   A A   1       6.074  -3.271  22.312  0.00  0.00    +0.195 C 
BRANCH  13  15
ATOM     15  O3*   A A   1       5.045  -2.664  24.403  0.00  0.00    -0.386 OA
ATOM     16  H3*   A A   1       5.370  -1.831  24.013  0.00  0.00    +0.210 HD
ENDBRANCH  13  15
BRANCH  14  17
ATOM     17  O2*   A A   1       5.707  -3.832  21.048  0.00  0.00    -0.385 OA
ATOM     18  H2*   A A   1       6.376  -4.503  20.817  0.00  0.00    +0.210 HD
ENDBRANCH  14  17
BRANCH  12  19
ATOM     19  C5*   A A   1       4.855  -6.219  23.543  0.00  0.00    +0.190 C 
BRANCH  19  20
ATOM     20  O5*   A A   1       4.150  -6.047  22.322  0.00  0.00    -0.392 OA
ATOM     21  H5*   A A   1       3.225  -6.308  22.485  0.00  0.00    +0.210 HD
ENDBRANCH  19  20
ENDBRANCH  12  19
ENDBRANCH   4  10
BRANCH   8  22
ATOM     22  N6    A A   1      10.470   0.732  25.142  0.00  0.00    -0.341 N 
ATOM     23  H61   A A   1       9.785   0.890  25.871  0.00  0.00    +0.144 HD
ATOM     24  H62   A A   1      11.416   0.507  25.414  0.00  0.00    +0.144 HD
ENDBRANCH   8  22
TORSDOF 6
ENDMDL
MODEL 4
REMARK VINA RESULT:      -6.2      3.069      5.739
REMARK  Name = 
REMARK  6 active torsions:
REMARK  status: ('A' for Active; 'I' for Inactive)
REMARK    1  A    between atoms: C6_3  and  N6_23
REMARK    2  A    between atoms: N9_7  and  C1*_10
REMARK    3  A    between atoms: C2*_12  and  O2*_22
REMARK    4  A    between atoms: C3*_14  and  O3*_21
REMARK    5  A    between atoms: C4*_16  and  C5*_19
REMARK    6  A    between atoms: C5*_19  and  O5*_20
REMARK                            x       y       z     vdW  Elec       q    Type
REMARK                         _______ _______ _______ _____ _____    ______ ____
ROOT
ATOM      1  C2    A A   1       4.897  -3.705  22.488  0.00  0.00    +0.225 A 
ATOM      2  N3    A A   1       5.748  -2.813  23.042  0.00  0.00    -0.216 NA
ATOM      3  C4    A A   1       6.899  -3.413  23.393  0.00  0.00    +0.167 A 
ATOM      4  N9    A A   1       8.013  -2.837  23.948  0.00  0.00    -0.286 N 
ATOM      5  C8    A A   1       8.918  -3.835  24.178  0.00  0.00    +0.203 A 
ATOM      6  N7    A A   1       8.490  -5.002  23.742  0.00  0.00    -0.231 NA
ATOM      7  C5    A A   1       7.235  -4.744  23.228  0.00  0.00    +0.147 A 
ATOM      8  C6    A A   1       6.289  -5.563  22.588  0.00  0.00    +0.147 A 
ATOM      9  N1    A A   1       5.099  -5.019  22.243  0.00  0.00    -0.219 NA
ENDROOT
BRANCH   4  10
ATOM     10  C1*   A A   1       8.172  -1.411  24.178  0.00  0.00    +0.253 C 
ATOM     11  O4*   A A   1       9.404  -1.145  24.883  0.00  0.00    -0.346 OA
ATOM     12  C4*   A A   1      10.377  -0.636  23.938  0.00  0.00    +0.177 C 
ATOM     13  C3*   A A   1       9.690  -0.507  22.575  0.00  0.00    +0.178 C 
ATOM     14  C2*   A A   1       8.205  -0.587  22.888  0.00  0.00    +0.195 C 
BRANCH  13  15
ATOM     15  O3*   A A   1      10.064  -1.634  21.772  0.00  0.00    -0.386 OA
ATOM     16  H3*   A A   1      11.012  -1.805  21.922  0.00  0.00    +0.210 HD
ENDBRANCH  13  15
BRANCH  14  17
ATOM     17  O2*   A A   1       7.676   0.724  23.110  0.00  0.00    -0.385 OA
ATOM     18  H2*   A A   1       8.397   1.363  22.960  0.00  0.00    +0.210 HD
ENDBRANCH  14  17
BRANCH  12  19
ATOM     19  C5*   A A   1      10.963   0.679  24.466  0.00  0.00    +0.190 C 
BRANCH  19  20
ATOM     20  O5*   A A   1       9.966   1.591  24.902  0.00  0.00    -0.392 OA
ATOM     21  H5*   A A   1       9.266   1.598  24.224  0.00  0.00    +0.210 HD
ENDBRANCH  19  20
ENDBRANCH  12  19
ENDBRANCH   4  10
BRANCH   8  22
ATOM     22  N6    A A   1       6.521  -6.898  22.293  0.00  0.00    -0.341 N 
ATOM     23  H61   A A   1       6.096  -7.540  22.951  0.00  0.00    +0.144 HD
ATOM     24  H62   A A   1       6.448  -7.104  21.307  0.00  0.00    +0.144 HD
ENDBRANCH   8  22
TORSDOF 6
ENDMDL
MODEL 5
REMARK VINA RESULT:      -6.1      3.154      5.859
REMARK  Name = 
REMARK  6 active torsions:
REMARK  status: ('A' for Active; 'I' for Inactive)
REMARK    1  A    between atoms: C6_3  and  N6_23
REMARK    2  A    between atoms: N9_7  and  C1*_10
REMARK    3  A    between atoms: C2*_12  and  O2*_22
REMARK    4  A    between atoms: C3*_14  and  O3*_21
REMARK    5  A    between atoms: C4*_16  and  C5*_19
REMARK    6  A    between atoms: C5*_19  and  O5*_20
REMARK                            x       y       z     vdW  Elec       q    Type
REMARK                         _______ _______ _______ _____ _____    ______ ____
ROOT
ATOM      1  C2    A A   1       6.661  -3.098  26.906  0.00  0.00    +0.225 A 
ATOM      2  N3    A A   1       7.112  -2.092  26.122  0.00  0.00    -0.216 NA
ATOM      3  C4    A A   1       8.162  -2.502  25.388  0.00  0.00    +0.167 A 
ATOM      4  N9    A A   1       8.865  -1.786  24.453  0.00  0.00    -0.286 N 
ATOM      5  C8    A A   1       9.874  -2.587  23.997  0.00  0.00    +0.203 A 
ATOM      6  N7    A A   1       9.822  -3.795  24.523  0.00  0.00    -0.231 NA
ATOM      7  C5    A A   1       8.739  -3.758  25.378  0.00  0.00    +0.147 A 
ATOM      8  C6    A A   1       8.146  -4.736  26.195  0.00  0.00    +0.147 A 
ATOM      9  N1    A A   1       7.108  -4.371  26.981  0.00  0.00    -0.219 NA
ENDROOT
BRANCH   4  10
ATOM     10  C1*   A A   1       8.524  -0.440  24.023  0.00  0.00    +0.253 C 
ATOM     11  O4*   A A   1       9.704   0.391  23.973  0.00  0.00    -0.346 OA
ATOM     12  C4*   A A   1      10.105   0.542  22.589  0.00  0.00    +0.177 C 
ATOM     13  C3*   A A   1       9.072  -0.177  21.716  0.00  0.00    +0.178 C 
ATOM     14  C2*   A A   1       7.880  -0.390  22.635  0.00  0.00    +0.195 C 
BRANCH  13  15
ATOM     15  O3*   A A   1       9.608  -1.450  21.335  0.00  0.00    -0.386 OA
ATOM     16  H3*   A A   1      10.357  -1.290  20.732  0.00  0.00    +0.210 HD
ENDBRANCH  13  15
BRANCH  14  17
ATOM     17  O2*   A A   1       6.975   0.713  22.535  0.00  0.00    -0.385 OA
ATOM     18  H2*   A A   1       6.145   0.455  22.979  0.00  0.00    +0.210 HD
ENDBRANCH  14  17
BRANCH  12  19
ATOM     19  C5*   A A   1      10.267   2.031  22.263  0.00  0.00    +0.190 C 
BRANCH  19  20
ATOM     20  O5*   A A   1       9.174   2.555  21.522  0.00  0.00    -0.392 OA
ATOM     21  H5*   A A   1       9.144   3.514  21.692  0.00  0.00    +0.210 HD
ENDBRANCH  19  20
ENDBRANCH  12  19
ENDBRANCH   4  10
BRANCH   8  22
ATOM     22  N6    A A   1       8.576  -6.054  26.229  0.00  0.00    -0.341 N 
ATOM     23  H61   A A   1       9.542  -6.159  26.513  0.00  0.00    +0.144 HD
ATOM     24  H62   A A   1       7.890  -6.684  26.620  0.00  0.00    +0.144 HD
ENDBRANCH   8  22
TORSDOF 6
ENDMDL
MODEL 6
REMARK VINA RESULT:      -6.0      3.057      5.829
REMARK  Name = 
REMARK  6 active torsions:
REMARK  status: ('A' for Active; 'I' for Inactive)
REMARK    1  A    between atoms: C6_3  and  N6_23
REMARK    2  A    between atoms: N9_7  and  C1*_10
REMARK    3  A    between atoms: C2*_12  and  O2*_22
REMARK    4  A    between atoms: C3*_14  and  O3*_21
REMARK    5  A    between atoms: C4*_16  and  C5*_19
REMARK    6  A    between atoms: C5*_19  and  O5*_20
REMARK                            x       y       z     vdW  Elec       q    Type
REMARK                         _______ _______ _______ _____ _____    ______ ____
ROOT
ATOM      1  C2    A A   1       9.109  -5.358  25.027  0.00  0.00    +0.225 A 
ATOM      2  N3    A A   1       8.984  -4.328  24.159  0.00  0.00    -0.216 NA
ATOM      3  C4    A A   1       7.978  -3.517  24.531  0.00  0.00    +0.167 A 
ATOM      4  N9    A A   1       7.568  -2.355  23.930  0.00  0.00    -0.286 N 
ATOM      5  C8    A A   1       6.483  -1.896  24.623  0.00  0.00    +0.203 A 
ATOM      6  N7    A A   1       6.213  -2.645  25.672  0.00  0.00    -0.231 NA
ATOM      7  C5    A A   1       7.158  -3.651  25.636  0.00  0.00    +0.147 A 
ATOM      8  C6    A A   1       7.423  -4.731  26.496  0.00  0.00    +0.147 A 
ATOM      9  N1    A A   1       8.402  -5.599  26.153  0.00  0.00    -0.219 NA
ENDROOT
BRANCH   4  10
ATOM     10  C1*   A A   1       8.234  -1.739  22.795  0.00  0.00    +0.253 C 
ATOM     11  O4*   A A   1       7.609  -0.481  22.460  0.00  0.00    -0.346 OA
ATOM     12  C4*   A A   1       8.442   0.597  22.953  0.00  0.00    +0.177 C 
ATOM     13  C3*   A A   1       9.702  -0.022  23.567  0.00  0.00    +0.178 C 
ATOM     14  C2*   A A   1       9.717  -1.450  23.044  0.00  0.00    +0.195 C 
BRANCH  13  15
ATOM     15  O3*   A A   1       9.547  -0.043  24.992  0.00  0.00    -0.386 OA
ATOM     16  H3*   A A   1       9.189   0.822  25.265  0.00  0.00    +0.210 HD
ENDBRANCH  13  15
BRANCH  14  17
ATOM     17  O2*   A A   1      10.461  -1.521  21.824  0.00  0.00    -0.385 OA
ATOM     18  H2*   A A   1      10.399  -2.437  21.494  0.00  0.00    +0.210 HD
ENDBRANCH  14  17
BRANCH  12  19
ATOM     19  C5*   A A   1       8.726   1.584  21.814  0.00  0.00    +0.190 C 
BRANCH  19  20
ATOM     20  O5*   A A   1      10.115   1.760  21.571  0.00  0.00    -0.392 OA
ATOM     21  H5*   A A   1      10.411   1.004  21.033  0.00  0.00    +0.210 HD
ENDBRANCH  19  20
ENDBRANCH  12  19
ENDBRANCH   4  10
BRANCH   8  22
ATOM     22  N6    A A   1       6.727  -4.945  27.677  0.00  0.00    -0.341 N 
ATOM     23  H61   A A   1       7.285  -5.374  28.405  0.00  0.00    +0.144 HD
ATOM     24  H62   A A   1       6.124  -4.175  27.926  0.00  0.00    +0.144 HD
ENDBRANCH   8  22
TORSDOF 6
ENDMDL
MODEL 7
REMARK VINA RESULT:      -6.0      3.037      5.786
REMARK  Name = 
REMARK  6 active torsions:
REMARK  status: ('A' for Active; 'I' for Inactive)
REMARK    1  A    between atoms: C6_3  and  N6_23
REMARK    2  A    between atoms: N9_7  and  C1*_10
REMARK    3  A    between atoms: C2*_12  and  O2*_22
REMARK    4  A    between atoms: C3*_14  and  O3*_21
REMARK    5  A    between atoms: C4*_16  and  C5*_19
REMARK    6  A    between atoms: C5*_19  and  O5*_20
REMARK                            x       y       z     vdW  Elec       q    Type
REMARK                         _______ _______ _______ _____ _____    ______ ____
ROOT
ATOM      1  C2    A A   1       8.090  -4.844  26.815  0.00  0.00    +0.225 A 
ATOM      2  N3    A A   1       8.695  -3.869  26.099  0.00  0.00    -0.216 NA
ATOM      3  C4    A A   1       8.144  -3.770  24.877  0.00  0.00    +0.167 A 
ATOM      4  N9    A A   1       8.458  -2.880  23.881  0.00  0.00    -0.286 N 
ATOM      5  C8    A A   1       7.676  -3.180  22.801  0.00  0.00    +0.203 A 
ATOM      6  N7    A A   1       6.828  -4.155  23.060  0.00  0.00    -0.231 NA
ATOM      7  C5    A A   1       7.098  -4.516  24.365  0.00  0.00    +0.147 A 
ATOM      8  C6    A A   1       6.513  -5.461  25.225  0.00  0.00    +0.147 A 
ATOM      9  N1    A A   1       7.049  -5.628  26.455  0.00  0.00    -0.219 NA
ENDROOT
BRANCH   4  10
ATOM     10  C1*   A A   1       9.420  -1.800  24.020  0.00  0.00    +0.253 C 
ATOM     11  O4*   A A   1       9.757  -1.251  22.728  0.00  0.00    -0.346 OA
ATOM     12  C4*   A A   1       9.057   0.006  22.561  0.00  0.00    +0.177 C 
ATOM     13  C3*   A A   1       8.294   0.297  23.857  0.00  0.00    +0.178 C 
ATOM     14  C2*   A A   1       8.912  -0.640  24.881  0.00  0.00    +0.195 C 
BRANCH  13  15
ATOM     15  O3*   A A   1       6.919  -0.057  23.662  0.00  0.00    -0.386 OA
ATOM     16  H3*   A A   1       6.374   0.710  23.915  0.00  0.00    +0.210 HD
ENDBRANCH  13  15
BRANCH  14  17
ATOM     17  O2*   A A   1       9.997   0.007  25.553  0.00  0.00    -0.385 OA
ATOM     18  H2*   A A   1      10.765  -0.005  24.951  0.00  0.00    +0.210 HD
ENDBRANCH  14  17
BRANCH  12  19
ATOM     19  C5*   A A   1      10.057   1.100  22.169  0.00  0.00    +0.190 C 
BRANCH  19  20
ATOM     20  O5*   A A   1       9.478   2.110  21.355  0.00  0.00    -0.392 OA
ATOM     21  H5*   A A   1       8.546   2.199  21.625  0.00  0.00    +0.210 HD
ENDBRANCH  19  20
ENDBRANCH  12  19
ENDBRANCH   4  10
BRANCH   8  22
ATOM     22  N6    A A   1       5.413  -6.227  24.869  0.00  0.00    -0.341 N 
ATOM     23  H61   A A   1       4.550  -5.928  25.307  0.00  0.00    +0.144 HD
ATOM     24  H62   A A   1       5.395  -6.463  23.888  0.00  0.00    +0.144 HD
ENDBRANCH   8  22
TORSDOF 6
ENDMDL
MODEL 8
REMARK VINA RESULT:      -5.9      1.718      2.680
REMARK  Name = 
REMARK  6 active torsions:
REMARK  status: ('A' for Active; 'I' for Inactive)
REMARK    1  A    between atoms: C6_3  and  N6_23
REMARK    2  A    between atoms: N9_7  and  C1*_10
REMARK    3  A    between atoms: C2*_12  and  O2*_22
REMARK    4  A    between atoms: C3*_14  and  O3*_21
REMARK    5  A    between atoms: C4*_16  and  C5*_19
REMARK    6  A    between atoms: C5*_19  and  O5*_20
REMARK                            x       y       z     vdW  Elec       q    Type
REMARK                         _______ _______ _______ _____ _____    ______ ____
ROOT
ATOM      1  C2    A A   1       6.872   1.340  22.408  0.00  0.00    +0.225 A 
ATOM      2  N3    A A   1       6.862   0.099  22.945  0.00  0.00    -0.216 NA
ATOM      3  C4    A A   1       8.104  -0.415  22.969  0.00  0.00    +0.167 A 
ATOM      4  N9    A A   1       8.503  -1.628  23.468  0.00  0.00    -0.286 N 
ATOM      5  C8    A A   1       9.845  -1.746  23.235  0.00  0.00    +0.203 A 
ATOM      6  N7    A A   1      10.348  -0.660  22.685  0.00  0.00    -0.231 NA
ATOM      7  C5    A A   1       9.270   0.189  22.535  0.00  0.00    +0.147 A 
ATOM      8  C6    A A   1       9.161   1.503  22.049  0.00  0.00    +0.147 A 
ATOM      9  N1    A A   1       7.931   2.058  21.970  0.00  0.00    -0.219 NA
ENDROOT
BRANCH   4  10
ATOM     10  C1*   A A   1       7.627  -2.560  24.159  0.00  0.00    +0.253 C 
ATOM     11  O4*   A A   1       8.376  -3.693  24.648  0.00  0.00    -0.346 OA
ATOM     12  C4*   A A   1       8.577  -3.535  26.075  0.00  0.00    +0.177 C 
ATOM     13  C3*   A A   1       7.845  -2.263  26.516  0.00  0.00    +0.178 C 
ATOM     14  C2*   A A   1       6.910  -1.941  25.362  0.00  0.00    +0.195 C 
BRANCH  13  15
ATOM     15  O3*   A A   1       8.809  -1.210  26.649  0.00  0.00    -0.386 OA
ATOM     16  H3*   A A   1       9.239  -1.308  27.519  0.00  0.00    +0.210 HD
ENDBRANCH  13  15
BRANCH  14  17
ATOM     17  O2*   A A   1       5.638  -2.563  25.569  0.00  0.00    -0.385 OA
ATOM     18  H2*   A A   1       5.668  -3.015  26.433  0.00  0.00    +0.210 HD
ENDBRANCH  14  17
BRANCH  12  19
ATOM     19  C5*   A A   1       8.112  -4.803  26.800  0.00  0.00    +0.190 C 
BRANCH  19  20
ATOM     20  O5*   A A   1       8.682  -5.987  26.261  0.00  0.00    -0.392 OA
ATOM     21  H5*   A A   1       8.842  -6.594  27.006  0.00  0.00    +0.210 HD
ENDBRANCH  19  20
ENDBRANCH  12  19
ENDBRANCH   4  10
BRANCH   8  22
ATOM     22  N6    A A   1      10.257   2.253  21.648  0.00  0.00    -0.341 N 
ATOM     23  H61   A A   1      10.938   1.726  21.115  0.00  0.00    +0.144 HD
ATOM     24  H62   A A   1      10.007   3.177  21.326  0.00  0.00    +0.144 HD
ENDBRANCH   8  22
TORSDOF 6
ENDMDL
MODEL 9
REMARK VINA RESULT:      -5.9      3.790      5.330
REMARK  Name = 
REMARK  6 active torsions:
REMARK  status: ('A' for Active; 'I' for Inactive)
REMARK    1  A    between atoms: C6_3  and  N6_23
REMARK    2  A    between atoms: N9_7  and  C1*_10
REMARK    3  A    between atoms: C2*_12  and  O2*_22
REMARK    4  A    between atoms: C3*_14  and  O3*_21
REMARK    5  A    between atoms: C4*_16  and  C5*_19
REMARK    6  A    between atoms: C5*_19  and  O5*_20
REMARK                            x       y       z     vdW  Elec       q    Type
REMARK                         _______ _______ _______ _____ _____    ______ ____
ROOT
ATOM      1  C2    A A   1       9.515   5.758  23.778  0.00  0.00    +0.225 A 
ATOM      2  N3    A A   1       9.427   4.430  24.019  0.00  0.00    -0.216 NA
ATOM      3  C4    A A   1       8.380   3.900  23.363  0.00  0.00    +0.167 A 
ATOM      4  N9    A A   1       7.987   2.587  23.328  0.00  0.00    -0.286 N 
ATOM      5  C8    A A   1       6.846   2.521  22.577  0.00  0.00    +0.203 A 
ATOM      6  N7    A A   1       6.521   3.691  22.067  0.00  0.00    -0.231 NA
ATOM      7  C5    A A   1       7.489   4.558  22.535  0.00  0.00    +0.147 A 
ATOM      8  C6    A A   1       7.717   5.927  22.317  0.00  0.00    +0.147 A 
ATOM      9  N1    A A   1       8.737   6.521  22.978  0.00  0.00    -0.219 NA
ENDROOT
BRANCH   4  10
ATOM     10  C1*   A A   1       8.716   1.495  23.950  0.00  0.00    +0.253 C 
ATOM     11  O4*   A A   1       7.941   0.277  23.907  0.00  0.00    -0.346 OA
ATOM     12  C4*   A A   1       8.471  -0.572  22.859  0.00  0.00    +0.177 C 
ATOM     13  C3*   A A   1       9.696   0.125  22.260  0.00  0.00    +0.178 C 
ATOM     14  C2*   A A   1      10.058   1.198  23.274  0.00  0.00    +0.195 C 
BRANCH  13  15
ATOM     15  O3*   A A   1       9.305   0.751  21.031  0.00  0.00    -0.386 OA
ATOM     16  H3*   A A   1       8.601   0.208  20.631  0.00  0.00    +0.210 HD
ENDBRANCH  13  15
BRANCH  14  17
ATOM     17  O2*   A A   1      11.000   0.685  24.221  0.00  0.00    -0.385 OA
ATOM     18  H2*   A A   1      11.006  -0.287  24.135  0.00  0.00    +0.210 HD
ENDBRANCH  14  17
BRANCH  12  19
ATOM     19  C5*   A A   1       8.764  -1.965  23.428  0.00  0.00    +0.190 C 
BRANCH  19  20
ATOM     20  O5*   A A   1      10.155  -2.232  23.543  0.00  0.00    -0.392 OA
ATOM     21  H5*   A A   1      10.247  -3.056  24.056  0.00  0.00    +0.210 HD
ENDBRANCH  19  20
ENDBRANCH  12  19
ENDBRANCH   4  10
BRANCH   8  22
ATOM     22  N6    A A   1       6.946   6.694  21.456  0.00  0.00    -0.341 N 
ATOM     23  H61   A A   1       6.151   7.133  21.903  0.00  0.00    +0.144 HD
ATOM     24  H62   A A   1       7.499   7.243  20.813  0.00  0.00    +0.144 HD
ENDBRANCH   8  22
TORSDOF 6
ENDMDL
