MODEL 1
REMARK VINA RESULT:      -6.5      0.000      0.000
REMARK  Name = 
REMARK  27 active torsions:
REMARK  status: ('A' for Active; 'I' for Inactive)
REMARK    1  A    between atoms: C_1  and  C_2
REMARK    2  A    between atoms: C_2  and  C_3
REMARK    3  A    between atoms: C_2  and  C_4
REMARK    4  A    between atoms: C_2  and  C_5
REMARK    5  A    between atoms: C_5  and  C_7
REMARK    6  A    between atoms: C_5  and  N_48
REMARK    7  A    between atoms: N_9  and  N_10
REMARK    8  A    between atoms: N_10  and  C_11
REMARK    9  A    between atoms: N_10  and  C_24
REMARK   10  A    between atoms: C_11  and  C_12
REMARK   11  A    between atoms: C_15  and  C_18
REMARK   12  A    between atoms: C_24  and  C_25
REMARK   13  A    between atoms: C_25  and  C_26
REMARK   14  A    between atoms: C_25  and  O_47
REMARK   15  A    between atoms: C_26  and  C_27
REMARK   16  A    between atoms: C_26  and  N_34
REMARK   17  A    between atoms: C_27  and  C_28
REMARK   18  A    between atoms: C_35  and  C_37
REMARK   19  A    between atoms: C_37  and  C_38
REMARK   20  A    between atoms: C_37  and  N_42
REMARK   21  A    between atoms: C_38  and  C_39
REMARK   22  A    between atoms: C_38  and  C_40
REMARK   23  A    between atoms: C_38  and  C_41
REMARK   24  A    between atoms: C_43  and  O_45
REMARK   25  A    between atoms: O_45  and  C_46
REMARK   26  A    between atoms: C_49  and  O_51
REMARK   27  A    between atoms: O_51  and  C_52
REMARK                            x       y       z     vdW  Elec       q    Type
REMARK                         _______ _______ _______ _____ _____    ______ ____
ROOT
ATOM      1  N   UNL     1       5.193  -0.388  25.725  0.00  0.00    -0.220 NA
ENDROOT
BRANCH   1   3
ATOM      2  C   UNL     1       4.208   1.656  26.523  0.00  0.00    +0.248 C 
ATOM      3  N   UNL     1       5.346   0.863  26.347  0.00  0.00    -0.246 N 
ATOM      4  H   UNL     1       6.253   1.328  26.287  0.00  0.00    +0.169 HD
ATOM      5  O   UNL     1       3.075   1.267  26.236  0.00  0.00    -0.272 OA
BRANCH   2   6
ATOM      6  C   UNL     1       4.491   3.132  26.889  0.00  0.00    +0.169 C 
BRANCH   6   8
ATOM      7  C   UNL     1       3.246   5.147  25.914  0.00  0.00    +0.013 C 
ATOM      8  C   UNL     1       4.323   4.074  25.637  0.00  0.00    -0.011 C 
ATOM      9  C   UNL     1       5.642   4.811  25.334  0.00  0.00    +0.013 C 
ATOM     10  C   UNL     1       3.911   3.312  24.368  0.00  0.00    +0.013 C 
ENDBRANCH   6   8
BRANCH   6  11
ATOM     11  N   UNL     1       5.787   3.296  27.563  0.00  0.00    -0.269 N 
ATOM     12  H   UNL     1       6.657   3.107  27.088  0.00  0.00    +0.153 HD
ATOM     13  C   UNL     1       5.914   3.307  28.920  0.00  0.00    +0.401 C 
ATOM     14  O   UNL     1       4.997   3.299  29.728  0.00  0.00    -0.226 OA
BRANCH  13  15
ATOM     15  O   UNL     1       7.232   3.359  29.237  0.00  0.00    -0.454 OA
ATOM     16  C   UNL     1       7.628   2.443  30.263  0.00  0.00    +0.282 C 
ENDBRANCH  13  15
ENDBRANCH   6  11
ENDBRANCH   2   6
ENDBRANCH   1   3
BRANCH   1  17
ATOM     17  C   UNL     1       5.336  -1.510  26.663  0.00  0.00    +0.139 C 
BRANCH  17  18
ATOM     18  C   UNL     1       4.149  -2.506  26.911  0.00  0.00    +0.151 C 
BRANCH  18  19
ATOM     19  O   UNL     1       4.240  -2.902  28.305  0.00  0.00    -0.389 OA
ATOM     20  H   UNL     1       4.578  -2.145  28.810  0.00  0.00    +0.210 HD
ENDBRANCH  18  19
BRANCH  18  21
ATOM     21  C   UNL     1       3.993  -3.793  26.013  0.00  0.00    +0.107 C 
BRANCH  21  22
ATOM     22  N   UNL     1       5.017  -3.808  24.903  0.00  0.00    -0.308 N 
ATOM     23  H   UNL     1       4.698  -3.567  23.964  0.00  0.00    +0.149 HD
ATOM     24  C   UNL     1       6.029  -4.757  24.907  0.00  0.00    +0.234 C 
ATOM     25  O   UNL     1       6.060  -5.593  25.811  0.00  0.00    -0.274 OA
BRANCH  24  26
ATOM     26  C   UNL     1       7.104  -4.705  23.727  0.00  0.00    +0.167 C 
BRANCH  26  27
ATOM     27  C   UNL     1       6.450  -5.069  22.331  0.00  0.00    -0.011 C 
ATOM     28  C   UNL     1       6.015  -3.727  21.704  0.00  0.00    +0.013 C 
ATOM     29  C   UNL     1       5.154  -5.925  22.386  0.00  0.00    +0.013 C 
ATOM     30  C   UNL     1       7.393  -5.899  21.428  0.00  0.00    +0.013 C 
ENDBRANCH  26  27
BRANCH  26  31
ATOM     31  N   UNL     1       7.837  -3.445  23.676  0.00  0.00    -0.269 N 
ATOM     32  H   UNL     1       7.617  -2.766  22.950  0.00  0.00    +0.153 HD
ATOM     33  C   UNL     1       9.158  -3.389  24.015  0.00  0.00    +0.401 C 
ATOM     34  O   UNL     1       9.749  -4.287  24.603  0.00  0.00    -0.226 OA
BRANCH  33  35
ATOM     35  O   UNL     1       9.708  -2.253  23.536  0.00  0.00    -0.454 OA
ATOM     36  C   UNL     1       9.181  -1.784  22.286  0.00  0.00    +0.282 C 
ENDBRANCH  33  35
ENDBRANCH  26  31
ENDBRANCH  24  26
ENDBRANCH  21  22
BRANCH  21  37
ATOM     37  C   UNL     1       2.557  -3.927  25.442  0.00  0.00    +0.060 C 
BRANCH  37  38
ATOM     38  C   UNL     1       2.325  -5.211  24.672  0.00  0.00    -0.046 A 
ATOM     39  C   UNL     1       2.652  -6.447  25.249  0.00  0.00    +0.004 A 
ATOM     40  C   UNL     1       2.343  -7.640  24.593  0.00  0.00    +0.000 A 
ATOM     41  C   UNL     1       1.714  -7.609  23.351  0.00  0.00    +0.000 A 
ATOM     42  C   UNL     1       1.416  -6.385  22.753  0.00  0.00    +0.000 A 
ATOM     43  C   UNL     1       1.727  -5.191  23.405  0.00  0.00    +0.004 A 
ENDBRANCH  37  38
ENDBRANCH  21  37
ENDBRANCH  18  21
ENDBRANCH  17  18
ENDBRANCH   1  17
BRANCH   1  44
ATOM     44  C   UNL     1       6.049  -0.514  24.506  0.00  0.00    +0.140 C 
BRANCH  44  45
ATOM     45  C   UNL     1       7.111   0.560  24.308  0.00  0.00    -0.032 A 
ATOM     46  C   UNL     1       8.313   0.593  25.034  0.00  0.00    +0.005 A 
ATOM     47  C   UNL     1       9.274   1.593  24.808  0.00  0.00    +0.010 A 
ATOM     48  C   UNL     1       9.040   2.616  23.881  0.00  0.00    +0.000 A 
ATOM     49  C   UNL     1       7.841   2.562  23.149  0.00  0.00    +0.010 A 
ATOM     50  C   UNL     1       6.891   1.568  23.365  0.00  0.00    +0.005 A 
BRANCH  48  51
ATOM     51  C   UNL     1       9.972   3.738  23.671  0.00  0.00    +0.071 A 
ATOM     52  N   UNL     1       9.516   4.989  23.930  0.00  0.00    -0.255 NA
ATOM     53  C   UNL     1      10.419   5.998  23.872  0.00  0.00    +0.111 A 
ATOM     54  C   UNL     1      11.761   5.829  23.564  0.00  0.00    +0.020 A 
ATOM     55  C   UNL     1      12.203   4.552  23.254  0.00  0.00    +0.004 A 
ATOM     56  C   UNL     1      11.298   3.501  23.292  0.00  0.00    +0.028 A 
ENDBRANCH  48  51
ENDBRANCH  44  45
ENDBRANCH   1  44
TORSDOF 19
ENDMDL
MODEL 2
REMARK VINA RESULT:      -6.2      1.482      2.527
REMARK  Name = 
REMARK  27 active torsions:
REMARK  status: ('A' for Active; 'I' for Inactive)
REMARK    1  A    between atoms: C_1  and  C_2
REMARK    2  A    between atoms: C_2  and  C_3
REMARK    3  A    between atoms: C_2  and  C_4
REMARK    4  A    between atoms: C_2  and  C_5
REMARK    5  A    between atoms: C_5  and  C_7
REMARK    6  A    between atoms: C_5  and  N_48
REMARK    7  A    between atoms: N_9  and  N_10
REMARK    8  A    between atoms: N_10  and  C_11
REMARK    9  A    between atoms: N_10  and  C_24
REMARK   10  A    between atoms: C_11  and  C_12
REMARK   11  A    between atoms: C_15  and  C_18
REMARK   12  A    between atoms: C_24  and  C_25
REMARK   13  A    between atoms: C_25  and  C_26
REMARK   14  A    between atoms: C_25  and  O_47
REMARK   15  A    between atoms: C_26  and  C_27
REMARK   16  A    between atoms: C_26  and  N_34
REMARK   17  A    between atoms: C_27  and  C_28
REMARK   18  A    between atoms: C_35  and  C_37
REMARK   19  A    between atoms: C_37  and  C_38
REMARK   20  A    between atoms: C_37  and  N_42
REMARK   21  A    between atoms: C_38  and  C_39
REMARK   22  A    between atoms: C_38  and  C_40
REMARK   23  A    between atoms: C_38  and  C_41
REMARK   24  A    between atoms: C_43  and  O_45
REMARK   25  A    between atoms: O_45  and  C_46
REMARK   26  A    between atoms: C_49  and  O_51
REMARK   27  A    between atoms: O_51  and  C_52
REMARK                            x       y       z     vdW  Elec       q    Type
REMARK                         _______ _______ _______ _____ _____    ______ ____
ROOT
ATOM      1  N   UNL     1       5.083  -0.667  25.726  0.00  0.00    -0.220 NA
ENDROOT
BRANCH   1   3
ATOM      2  C   UNL     1       3.778   1.133  26.643  0.00  0.00    +0.248 C 
ATOM      3  N   UNL     1       5.014   0.655  26.198  0.00  0.00    -0.246 N 
ATOM      4  H   UNL     1       5.695   1.332  25.850  0.00  0.00    +0.169 HD
ATOM      5  O   UNL     1       2.776   0.419  26.719  0.00  0.00    -0.272 OA
BRANCH   2   6
ATOM      6  C   UNL     1       3.695   2.668  26.818  0.00  0.00    +0.169 C 
BRANCH   6   8
ATOM      7  C   UNL     1       4.009   4.467  28.614  0.00  0.00    +0.013 C 
ATOM      8  C   UNL     1       3.441   3.059  28.323  0.00  0.00    -0.011 C 
ATOM      9  C   UNL     1       1.931   3.099  28.624  0.00  0.00    +0.013 C 
ATOM     10  C   UNL     1       4.090   2.078  29.312  0.00  0.00    +0.013 C 
ENDBRANCH   6   8
BRANCH   6  11
ATOM     11  N   UNL     1       2.729   3.278  25.893  0.00  0.00    -0.269 N 
ATOM     12  H   UNL     1       1.798   3.529  26.192  0.00  0.00    +0.153 HD
ATOM     13  C   UNL     1       2.844   3.181  24.539  0.00  0.00    +0.401 C 
ATOM     14  O   UNL     1       3.785   2.694  23.931  0.00  0.00    -0.226 OA
BRANCH  13  15
ATOM     15  O   UNL     1       1.751   3.742  23.964  0.00  0.00    -0.454 OA
ATOM     16  C   UNL     1       1.605   3.454  22.570  0.00  0.00    +0.282 C 
ENDBRANCH  13  15
ENDBRANCH   6  11
ENDBRANCH   2   6
ENDBRANCH   1   3
BRANCH   1  17
ATOM     17  C   UNL     1       5.394  -1.633  26.789  0.00  0.00    +0.139 C 
BRANCH  17  18
ATOM     18  C   UNL     1       4.364  -2.751  27.184  0.00  0.00    +0.151 C 
BRANCH  18  19
ATOM     19  O   UNL     1       4.779  -3.237  28.487  0.00  0.00    -0.389 OA
ATOM     20  H   UNL     1       5.381  -2.580  28.875  0.00  0.00    +0.210 HD
ENDBRANCH  18  19
BRANCH  18  21
ATOM     21  C   UNL     1       4.119  -3.977  26.225  0.00  0.00    +0.107 C 
BRANCH  21  22
ATOM     22  N   UNL     1       5.097  -3.971  25.073  0.00  0.00    -0.308 N 
ATOM     23  H   UNL     1       4.741  -3.713  24.152  0.00  0.00    +0.149 HD
ATOM     24  C   UNL     1       6.108  -4.920  25.018  0.00  0.00    +0.234 C 
ATOM     25  O   UNL     1       6.176  -5.772  25.904  0.00  0.00    -0.274 OA
BRANCH  24  26
ATOM     26  C   UNL     1       7.134  -4.845  23.796  0.00  0.00    +0.167 C 
BRANCH  26  27
ATOM     27  C   UNL     1       6.406  -5.097  22.412  0.00  0.00    -0.011 C 
ATOM     28  C   UNL     1       7.444  -5.797  21.509  0.00  0.00    +0.013 C 
ATOM     29  C   UNL     1       5.979  -3.828  21.624  0.00  0.00    +0.013 C 
ATOM     30  C   UNL     1       5.086  -5.888  22.567  0.00  0.00    +0.013 C 
ENDBRANCH  26  27
BRANCH  26  31
ATOM     31  N   UNL     1       7.922  -3.617  23.785  0.00  0.00    -0.269 N 
ATOM     32  H   UNL     1       7.794  -2.947  23.030  0.00  0.00    +0.153 HD
ATOM     33  C   UNL     1       9.211  -3.608  24.236  0.00  0.00    +0.401 C 
ATOM     34  O   UNL     1       9.710  -4.516  24.890  0.00  0.00    -0.226 OA
BRANCH  33  35
ATOM     35  O   UNL     1       9.847  -2.507  23.785  0.00  0.00    -0.454 OA
ATOM     36  C   UNL     1       9.314  -1.925  22.586  0.00  0.00    +0.282 C 
ENDBRANCH  33  35
ENDBRANCH  26  31
ENDBRANCH  24  26
ENDBRANCH  21  22
BRANCH  21  37
ATOM     37  C   UNL     1       2.658  -4.022  25.707  0.00  0.00    +0.060 C 
BRANCH  37  38
ATOM     38  C   UNL     1       2.356  -5.223  24.834  0.00  0.00    -0.046 A 
ATOM     39  C   UNL     1       2.650  -6.516  25.289  0.00  0.00    +0.004 A 
ATOM     40  C   UNL     1       2.278  -7.634  24.539  0.00  0.00    +0.000 A 
ATOM     41  C   UNL     1       1.619  -7.468  23.324  0.00  0.00    +0.000 A 
ATOM     42  C   UNL     1       1.354  -6.186  22.845  0.00  0.00    +0.000 A 
ATOM     43  C   UNL     1       1.727  -5.067  23.591  0.00  0.00    +0.004 A 
ENDBRANCH  37  38
ENDBRANCH  21  37
ENDBRANCH  18  21
ENDBRANCH  17  18
ENDBRANCH   1  17
BRANCH   1  44
ATOM     44  C   UNL     1       5.970  -0.787  24.529  0.00  0.00    +0.140 C 
BRANCH  44  45
ATOM     45  C   UNL     1       7.004   0.315  24.337  0.00  0.00    -0.032 A 
ATOM     46  C   UNL     1       8.136   0.457  25.156  0.00  0.00    +0.005 A 
ATOM     47  C   UNL     1       9.074   1.479  24.934  0.00  0.00    +0.010 A 
ATOM     48  C   UNL     1       8.883   2.418  23.911  0.00  0.00    +0.000 A 
ATOM     49  C   UNL     1       7.756   2.255  23.088  0.00  0.00    +0.010 A 
ATOM     50  C   UNL     1       6.829   1.238  23.301  0.00  0.00    +0.005 A 
BRANCH  48  51
ATOM     51  C   UNL     1       9.787   3.561  23.693  0.00  0.00    +0.071 A 
ATOM     52  N   UNL     1       9.291   4.803  23.917  0.00  0.00    -0.255 NA
ATOM     53  C   UNL     1      10.166   5.837  23.851  0.00  0.00    +0.111 A 
ATOM     54  C   UNL     1      11.517   5.699  23.569  0.00  0.00    +0.020 A 
ATOM     55  C   UNL     1      12.000   4.430  23.294  0.00  0.00    +0.004 A 
ATOM     56  C   UNL     1      11.124   3.354  23.340  0.00  0.00    +0.028 A 
ENDBRANCH  48  51
ENDBRANCH  44  45
ENDBRANCH   1  44
TORSDOF 19
ENDMDL
MODEL 3
REMARK VINA RESULT:      -6.2      2.406     10.056
REMARK  Name = 
REMARK  27 active torsions:
REMARK  status: ('A' for Active; 'I' for Inactive)
REMARK    1  A    between atoms: C_1  and  C_2
REMARK    2  A    between atoms: C_2  and  C_3
REMARK    3  A    between atoms: C_2  and  C_4
REMARK    4  A    between atoms: C_2  and  C_5
REMARK    5  A    between atoms: C_5  and  C_7
REMARK    6  A    between atoms: C_5  and  N_48
REMARK    7  A    between atoms: N_9  and  N_10
REMARK    8  A    between atoms: N_10  and  C_11
REMARK    9  A    between atoms: N_10  and  C_24
REMARK   10  A    between atoms: C_11  and  C_12
REMARK   11  A    between atoms: C_15  and  C_18
REMARK   12  A    between atoms: C_24  and  C_25
REMARK   13  A    between atoms: C_25  and  C_26
REMARK   14  A    between atoms: C_25  and  O_47
REMARK   15  A    between atoms: C_26  and  C_27
REMARK   16  A    between atoms: C_26  and  N_34
REMARK   17  A    between atoms: C_27  and  C_28
REMARK   18  A    between atoms: C_35  and  C_37
REMARK   19  A    between atoms: C_37  and  C_38
REMARK   20  A    between atoms: C_37  and  N_42
REMARK   21  A    between atoms: C_38  and  C_39
REMARK   22  A    between atoms: C_38  and  C_40
REMARK   23  A    between atoms: C_38  and  C_41
REMARK   24  A    between atoms: C_43  and  O_45
REMARK   25  A    between atoms: O_45  and  C_46
REMARK   26  A    between atoms: C_49  and  O_51
REMARK   27  A    between atoms: O_51  and  C_52
REMARK                            x       y       z     vdW  Elec       q    Type
REMARK                         _______ _______ _______ _____ _____    ______ ____
ROOT
ATOM      1  N   UNL     1       8.122  -1.991  23.884  0.00  0.00    -0.220 NA
ENDROOT
BRANCH   1   3
ATOM      2  C   UNL     1       7.448  -2.586  26.115  0.00  0.00    +0.248 C 
ATOM      3  N   UNL     1       7.118  -2.051  24.866  0.00  0.00    -0.246 N 
ATOM      4  H   UNL     1       6.144  -2.098  24.564  0.00  0.00    +0.169 HD
ATOM      5  O   UNL     1       8.595  -2.923  26.413  0.00  0.00    -0.272 OA
BRANCH   2   6
ATOM      6  C   UNL     1       6.239  -2.936  27.015  0.00  0.00    +0.169 C 
BRANCH   6   8
ATOM      7  C   UNL     1       5.984  -4.939  28.591  0.00  0.00    +0.013 C 
ATOM      8  C   UNL     1       6.030  -4.495  27.111  0.00  0.00    -0.011 C 
ATOM      9  C   UNL     1       4.692  -4.902  26.464  0.00  0.00    +0.013 C 
ATOM     10  C   UNL     1       7.147  -5.290  26.416  0.00  0.00    +0.013 C 
ENDBRANCH   6   8
BRANCH   6  11
ATOM     11  N   UNL     1       5.023  -2.216  26.612  0.00  0.00    -0.269 N 
ATOM     12  H   UNL     1       4.813  -2.035  25.642  0.00  0.00    +0.153 HD
ATOM     13  C   UNL     1       4.328  -1.411  27.465  0.00  0.00    +0.401 C 
ATOM     14  O   UNL     1       4.544  -1.273  28.659  0.00  0.00    -0.226 OA
BRANCH  13  15
ATOM     15  O   UNL     1       3.329  -0.802  26.777  0.00  0.00    -0.454 OA
ATOM     16  C   UNL     1       2.017  -1.079  27.276  0.00  0.00    +0.282 C 
ENDBRANCH  13  15
ENDBRANCH   6  11
ENDBRANCH   2   6
ENDBRANCH   1   3
BRANCH   1  17
ATOM     17  C   UNL     1       8.443  -0.615  23.484  0.00  0.00    +0.139 C 
BRANCH  17  18
ATOM     18  C   UNL     1       7.477   0.571  23.838  0.00  0.00    +0.151 C 
BRANCH  18  19
ATOM     19  O   UNL     1       6.376   0.488  22.896  0.00  0.00    -0.389 OA
ATOM     20  H   UNL     1       6.750   0.425  22.002  0.00  0.00    +0.210 HD
ENDBRANCH  18  19
BRANCH  18  21
ATOM     21  C   UNL     1       8.019   2.051  23.877  0.00  0.00    +0.107 C 
BRANCH  21  22
ATOM     22  N   UNL     1       7.033   3.007  23.247  0.00  0.00    -0.308 N 
ATOM     23  H   UNL     1       7.338   3.521  22.420  0.00  0.00    +0.149 HD
ATOM     24  C   UNL     1       6.163   3.732  24.048  0.00  0.00    +0.234 C 
ATOM     25  O   UNL     1       6.226   3.599  25.271  0.00  0.00    -0.274 OA
BRANCH  24  26
ATOM     26  C   UNL     1       5.120   4.702  23.327  0.00  0.00    +0.167 C 
BRANCH  26  27
ATOM     27  C   UNL     1       5.773   6.104  22.985  0.00  0.00    -0.011 C 
ATOM     28  C   UNL     1       4.669   6.926  22.285  0.00  0.00    +0.013 C 
ATOM     29  C   UNL     1       6.955   6.079  21.976  0.00  0.00    +0.013 C 
ATOM     30  C   UNL     1       6.373   6.803  24.228  0.00  0.00    +0.013 C 
ENDBRANCH  26  27
BRANCH  26  31
ATOM     31  N   UNL     1       4.485   4.095  22.161  0.00  0.00    -0.269 N 
ATOM     32  H   UNL     1       4.479   4.597  21.276  0.00  0.00    +0.153 HD
ATOM     33  C   UNL     1       3.366   3.324  22.295  0.00  0.00    +0.401 C 
ATOM     34  O   UNL     1       2.966   2.887  23.367  0.00  0.00    -0.226 OA
BRANCH  33  35
ATOM     35  O   UNL     1       2.750   3.198  21.101  0.00  0.00    -0.454 OA
ATOM     36  C   UNL     1       1.387   2.749  21.148  0.00  0.00    +0.282 C 
ENDBRANCH  33  35
ENDBRANCH  26  31
ENDBRANCH  24  26
ENDBRANCH  21  22
BRANCH  21  37
ATOM     37  C   UNL     1       9.412   2.172  23.206  0.00  0.00    +0.060 C 
BRANCH  37  38
ATOM     38  C   UNL     1      10.137   3.461  23.535  0.00  0.00    -0.046 A 
ATOM     39  C   UNL     1      11.486   3.619  23.186  0.00  0.00    +0.004 A 
ATOM     40  C   UNL     1      12.133   4.840  23.388  0.00  0.00    +0.000 A 
ATOM     41  C   UNL     1      11.441   5.910  23.950  0.00  0.00    +0.000 A 
ATOM     42  C   UNL     1      10.110   5.753  24.334  0.00  0.00    +0.000 A 
ATOM     43  C   UNL     1       9.462   4.532  24.136  0.00  0.00    +0.004 A 
ENDBRANCH  37  38
ENDBRANCH  21  37
ENDBRANCH  18  21
ENDBRANCH  17  18
ENDBRANCH   1  17
BRANCH   1  44
ATOM     44  C   UNL     1       7.831  -2.898  22.732  0.00  0.00    +0.140 C 
BRANCH  44  45
ATOM     45  C   UNL     1       6.622  -3.814  22.878  0.00  0.00    -0.032 A 
ATOM     46  C   UNL     1       5.304  -3.337  22.965  0.00  0.00    +0.005 A 
ATOM     47  C   UNL     1       4.216  -4.219  23.082  0.00  0.00    +0.010 A 
ATOM     48  C   UNL     1       4.419  -5.603  23.161  0.00  0.00    +0.000 A 
ATOM     49  C   UNL     1       5.741  -6.067  23.056  0.00  0.00    +0.010 A 
ATOM     50  C   UNL     1       6.821  -5.197  22.932  0.00  0.00    +0.005 A 
BRANCH  48  51
ATOM     51  C   UNL     1       3.323  -6.564  23.376  0.00  0.00    +0.071 A 
ATOM     52  N   UNL     1       3.520  -7.545  24.291  0.00  0.00    -0.255 NA
ATOM     53  C   UNL     1       2.459  -8.336  24.584  0.00  0.00    +0.111 A 
ATOM     54  C   UNL     1       1.204  -8.204  24.010  0.00  0.00    +0.020 A 
ATOM     55  C   UNL     1       1.030  -7.228  23.041  0.00  0.00    +0.004 A 
ATOM     56  C   UNL     1       2.103  -6.412  22.709  0.00  0.00    +0.028 A 
ENDBRANCH  48  51
ENDBRANCH  44  45
ENDBRANCH   1  44
TORSDOF 19
ENDMDL
MODEL 4
REMARK VINA RESULT:      -6.2      2.399      8.283
REMARK  Name = 
REMARK  27 active torsions:
REMARK  status: ('A' for Active; 'I' for Inactive)
REMARK    1  A    between atoms: C_1  and  C_2
REMARK    2  A    between atoms: C_2  and  C_3
REMARK    3  A    between atoms: C_2  and  C_4
REMARK    4  A    between atoms: C_2  and  C_5
REMARK    5  A    between atoms: C_5  and  C_7
REMARK    6  A    between atoms: C_5  and  N_48
REMARK    7  A    between atoms: N_9  and  N_10
REMARK    8  A    between atoms: N_10  and  C_11
REMARK    9  A    between atoms: N_10  and  C_24
REMARK   10  A    between atoms: C_11  and  C_12
REMARK   11  A    between atoms: C_15  and  C_18
REMARK   12  A    between atoms: C_24  and  C_25
REMARK   13  A    between atoms: C_25  and  C_26
REMARK   14  A    between atoms: C_25  and  O_47
REMARK   15  A    between atoms: C_26  and  C_27
REMARK   16  A    between atoms: C_26  and  N_34
REMARK   17  A    between atoms: C_27  and  C_28
REMARK   18  A    between atoms: C_35  and  C_37
REMARK   19  A    between atoms: C_37  and  C_38
REMARK   20  A    between atoms: C_37  and  N_42
REMARK   21  A    between atoms: C_38  and  C_39
REMARK   22  A    between atoms: C_38  and  C_40
REMARK   23  A    between atoms: C_38  and  C_41
REMARK   24  A    between atoms: C_43  and  O_45
REMARK   25  A    between atoms: O_45  and  C_46
REMARK   26  A    between atoms: C_49  and  O_51
REMARK   27  A    between atoms: O_51  and  C_52
REMARK                            x       y       z     vdW  Elec       q    Type
REMARK                         _______ _______ _______ _____ _____    ______ ____
ROOT
ATOM      1  N   UNL     1       6.194  -0.996  25.194  0.00  0.00    -0.220 NA
ENDROOT
BRANCH   1   3
ATOM      2  C   UNL     1       7.477  -2.727  26.264  0.00  0.00    +0.248 C 
ATOM      3  N   UNL     1       6.441  -2.365  25.398  0.00  0.00    -0.246 N 
ATOM      4  H   UNL     1       6.178  -3.022  24.662  0.00  0.00    +0.169 HD
ATOM      5  O   UNL     1       8.118  -1.901  26.917  0.00  0.00    -0.272 OA
BRANCH   2   6
ATOM      6  C   UNL     1       7.914  -4.208  26.178  0.00  0.00    +0.169 C 
BRANCH   6   8
ATOM      7  C   UNL     1       9.388  -3.115  24.391  0.00  0.00    +0.013 C 
ATOM      8  C   UNL     1       8.847  -4.458  24.934  0.00  0.00    -0.011 C 
ATOM      9  C   UNL     1      10.063  -5.317  25.332  0.00  0.00    +0.013 C 
ATOM     10  C   UNL     1       8.126  -5.174  23.781  0.00  0.00    +0.013 C 
ENDBRANCH   6   8
BRANCH   6  11
ATOM     11  N   UNL     1       6.767  -5.126  26.231  0.00  0.00    -0.269 N 
ATOM     12  H   UNL     1       5.950  -4.984  25.657  0.00  0.00    +0.153 HD
ATOM     13  C   UNL     1       6.536  -5.955  27.288  0.00  0.00    +0.401 C 
ATOM     14  O   UNL     1       7.278  -6.125  28.243  0.00  0.00    -0.226 OA
BRANCH  13  15
ATOM     15  O   UNL     1       5.353  -6.590  27.097  0.00  0.00    -0.454 OA
ATOM     16  C   UNL     1       4.940  -6.670  25.729  0.00  0.00    +0.282 C 
ENDBRANCH  13  15
ENDBRANCH   6  11
ENDBRANCH   2   6
ENDBRANCH   1   3
BRANCH   1  17
ATOM     17  C   UNL     1       4.808  -0.619  25.499  0.00  0.00    +0.139 C 
BRANCH  17  18
ATOM     18  C   UNL     1       4.469   0.230  26.776  0.00  0.00    +0.151 C 
BRANCH  18  19
ATOM     19  O   UNL     1       3.038   0.093  26.982  0.00  0.00    -0.389 OA
ATOM     20  H   UNL     1       2.597   0.241  26.130  0.00  0.00    +0.210 HD
ENDBRANCH  18  19
BRANCH  18  21
ATOM     21  C   UNL     1       4.861   1.755  26.842  0.00  0.00    +0.107 C 
BRANCH  21  22
ATOM     22  N   UNL     1       4.382   2.492  25.613  0.00  0.00    -0.308 N 
ATOM     23  H   UNL     1       5.055   2.640  24.860  0.00  0.00    +0.149 HD
ATOM     24  C   UNL     1       3.470   3.530  25.740  0.00  0.00    +0.234 C 
ATOM     25  O   UNL     1       3.082   3.850  26.864  0.00  0.00    -0.274 OA
BRANCH  24  26
ATOM     26  C   UNL     1       2.973   4.252  24.405  0.00  0.00    +0.167 C 
BRANCH  26  27
ATOM     27  C   UNL     1       4.008   5.349  23.919  0.00  0.00    -0.011 C 
ATOM     28  C   UNL     1       3.297   6.134  22.796  0.00  0.00    +0.013 C 
ATOM     29  C   UNL     1       5.315   4.815  23.271  0.00  0.00    +0.013 C 
ATOM     30  C   UNL     1       4.516   6.243  25.076  0.00  0.00    +0.013 C 
ENDBRANCH  26  27
BRANCH  26  31
ATOM     31  N   UNL     1       2.630   3.314  23.340  0.00  0.00    -0.269 N 
ATOM     32  H   UNL     1       3.135   3.353  22.457  0.00  0.00    +0.153 HD
ATOM     33  C   UNL     1       1.340   2.911  23.151  0.00  0.00    +0.401 C 
ATOM     34  O   UNL     1       0.445   3.089  23.968  0.00  0.00    -0.226 OA
BRANCH  33  35
ATOM     35  O   UNL     1       1.202   2.376  21.920  0.00  0.00    -0.454 OA
ATOM     36  C   UNL     1       1.959   3.008  20.877  0.00  0.00    +0.282 C 
ENDBRANCH  33  35
ENDBRANCH  26  31
ENDBRANCH  24  26
ENDBRANCH  21  22
BRANCH  21  37
ATOM     37  C   UNL     1       6.386   1.950  27.044  0.00  0.00    +0.060 C 
BRANCH  37  38
ATOM     38  C   UNL     1       6.783   3.381  27.343  0.00  0.00    -0.046 A 
ATOM     39  C   UNL     1       7.468   4.138  26.381  0.00  0.00    +0.004 A 
ATOM     40  C   UNL     1       7.743   5.488  26.605  0.00  0.00    +0.000 A 
ATOM     41  C   UNL     1       7.347   6.091  27.796  0.00  0.00    +0.000 A 
ATOM     42  C   UNL     1       6.697   5.340  28.773  0.00  0.00    +0.000 A 
ATOM     43  C   UNL     1       6.423   3.989  28.553  0.00  0.00    +0.004 A 
ENDBRANCH  37  38
ENDBRANCH  21  37
ENDBRANCH  18  21
ENDBRANCH  17  18
ENDBRANCH   1  17
BRANCH   1  44
ATOM     44  C   UNL     1       6.657  -0.540  23.849  0.00  0.00    +0.140 C 
BRANCH  44  45
ATOM     45  C   UNL     1       7.701   0.570  23.831  0.00  0.00    -0.032 A 
ATOM     46  C   UNL     1       8.919   0.489  24.525  0.00  0.00    +0.005 A 
ATOM     47  C   UNL     1       9.861   1.530  24.469  0.00  0.00    +0.010 A 
ATOM     48  C   UNL     1       9.593   2.703  23.751  0.00  0.00    +0.000 A 
ATOM     49  C   UNL     1       8.379   2.764  23.047  0.00  0.00    +0.010 A 
ATOM     50  C   UNL     1       7.446   1.731  23.095  0.00  0.00    +0.005 A 
BRANCH  48  51
ATOM     51  C   UNL     1      10.505   3.859  23.733  0.00  0.00    +0.071 A 
ATOM     52  N   UNL     1      11.800   3.632  23.398  0.00  0.00    -0.255 NA
ATOM     53  C   UNL     1      12.596   4.718  23.246  0.00  0.00    +0.111 A 
ATOM     54  C   UNL     1      12.172   6.028  23.414  0.00  0.00    +0.020 A 
ATOM     55  C   UNL     1      10.860   6.243  23.805  0.00  0.00    +0.004 A 
ATOM     56  C   UNL     1      10.024   5.149  23.982  0.00  0.00    +0.028 A 
ENDBRANCH  48  51
ENDBRANCH  44  45
ENDBRANCH   1  44
TORSDOF 19
ENDMDL
MODEL 5
REMARK VINA RESULT:      -6.1      2.730      8.600
REMARK  Name = 
REMARK  27 active torsions:
REMARK  status: ('A' for Active; 'I' for Inactive)
REMARK    1  A    between atoms: C_1  and  C_2
REMARK    2  A    between atoms: C_2  and  C_3
REMARK    3  A    between atoms: C_2  and  C_4
REMARK    4  A    between atoms: C_2  and  C_5
REMARK    5  A    between atoms: C_5  and  C_7
REMARK    6  A    between atoms: C_5  and  N_48
REMARK    7  A    between atoms: N_9  and  N_10
REMARK    8  A    between atoms: N_10  and  C_11
REMARK    9  A    between atoms: N_10  and  C_24
REMARK   10  A    between atoms: C_11  and  C_12
REMARK   11  A    between atoms: C_15  and  C_18
REMARK   12  A    between atoms: C_24  and  C_25
REMARK   13  A    between atoms: C_25  and  C_26
REMARK   14  A    between atoms: C_25  and  O_47
REMARK   15  A    between atoms: C_26  and  C_27
REMARK   16  A    between atoms: C_26  and  N_34
REMARK   17  A    between atoms: C_27  and  C_28
REMARK   18  A    between atoms: C_35  and  C_37
REMARK   19  A    between atoms: C_37  and  C_38
REMARK   20  A    between atoms: C_37  and  N_42
REMARK   21  A    between atoms: C_38  and  C_39
REMARK   22  A    between atoms: C_38  and  C_40
REMARK   23  A    between atoms: C_38  and  C_41
REMARK   24  A    between atoms: C_43  and  O_45
REMARK   25  A    between atoms: O_45  and  C_46
REMARK   26  A    between atoms: C_49  and  O_51
REMARK   27  A    between atoms: O_51  and  C_52
REMARK                            x       y       z     vdW  Elec       q    Type
REMARK                         _______ _______ _______ _____ _____    ______ ____
ROOT
ATOM      1  N   UNL     1       7.334  -1.441  24.156  0.00  0.00    -0.220 NA
ENDROOT
BRANCH   1   3
ATOM      2  C   UNL     1       5.605  -3.111  24.251  0.00  0.00    +0.248 C 
ATOM      3  N   UNL     1       6.254  -2.097  23.540  0.00  0.00    -0.246 N 
ATOM      4  H   UNL     1       6.222  -2.128  22.520  0.00  0.00    +0.169 HD
ATOM      5  O   UNL     1       5.885  -3.388  25.419  0.00  0.00    -0.272 OA
BRANCH   2   6
ATOM      6  C   UNL     1       4.672  -4.008  23.404  0.00  0.00    +0.169 C 
BRANCH   6   8
ATOM      7  C   UNL     1       2.894  -3.560  25.193  0.00  0.00    +0.013 C 
ATOM      8  C   UNL     1       3.530  -4.639  24.287  0.00  0.00    -0.011 C 
ATOM      9  C   UNL     1       2.411  -5.212  23.395  0.00  0.00    +0.013 C 
ATOM     10  C   UNL     1       4.034  -5.775  25.192  0.00  0.00    +0.013 C 
ENDBRANCH   6   8
BRANCH   6  11
ATOM     11  N   UNL     1       5.421  -5.009  22.630  0.00  0.00    -0.269 N 
ATOM     12  H   UNL     1       5.870  -5.794  23.077  0.00  0.00    +0.153 HD
ATOM     13  C   UNL     1       5.904  -4.761  21.380  0.00  0.00    +0.401 C 
ATOM     14  O   UNL     1       5.693  -3.760  20.713  0.00  0.00    -0.226 OA
BRANCH  13  15
ATOM     15  O   UNL     1       6.641  -5.826  20.975  0.00  0.00    -0.454 OA
ATOM     16  C   UNL     1       7.469  -6.392  21.996  0.00  0.00    +0.282 C 
ENDBRANCH  13  15
ENDBRANCH   6  11
ENDBRANCH   2   6
ENDBRANCH   1   3
BRANCH   1  17
ATOM     17  C   UNL     1       6.931  -0.210  24.847  0.00  0.00    +0.139 C 
BRANCH  17  18
ATOM     18  C   UNL     1       5.842   0.738  24.228  0.00  0.00    +0.151 C 
BRANCH  18  19
ATOM     19  O   UNL     1       6.077   0.739  22.796  0.00  0.00    -0.389 OA
ATOM     20  H   UNL     1       7.036   0.695  22.648  0.00  0.00    +0.210 HD
ENDBRANCH  18  19
BRANCH  18  21
ATOM     21  C   UNL     1       5.706   2.225  24.734  0.00  0.00    +0.107 C 
BRANCH  21  22
ATOM     22  N   UNL     1       4.746   3.008  23.869  0.00  0.00    -0.308 N 
ATOM     23  H   UNL     1       5.088   3.872  23.448  0.00  0.00    +0.149 HD
ATOM     24  C   UNL     1       3.400   3.059  24.201  0.00  0.00    +0.234 C 
ATOM     25  O   UNL     1       3.013   2.481  25.218  0.00  0.00    -0.274 OA
BRANCH  24  26
ATOM     26  C   UNL     1       2.424   3.873  23.233  0.00  0.00    +0.167 C 
BRANCH  26  27
ATOM     27  C   UNL     1       2.584   5.437  23.430  0.00  0.00    -0.011 C 
ATOM     28  C   UNL     1       3.533   5.910  22.308  0.00  0.00    +0.013 C 
ATOM     29  C   UNL     1       3.264   5.893  24.751  0.00  0.00    +0.013 C 
ATOM     30  C   UNL     1       1.226   6.178  23.448  0.00  0.00    +0.013 C 
ENDBRANCH  26  27
BRANCH  26  31
ATOM     31  N   UNL     1       2.551   3.482  21.833  0.00  0.00    -0.269 N 
ATOM     32  H   UNL     1       2.939   4.141  21.162  0.00  0.00    +0.153 HD
ATOM     33  C   UNL     1       1.622   2.673  21.245  0.00  0.00    +0.401 C 
ATOM     34  O   UNL     1       0.785   2.032  21.869  0.00  0.00    -0.226 OA
BRANCH  33  35
ATOM     35  O   UNL     1       1.721   2.759  19.902  0.00  0.00    -0.454 OA
ATOM     36  C   UNL     1       1.564   4.075  19.348  0.00  0.00    +0.282 C 
ENDBRANCH  33  35
ENDBRANCH  26  31
ENDBRANCH  24  26
ENDBRANCH  21  22
BRANCH  21  37
ATOM     37  C   UNL     1       7.083   2.936  24.812  0.00  0.00    +0.060 C 
BRANCH  37  38
ATOM     38  C   UNL     1       7.128   4.261  24.079  0.00  0.00    -0.046 A 
ATOM     39  C   UNL     1       7.287   4.291  22.686  0.00  0.00    +0.004 A 
ATOM     40  C   UNL     1       7.222   5.499  21.990  0.00  0.00    +0.000 A 
ATOM     41  C   UNL     1       7.008   6.689  22.681  0.00  0.00    +0.000 A 
ATOM     42  C   UNL     1       6.884   6.675  24.069  0.00  0.00    +0.000 A 
ATOM     43  C   UNL     1       6.952   5.469  24.768  0.00  0.00    +0.004 A 
ENDBRANCH  37  38
ENDBRANCH  21  37
ENDBRANCH  18  21
ENDBRANCH  17  18
ENDBRANCH   1  17
BRANCH   1  44
ATOM     44  C   UNL     1       8.482  -1.253  23.217  0.00  0.00    +0.140 C 
BRANCH  44  45
ATOM     45  C   UNL     1       9.228   0.072  23.314  0.00  0.00    -0.032 A 
ATOM     46  C   UNL     1       9.897   0.493  24.474  0.00  0.00    +0.005 A 
ATOM     47  C   UNL     1      10.587   1.716  24.515  0.00  0.00    +0.010 A 
ATOM     48  C   UNL     1      10.589   2.576  23.410  0.00  0.00    +0.000 A 
ATOM     49  C   UNL     1       9.930   2.136  22.249  0.00  0.00    +0.010 A 
ATOM     50  C   UNL     1       9.252   0.921  22.203  0.00  0.00    +0.005 A 
BRANCH  48  51
ATOM     51  C   UNL     1      11.218   3.908  23.430  0.00  0.00    +0.071 A 
ATOM     52  N   UNL     1      10.532   4.917  24.021  0.00  0.00    -0.255 NA
ATOM     53  C   UNL     1      11.176   6.102  24.160  0.00  0.00    +0.111 A 
ATOM     54  C   UNL     1      12.475   6.339  23.737  0.00  0.00    +0.020 A 
ATOM     55  C   UNL     1      13.147   5.314  23.091  0.00  0.00    +0.004 A 
ATOM     56  C   UNL     1      12.508   4.094  22.921  0.00  0.00    +0.028 A 
ENDBRANCH  48  51
ENDBRANCH  44  45
ENDBRANCH   1  44
TORSDOF 19
ENDMDL
MODEL 6
REMARK VINA RESULT:      -6.1      2.322      9.350
REMARK  Name = 
REMARK  27 active torsions:
REMARK  status: ('A' for Active; 'I' for Inactive)
REMARK    1  A    between atoms: C_1  and  C_2
REMARK    2  A    between atoms: C_2  and  C_3
REMARK    3  A    between atoms: C_2  and  C_4
REMARK    4  A    between atoms: C_2  and  C_5
REMARK    5  A    between atoms: C_5  and  C_7
REMARK    6  A    between atoms: C_5  and  N_48
REMARK    7  A    between atoms: N_9  and  N_10
REMARK    8  A    between atoms: N_10  and  C_11
REMARK    9  A    between atoms: N_10  and  C_24
REMARK   10  A    between atoms: C_11  and  C_12
REMARK   11  A    between atoms: C_15  and  C_18
REMARK   12  A    between atoms: C_24  and  C_25
REMARK   13  A    between atoms: C_25  and  C_26
REMARK   14  A    between atoms: C_25  and  O_47
REMARK   15  A    between atoms: C_26  and  C_27
REMARK   16  A    between atoms: C_26  and  N_34
REMARK   17  A    between atoms: C_27  and  C_28
REMARK   18  A    between atoms: C_35  and  C_37
REMARK   19  A    between atoms: C_37  and  C_38
REMARK   20  A    between atoms: C_37  and  N_42
REMARK   21  A    between atoms: C_38  and  C_39
REMARK   22  A    between atoms: C_38  and  C_40
REMARK   23  A    between atoms: C_38  and  C_41
REMARK   24  A    between atoms: C_43  and  O_45
REMARK   25  A    between atoms: O_45  and  C_46
REMARK   26  A    between atoms: C_49  and  O_51
REMARK   27  A    between atoms: O_51  and  C_52
REMARK                            x       y       z     vdW  Elec       q    Type
REMARK                         _______ _______ _______ _____ _____    ______ ____
ROOT
ATOM      1  N   UNL     1       8.301  -2.419  24.157  0.00  0.00    -0.220 NA
ENDROOT
BRANCH   1   3
ATOM      2  C   UNL     1       7.395  -2.976  26.315  0.00  0.00    +0.248 C 
ATOM      3  N   UNL     1       7.244  -2.338  25.081  0.00  0.00    -0.246 N 
ATOM      4  H   UNL     1       6.298  -2.195  24.725  0.00  0.00    +0.169 HD
ATOM      5  O   UNL     1       8.444  -3.528  26.655  0.00  0.00    -0.272 OA
BRANCH   2   6
ATOM      6  C   UNL     1       6.091  -3.140  27.130  0.00  0.00    +0.169 C 
BRANCH   6   8
ATOM      7  C   UNL     1       4.265  -4.892  26.736  0.00  0.00    +0.013 C 
ATOM      8  C   UNL     1       5.694  -4.657  27.277  0.00  0.00    -0.011 C 
ATOM      9  C   UNL     1       6.649  -5.548  26.460  0.00  0.00    +0.013 C 
ATOM     10  C   UNL     1       5.730  -5.146  28.734  0.00  0.00    +0.013 C 
ENDBRANCH   6   8
BRANCH   6  11
ATOM     11  N   UNL     1       5.000  -2.308  26.601  0.00  0.00    -0.269 N 
ATOM     12  H   UNL     1       4.830  -2.229  25.609  0.00  0.00    +0.153 HD
ATOM     13  C   UNL     1       4.425  -1.304  27.321  0.00  0.00    +0.401 C 
ATOM     14  O   UNL     1       4.646  -1.043  28.493  0.00  0.00    -0.226 OA
BRANCH  13  15
ATOM     15  O   UNL     1       3.536  -0.651  26.530  0.00  0.00    -0.454 OA
ATOM     16  C   UNL     1       2.533   0.076  27.247  0.00  0.00    +0.282 C 
ENDBRANCH  13  15
ENDBRANCH   6  11
ENDBRANCH   2   6
ENDBRANCH   1   3
BRANCH   1  17
ATOM     17  C   UNL     1       8.843  -1.102  23.798  0.00  0.00    +0.139 C 
BRANCH  17  18
ATOM     18  C   UNL     1       9.139  -0.027  24.902  0.00  0.00    +0.151 C 
BRANCH  18  19
ATOM     19  O   UNL     1       9.476  -0.767  26.105  0.00  0.00    -0.389 OA
ATOM     20  H   UNL     1       9.953  -0.168  26.702  0.00  0.00    +0.210 HD
ENDBRANCH  18  19
BRANCH  18  21
ATOM     21  C   UNL     1       8.060   1.069  25.251  0.00  0.00    +0.107 C 
BRANCH  21  22
ATOM     22  N   UNL     1       8.613   2.460  25.046  0.00  0.00    -0.308 N 
ATOM     23  H   UNL     1       8.762   3.035  25.876  0.00  0.00    +0.149 HD
ATOM     24  C   UNL     1       8.236   3.198  23.934  0.00  0.00    +0.234 C 
ATOM     25  O   UNL     1       7.431   2.710  23.139  0.00  0.00    -0.274 OA
BRANCH  24  26
ATOM     26  C   UNL     1       8.876   4.649  23.750  0.00  0.00    +0.167 C 
BRANCH  26  27
ATOM     27  C   UNL     1       8.093   5.740  24.591  0.00  0.00    -0.011 C 
ATOM     28  C   UNL     1       8.574   7.108  24.063  0.00  0.00    +0.013 C 
ATOM     29  C   UNL     1       8.391   5.770  26.116  0.00  0.00    +0.013 C 
ATOM     30  C   UNL     1       6.558   5.554  24.526  0.00  0.00    +0.013 C 
ENDBRANCH  26  27
BRANCH  26  31
ATOM     31  N   UNL     1      10.311   4.679  24.016  0.00  0.00    -0.269 N 
ATOM     32  H   UNL     1      10.764   5.568  24.218  0.00  0.00    +0.153 HD
ATOM     33  C   UNL     1      11.161   3.831  23.368  0.00  0.00    +0.401 C 
ATOM     34  O   UNL     1      10.791   2.851  22.732  0.00  0.00    -0.226 OA
BRANCH  33  35
ATOM     35  O   UNL     1      12.429   4.282  23.472  0.00  0.00    -0.454 OA
ATOM     36  C   UNL     1      12.770   5.384  22.616  0.00  0.00    +0.282 C 
ENDBRANCH  33  35
ENDBRANCH  26  31
ENDBRANCH  24  26
ENDBRANCH  21  22
BRANCH  21  37
ATOM     37  C   UNL     1       7.512   0.900  26.692  0.00  0.00    +0.060 C 
BRANCH  37  38
ATOM     38  C   UNL     1       6.569   2.006  27.120  0.00  0.00    -0.046 A 
ATOM     39  C   UNL     1       6.888   2.818  28.218  0.00  0.00    +0.004 A 
ATOM     40  C   UNL     1       6.081   3.906  28.554  0.00  0.00    +0.000 A 
ATOM     41  C   UNL     1       4.943   4.187  27.803  0.00  0.00    +0.000 A 
ATOM     42  C   UNL     1       4.597   3.366  26.731  0.00  0.00    +0.000 A 
ATOM     43  C   UNL     1       5.401   2.275  26.395  0.00  0.00    +0.004 A 
ENDBRANCH  37  38
ENDBRANCH  21  37
ENDBRANCH  18  21
ENDBRANCH  17  18
ENDBRANCH   1  17
BRANCH   1  44
ATOM     44  C   UNL     1       7.947  -3.265  22.977  0.00  0.00    +0.140 C 
BRANCH  44  45
ATOM     45  C   UNL     1       6.627  -4.022  23.055  0.00  0.00    -0.032 A 
ATOM     46  C   UNL     1       5.381  -3.383  23.160  0.00  0.00    +0.005 A 
ATOM     47  C   UNL     1       4.186  -4.120  23.214  0.00  0.00    +0.010 A 
ATOM     48  C   UNL     1       4.205  -5.520  23.209  0.00  0.00    +0.000 A 
ATOM     49  C   UNL     1       5.457  -6.147  23.087  0.00  0.00    +0.010 A 
ATOM     50  C   UNL     1       6.643  -5.420  23.026  0.00  0.00    +0.005 A 
BRANCH  48  51
ATOM     51  C   UNL     1       2.990  -6.341  23.355  0.00  0.00    +0.071 A 
ATOM     52  N   UNL     1       1.904  -5.989  22.623  0.00  0.00    -0.255 NA
ATOM     53  C   UNL     1       0.841  -6.829  22.655  0.00  0.00    +0.111 A 
ATOM     54  C   UNL     1       0.799  -8.007  23.384  0.00  0.00    +0.020 A 
ATOM     55  C   UNL     1       1.897  -8.331  24.166  0.00  0.00    +0.004 A 
ATOM     56  C   UNL     1       2.995  -7.482  24.164  0.00  0.00    +0.028 A 
ENDBRANCH  48  51
ENDBRANCH  44  45
ENDBRANCH   1  44
TORSDOF 19
ENDMDL
MODEL 7
REMARK VINA RESULT:      -6.0      2.256      8.470
REMARK  Name = 
REMARK  27 active torsions:
REMARK  status: ('A' for Active; 'I' for Inactive)
REMARK    1  A    between atoms: C_1  and  C_2
REMARK    2  A    between atoms: C_2  and  C_3
REMARK    3  A    between atoms: C_2  and  C_4
REMARK    4  A    between atoms: C_2  and  C_5
REMARK    5  A    between atoms: C_5  and  C_7
REMARK    6  A    between atoms: C_5  and  N_48
REMARK    7  A    between atoms: N_9  and  N_10
REMARK    8  A    between atoms: N_10  and  C_11
REMARK    9  A    between atoms: N_10  and  C_24
REMARK   10  A    between atoms: C_11  and  C_12
REMARK   11  A    between atoms: C_15  and  C_18
REMARK   12  A    between atoms: C_24  and  C_25
REMARK   13  A    between atoms: C_25  and  C_26
REMARK   14  A    between atoms: C_25  and  O_47
REMARK   15  A    between atoms: C_26  and  C_27
REMARK   16  A    between atoms: C_26  and  N_34
REMARK   17  A    between atoms: C_27  and  C_28
REMARK   18  A    between atoms: C_35  and  C_37
REMARK   19  A    between atoms: C_37  and  C_38
REMARK   20  A    between atoms: C_37  and  N_42
REMARK   21  A    between atoms: C_38  and  C_39
REMARK   22  A    between atoms: C_38  and  C_40
REMARK   23  A    between atoms: C_38  and  C_41
REMARK   24  A    between atoms: C_43  and  O_45
REMARK   25  A    between atoms: O_45  and  C_46
REMARK   26  A    between atoms: C_49  and  O_51
REMARK   27  A    between atoms: O_51  and  C_52
REMARK                            x       y       z     vdW  Elec       q    Type
REMARK                         _______ _______ _______ _____ _____    ______ ____
ROOT
ATOM      1  N   UNL     1       6.431  -1.446  24.005  0.00  0.00    -0.220 NA
ENDROOT
BRANCH   1   3
ATOM      2  C   UNL     1       4.947  -3.332  24.164  0.00  0.00    +0.248 C 
ATOM      3  N   UNL     1       5.444  -2.258  23.420  0.00  0.00    -0.246 N 
ATOM      4  H   UNL     1       5.404  -2.318  22.402  0.00  0.00    +0.169 HD
ATOM      5  O   UNL     1       5.275  -3.540  25.334  0.00  0.00    -0.272 OA
BRANCH   2   6
ATOM      6  C   UNL     1       4.136  -4.370  23.352  0.00  0.00    +0.169 C 
BRANCH   6   8
ATOM      7  C   UNL     1       2.295  -3.817  25.045  0.00  0.00    +0.013 C 
ATOM      8  C   UNL     1       2.931  -4.939  24.193  0.00  0.00    -0.011 C 
ATOM      9  C   UNL     1       1.835  -5.491  23.262  0.00  0.00    +0.013 C 
ATOM     10  C   UNL     1       3.351  -6.071  25.144  0.00  0.00    +0.013 C 
ENDBRANCH   6   8
BRANCH   6  11
ATOM     11  N   UNL     1       4.993  -5.422  22.788  0.00  0.00    -0.269 N 
ATOM     12  H   UNL     1       5.294  -6.211  23.341  0.00  0.00    +0.153 HD
ATOM     13  C   UNL     1       5.754  -5.233  21.673  0.00  0.00    +0.401 C 
ATOM     14  O   UNL     1       5.744  -4.245  20.956  0.00  0.00    -0.226 OA
BRANCH  13  15
ATOM     15  O   UNL     1       6.514  -6.338  21.468  0.00  0.00    -0.454 OA
ATOM     16  C   UNL     1       7.703  -6.392  22.262  0.00  0.00    +0.282 C 
ENDBRANCH  13  15
ENDBRANCH   6  11
ENDBRANCH   2   6
ENDBRANCH   1   3
BRANCH   1  17
ATOM     17  C   UNL     1       5.892  -0.181  24.523  0.00  0.00    +0.139 C 
BRANCH  17  18
ATOM     18  C   UNL     1       5.498  -0.036  26.035  0.00  0.00    +0.151 C 
BRANCH  18  19
ATOM     19  O   UNL     1       4.204  -0.679  26.177  0.00  0.00    -0.389 OA
ATOM     20  H   UNL     1       3.987  -0.713  27.123  0.00  0.00    +0.210 HD
ENDBRANCH  18  19
BRANCH  18  21
ATOM     21  C   UNL     1       5.447   1.389  26.708  0.00  0.00    +0.107 C 
BRANCH  21  22
ATOM     22  N   UNL     1       4.794   2.399  25.794  0.00  0.00    -0.308 N 
ATOM     23  H   UNL     1       5.347   3.210  25.516  0.00  0.00    +0.149 HD
ATOM     24  C   UNL     1       3.443   2.682  25.927  0.00  0.00    +0.234 C 
ATOM     25  O   UNL     1       2.799   2.117  26.813  0.00  0.00    -0.274 OA
BRANCH  24  26
ATOM     26  C   UNL     1       2.798   3.733  24.912  0.00  0.00    +0.167 C 
BRANCH  26  27
ATOM     27  C   UNL     1       3.296   5.207  25.209  0.00  0.00    -0.011 C 
ATOM     28  C   UNL     1       2.182   6.142  24.691  0.00  0.00    +0.013 C 
ATOM     29  C   UNL     1       4.580   5.657  24.460  0.00  0.00    +0.013 C 
ATOM     30  C   UNL     1       3.649   5.428  26.700  0.00  0.00    +0.013 C 
ENDBRANCH  26  27
BRANCH  26  31
ATOM     31  N   UNL     1       2.983   3.364  23.512  0.00  0.00    -0.269 N 
ATOM     32  H   UNL     1       3.765   3.755  22.991  0.00  0.00    +0.153 HD
ATOM     33  C   UNL     1       1.910   3.145  22.698  0.00  0.00    +0.401 C 
ATOM     34  O   UNL     1       0.764   2.997  23.106  0.00  0.00    -0.226 OA
BRANCH  33  35
ATOM     35  O   UNL     1       2.295   3.201  21.406  0.00  0.00    -0.454 OA
ATOM     36  C   UNL     1       1.511   2.425  20.487  0.00  0.00    +0.282 C 
ENDBRANCH  33  35
ENDBRANCH  26  31
ENDBRANCH  24  26
ENDBRANCH  21  22
BRANCH  21  37
ATOM     37  C   UNL     1       6.855   1.870  27.146  0.00  0.00    +0.060 C 
BRANCH  37  38
ATOM     38  C   UNL     1       6.946   3.365  27.372  0.00  0.00    -0.046 A 
ATOM     39  C   UNL     1       6.543   3.919  28.596  0.00  0.00    +0.004 A 
ATOM     40  C   UNL     1       6.723   5.279  28.852  0.00  0.00    +0.000 A 
ATOM     41  C   UNL     1       7.296   6.100  27.885  0.00  0.00    +0.000 A 
ATOM     42  C   UNL     1       7.669   5.567  26.652  0.00  0.00    +0.000 A 
ATOM     43  C   UNL     1       7.487   4.208  26.392  0.00  0.00    +0.004 A 
ENDBRANCH  37  38
ENDBRANCH  21  37
ENDBRANCH  18  21
ENDBRANCH  17  18
ENDBRANCH   1  17
BRANCH   1  44
ATOM     44  C   UNL     1       7.614  -1.271  23.108  0.00  0.00    +0.140 C 
BRANCH  44  45
ATOM     45  C   UNL     1       8.346   0.062  23.203  0.00  0.00    -0.032 A 
ATOM     46  C   UNL     1       8.309   1.031  22.187  0.00  0.00    +0.005 A 
ATOM     47  C   UNL     1       8.987   2.254  22.322  0.00  0.00    +0.010 A 
ATOM     48  C   UNL     1       9.758   2.526  23.459  0.00  0.00    +0.000 A 
ATOM     49  C   UNL     1       9.773   1.556  24.475  0.00  0.00    +0.010 A 
ATOM     50  C   UNL     1       9.097   0.345  24.348  0.00  0.00    +0.005 A 
BRANCH  48  51
ATOM     51  C   UNL     1      10.560   3.753  23.611  0.00  0.00    +0.071 A 
ATOM     52  N   UNL     1      11.887   3.671  23.343  0.00  0.00    -0.255 NA
ATOM     53  C   UNL     1      12.589   4.831  23.347  0.00  0.00    +0.111 A 
ATOM     54  C   UNL     1      12.038   6.076  23.608  0.00  0.00    +0.020 A 
ATOM     55  C   UNL     1      10.691   6.139  23.929  0.00  0.00    +0.004 A 
ATOM     56  C   UNL     1       9.949   4.966  23.946  0.00  0.00    +0.028 A 
ENDBRANCH  48  51
ENDBRANCH  44  45
ENDBRANCH   1  44
TORSDOF 19
ENDMDL
MODEL 8
REMARK VINA RESULT:      -6.0      1.862      9.862
REMARK  Name = 
REMARK  27 active torsions:
REMARK  status: ('A' for Active; 'I' for Inactive)
REMARK    1  A    between atoms: C_1  and  C_2
REMARK    2  A    between atoms: C_2  and  C_3
REMARK    3  A    between atoms: C_2  and  C_4
REMARK    4  A    between atoms: C_2  and  C_5
REMARK    5  A    between atoms: C_5  and  C_7
REMARK    6  A    between atoms: C_5  and  N_48
REMARK    7  A    between atoms: N_9  and  N_10
REMARK    8  A    between atoms: N_10  and  C_11
REMARK    9  A    between atoms: N_10  and  C_24
REMARK   10  A    between atoms: C_11  and  C_12
REMARK   11  A    between atoms: C_15  and  C_18
REMARK   12  A    between atoms: C_24  and  C_25
REMARK   13  A    between atoms: C_25  and  C_26
REMARK   14  A    between atoms: C_25  and  O_47
REMARK   15  A    between atoms: C_26  and  C_27
REMARK   16  A    between atoms: C_26  and  N_34
REMARK   17  A    between atoms: C_27  and  C_28
REMARK   18  A    between atoms: C_35  and  C_37
REMARK   19  A    between atoms: C_37  and  C_38
REMARK   20  A    between atoms: C_37  and  N_42
REMARK   21  A    between atoms: C_38  and  C_39
REMARK   22  A    between atoms: C_38  and  C_40
REMARK   23  A    between atoms: C_38  and  C_41
REMARK   24  A    between atoms: C_43  and  O_45
REMARK   25  A    between atoms: O_45  and  C_46
REMARK   26  A    between atoms: C_49  and  O_51
REMARK   27  A    between atoms: O_51  and  C_52
REMARK                            x       y       z     vdW  Elec       q    Type
REMARK                         _______ _______ _______ _____ _____    ______ ____
ROOT
ATOM      1  N   UNL     1       8.054  -2.041  23.938  0.00  0.00    -0.220 NA
ENDROOT
BRANCH   1   3
ATOM      2  C   UNL     1       7.306  -2.557  26.166  0.00  0.00    +0.248 C 
ATOM      3  N   UNL     1       7.018  -2.066  24.889  0.00  0.00    -0.246 N 
ATOM      4  H   UNL     1       6.055  -2.125  24.556  0.00  0.00    +0.169 HD
ATOM      5  O   UNL     1       8.443  -2.883  26.513  0.00  0.00    -0.272 OA
BRANCH   2   6
ATOM      6  C   UNL     1       6.069  -2.876  27.038  0.00  0.00    +0.169 C 
BRANCH   6   8
ATOM      7  C   UNL     1       5.782  -4.818  28.683  0.00  0.00    +0.013 C 
ATOM      8  C   UNL     1       5.860  -4.430  27.188  0.00  0.00    -0.011 C 
ATOM      9  C   UNL     1       4.538  -4.865  26.528  0.00  0.00    +0.013 C 
ATOM     10  C   UNL     1       6.994  -5.249  26.550  0.00  0.00    +0.013 C 
ENDBRANCH   6   8
BRANCH   6  11
ATOM     11  N   UNL     1       4.865  -2.176  26.565  0.00  0.00    -0.269 N 
ATOM     12  H   UNL     1       4.746  -1.927  25.595  0.00  0.00    +0.153 HD
ATOM     13  C   UNL     1       4.048  -1.474  27.399  0.00  0.00    +0.401 C 
ATOM     14  O   UNL     1       4.134  -1.425  28.616  0.00  0.00    -0.226 OA
BRANCH  13  15
ATOM     15  O   UNL     1       3.095  -0.853  26.659  0.00  0.00    -0.454 OA
ATOM     16  C   UNL     1       2.240   0.016  27.408  0.00  0.00    +0.282 C 
ENDBRANCH  13  15
ENDBRANCH   6  11
ENDBRANCH   2   6
ENDBRANCH   1   3
BRANCH   1  17
ATOM     17  C   UNL     1       8.348  -0.685  23.456  0.00  0.00    +0.139 C 
BRANCH  17  18
ATOM     18  C   UNL     1       9.289   0.271  24.272  0.00  0.00    +0.151 C 
BRANCH  18  19
ATOM     19  O   UNL     1       9.772  -0.506  25.399  0.00  0.00    -0.389 OA
ATOM     20  H   UNL     1      10.021  -1.386  25.072  0.00  0.00    +0.210 HD
ENDBRANCH  18  19
BRANCH  18  21
ATOM     21  C   UNL     1       8.752   1.660  24.789  0.00  0.00    +0.107 C 
BRANCH  21  22
ATOM     22  N   UNL     1       7.465   1.491  25.562  0.00  0.00    -0.308 N 
ATOM     23  H   UNL     1       6.683   1.043  25.084  0.00  0.00    +0.149 HD
ATOM     24  C   UNL     1       7.065   2.468  26.462  0.00  0.00    +0.234 C 
ATOM     25  O   UNL     1       7.760   3.476  26.598  0.00  0.00    -0.274 OA
BRANCH  24  26
ATOM     26  C   UNL     1       5.713   2.222  27.276  0.00  0.00    +0.167 C 
BRANCH  26  27
ATOM     27  C   UNL     1       5.942   2.368  28.838  0.00  0.00    -0.011 C 
ATOM     28  C   UNL     1       4.603   1.978  29.500  0.00  0.00    +0.013 C 
ATOM     29  C   UNL     1       6.243   3.802  29.353  0.00  0.00    +0.013 C 
ATOM     30  C   UNL     1       7.148   1.540  29.343  0.00  0.00    +0.013 C 
ENDBRANCH  26  27
BRANCH  26  31
ATOM     31  N   UNL     1       4.604   3.047  26.807  0.00  0.00    -0.269 N 
ATOM     32  H   UNL     1       4.008   3.518  27.484  0.00  0.00    +0.153 HD
ATOM     33  C   UNL     1       3.900   2.702  25.690  0.00  0.00    +0.401 C 
ATOM     34  O   UNL     1       4.273   1.860  24.882  0.00  0.00    -0.226 OA
BRANCH  33  35
ATOM     35  O   UNL     1       2.723   3.362  25.667  0.00  0.00    -0.454 OA
ATOM     36  C   UNL     1       2.225   3.793  26.943  0.00  0.00    +0.282 C 
ENDBRANCH  33  35
ENDBRANCH  26  31
ENDBRANCH  24  26
ENDBRANCH  21  22
BRANCH  21  37
ATOM     37  C   UNL     1       8.572   2.676  23.632  0.00  0.00    +0.060 C 
BRANCH  37  38
ATOM     38  C   UNL     1       9.646   3.743  23.583  0.00  0.00    -0.046 A 
ATOM     39  C   UNL     1       9.330   5.076  23.884  0.00  0.00    +0.004 A 
ATOM     40  C   UNL     1      10.332   6.046  23.948  0.00  0.00    +0.000 A 
ATOM     41  C   UNL     1      11.656   5.696  23.700  0.00  0.00    +0.000 A 
ATOM     42  C   UNL     1      11.977   4.381  23.365  0.00  0.00    +0.000 A 
ATOM     43  C   UNL     1      10.977   3.410  23.298  0.00  0.00    +0.004 A 
ENDBRANCH  37  38
ENDBRANCH  21  37
ENDBRANCH  18  21
ENDBRANCH  17  18
ENDBRANCH   1  17
BRANCH   1  44
ATOM     44  C   UNL     1       7.830  -3.032  22.842  0.00  0.00    +0.140 C 
BRANCH  44  45
ATOM     45  C   UNL     1       6.601  -3.922  22.972  0.00  0.00    -0.032 A 
ATOM     46  C   UNL     1       5.292  -3.418  23.035  0.00  0.00    +0.005 A 
ATOM     47  C   UNL     1       4.184  -4.276  23.139  0.00  0.00    +0.010 A 
ATOM     48  C   UNL     1       4.357  -5.664  23.228  0.00  0.00    +0.000 A 
ATOM     49  C   UNL     1       5.671  -6.156  23.147  0.00  0.00    +0.010 A 
ATOM     50  C   UNL     1       6.770  -5.309  23.036  0.00  0.00    +0.005 A 
BRANCH  48  51
ATOM     51  C   UNL     1       3.238  -6.601  23.429  0.00  0.00    +0.071 A 
ATOM     52  N   UNL     1       3.403  -7.586  24.347  0.00  0.00    -0.255 NA
ATOM     53  C   UNL     1       2.321  -8.354  24.627  0.00  0.00    +0.111 A 
ATOM     54  C   UNL     1       1.077  -8.195  24.037  0.00  0.00    +0.020 A 
ATOM     55  C   UNL     1       0.936  -7.216  23.065  0.00  0.00    +0.004 A 
ATOM     56  C   UNL     1       2.030  -6.423  22.747  0.00  0.00    +0.028 A 
ENDBRANCH  48  51
ENDBRANCH  44  45
ENDBRANCH   1  44
TORSDOF 19
ENDMDL
MODEL 9
REMARK VINA RESULT:      -6.0      3.034      5.510
REMARK  Name = 
REMARK  27 active torsions:
REMARK  status: ('A' for Active; 'I' for Inactive)
REMARK    1  A    between atoms: C_1  and  C_2
REMARK    2  A    between atoms: C_2  and  C_3
REMARK    3  A    between atoms: C_2  and  C_4
REMARK    4  A    between atoms: C_2  and  C_5
REMARK    5  A    between atoms: C_5  and  C_7
REMARK    6  A    between atoms: C_5  and  N_48
REMARK    7  A    between atoms: N_9  and  N_10
REMARK    8  A    between atoms: N_10  and  C_11
REMARK    9  A    between atoms: N_10  and  C_24
REMARK   10  A    between atoms: C_11  and  C_12
REMARK   11  A    between atoms: C_15  and  C_18
REMARK   12  A    between atoms: C_24  and  C_25
REMARK   13  A    between atoms: C_25  and  C_26
REMARK   14  A    between atoms: C_25  and  O_47
REMARK   15  A    between atoms: C_26  and  C_27
REMARK   16  A    between atoms: C_26  and  N_34
REMARK   17  A    between atoms: C_27  and  C_28
REMARK   18  A    between atoms: C_35  and  C_37
REMARK   19  A    between atoms: C_37  and  C_38
REMARK   20  A    between atoms: C_37  and  N_42
REMARK   21  A    between atoms: C_38  and  C_39
REMARK   22  A    between atoms: C_38  and  C_40
REMARK   23  A    between atoms: C_38  and  C_41
REMARK   24  A    between atoms: C_43  and  O_45
REMARK   25  A    between atoms: O_45  and  C_46
REMARK   26  A    between atoms: C_49  and  O_51
REMARK   27  A    between atoms: O_51  and  C_52
REMARK                            x       y       z     vdW  Elec       q    Type
REMARK                         _______ _______ _______ _____ _____    ______ ____
ROOT
ATOM      1  N   UNL     1       5.547   2.411  25.920  0.00  0.00    -0.220 NA
ENDROOT
BRANCH   1   3
ATOM      2  C   UNL     1       7.646   2.596  24.761  0.00  0.00    +0.248 C 
ATOM      3  N   UNL     1       6.299   2.225  24.747  0.00  0.00    -0.246 N 
ATOM      4  H   UNL     1       5.809   2.223  23.851  0.00  0.00    +0.169 HD
ATOM      5  O   UNL     1       8.217   2.993  25.779  0.00  0.00    -0.272 OA
BRANCH   2   6
ATOM      6  C   UNL     1       8.313   2.689  23.369  0.00  0.00    +0.169 C 
BRANCH   6   8
ATOM      7  C   UNL     1       9.936   1.066  24.506  0.00  0.00    +0.013 C 
ATOM      8  C   UNL     1       9.789   2.139  23.403  0.00  0.00    -0.011 C 
ATOM      9  C   UNL     1      10.151   1.475  22.060  0.00  0.00    +0.013 C 
ATOM     10  C   UNL     1      10.829   3.238  23.676  0.00  0.00    +0.013 C 
ENDBRANCH   6   8
BRANCH   6  11
ATOM     11  N   UNL     1       8.215   4.040  22.798  0.00  0.00    -0.269 N 
ATOM     12  H   UNL     1       8.768   4.805  23.155  0.00  0.00    +0.153 HD
ATOM     13  C   UNL     1       7.140   4.455  22.070  0.00  0.00    +0.401 C 
ATOM     14  O   UNL     1       6.204   3.758  21.710  0.00  0.00    -0.226 OA
BRANCH  13  15
ATOM     15  O   UNL     1       7.289   5.772  21.781  0.00  0.00    -0.454 OA
ATOM     16  C   UNL     1       7.839   6.552  22.847  0.00  0.00    +0.282 C 
ENDBRANCH  13  15
ENDBRANCH   6  11
ENDBRANCH   2   6
ENDBRANCH   1   3
BRANCH   1  17
ATOM     17  C   UNL     1       4.781   1.216  26.299  0.00  0.00    +0.139 C 
BRANCH  17  18
ATOM     18  C   UNL     1       5.403   0.131  27.249  0.00  0.00    +0.151 C 
BRANCH  18  19
ATOM     19  O   UNL     1       6.843   0.286  27.148  0.00  0.00    -0.389 OA
ATOM     20  H   UNL     1       7.255  -0.298  27.806  0.00  0.00    +0.210 HD
ENDBRANCH  18  19
BRANCH  18  21
ATOM     21  C   UNL     1       5.028  -1.389  27.070  0.00  0.00    +0.107 C 
BRANCH  21  22
ATOM     22  N   UNL     1       5.776  -2.000  25.908  0.00  0.00    -0.308 N 
ATOM     23  H   UNL     1       5.316  -1.998  24.997  0.00  0.00    +0.149 HD
ATOM     24  C   UNL     1       6.580  -3.112  26.110  0.00  0.00    +0.234 C 
ATOM     25  O   UNL     1       6.649  -3.602  27.238  0.00  0.00    -0.274 OA
BRANCH  24  26
ATOM     26  C   UNL     1       7.374  -3.696  24.853  0.00  0.00    +0.167 C 
BRANCH  26  27
ATOM     27  C   UNL     1       6.414  -4.500  23.883  0.00  0.00    -0.011 C 
ATOM     28  C   UNL     1       5.655  -5.505  24.776  0.00  0.00    +0.013 C 
ATOM     29  C   UNL     1       7.110  -5.370  22.800  0.00  0.00    +0.013 C 
ATOM     30  C   UNL     1       5.484  -3.575  23.062  0.00  0.00    +0.013 C 
ENDBRANCH  26  27
BRANCH  26  31
ATOM     31  N   UNL     1       8.146  -2.681  24.143  0.00  0.00    -0.269 N 
ATOM     32  H   UNL     1       7.695  -2.124  23.420  0.00  0.00    +0.153 HD
ATOM     33  C   UNL     1       9.466  -2.877  23.859  0.00  0.00    +0.401 C 
ATOM     34  O   UNL     1      10.149  -3.758  24.369  0.00  0.00    -0.226 OA
BRANCH  33  35
ATOM     35  O   UNL     1       9.861  -2.020  22.894  0.00  0.00    -0.454 OA
ATOM     36  C   UNL     1       8.911  -1.783  21.844  0.00  0.00    +0.282 C 
ENDBRANCH  33  35
ENDBRANCH  26  31
ENDBRANCH  24  26
ENDBRANCH  21  22
BRANCH  21  37
ATOM     37  C   UNL     1       3.499  -1.591  26.908  0.00  0.00    +0.060 C 
BRANCH  37  38
ATOM     38  C   UNL     1       3.100  -3.023  26.619  0.00  0.00    -0.046 A 
ATOM     39  C   UNL     1       3.231  -4.006  27.612  0.00  0.00    +0.004 A 
ATOM     40  C   UNL     1       2.767  -5.303  27.391  0.00  0.00    +0.000 A 
ATOM     41  C   UNL     1       2.177  -5.635  26.174  0.00  0.00    +0.000 A 
ATOM     42  C   UNL     1       2.073  -4.676  25.168  0.00  0.00    +0.000 A 
ATOM     43  C   UNL     1       2.539  -3.378  25.384  0.00  0.00    +0.004 A 
ENDBRANCH  37  38
ENDBRANCH  21  37
ENDBRANCH  18  21
ENDBRANCH  17  18
ENDBRANCH   1  17
BRANCH   1  44
ATOM     44  C   UNL     1       4.724   3.657  25.865  0.00  0.00    +0.140 C 
BRANCH  44  45
ATOM     45  C   UNL     1       4.050   3.967  24.534  0.00  0.00    -0.032 A 
ATOM     46  C   UNL     1       3.330   3.011  23.799  0.00  0.00    +0.005 A 
ATOM     47  C   UNL     1       2.709   3.343  22.583  0.00  0.00    +0.010 A 
ATOM     48  C   UNL     1       2.828   4.631  22.044  0.00  0.00    +0.000 A 
ATOM     49  C   UNL     1       3.537   5.582  22.798  0.00  0.00    +0.010 A 
ATOM     50  C   UNL     1       4.147   5.258  24.007  0.00  0.00    +0.005 A 
BRANCH  48  51
ATOM     51  C   UNL     1       2.276   5.007  20.731  0.00  0.00    +0.071 A 
ATOM     52  N   UNL     1       2.219   6.327  20.429  0.00  0.00    -0.255 NA
ATOM     53  C   UNL     1       1.843   6.656  19.169  0.00  0.00    +0.111 A 
ATOM     54  C   UNL     1       1.515   5.734  18.187  0.00  0.00    +0.020 A 
ATOM     55  C   UNL     1       1.530   4.389  18.523  0.00  0.00    +0.004 A 
ATOM     56  C   UNL     1       1.897   4.023  19.811  0.00  0.00    +0.028 A 
ENDBRANCH  48  51
ENDBRANCH  44  45
ENDBRANCH   1  44
TORSDOF 19
ENDMDL
