MODEL 1
REMARK VINA RESULT:      -7.2      0.000      0.000
REMARK  Name = 
REMARK  16 active torsions:
REMARK  status: ('A' for Active; 'I' for Inactive)
REMARK    1  A    between atoms: C_1  and  C_2
REMARK    2  A    between atoms: C_2  and  C_4
REMARK    3  A    between atoms: C_2  and  N_10
REMARK    4  A    between atoms: C_4  and  O_6
REMARK    5  A    between atoms: O_6  and  C_7
REMARK    6  A    between atoms: C_7  and  C_8
REMARK    7  A    between atoms: C_7  and  C_9
REMARK    8  A    between atoms: N_10  and  P_11
REMARK    9  A    between atoms: P_11  and  O_13
REMARK   10  A    between atoms: P_11  and  O_34
REMARK   11  A    between atoms: O_13  and  C_14
REMARK   12  A    between atoms: C_14  and  C_15
REMARK   13  A    between atoms: C_17  and  O_33
REMARK   14  A    between atoms: C_19  and  C_31
REMARK   15  A    between atoms: C_20  and  N_23
REMARK   16  A    between atoms: O_34  and  C_35
REMARK                            x       y       z     vdW  Elec       q    Type
REMARK                         _______ _______ _______ _____ _____    ______ ____
ROOT
ATOM      1  O   UNL     1       8.132  -2.254  23.519  0.00  0.00    -0.284 OA
ENDROOT
BRANCH   1   2
ATOM      2  P   UNL     1       8.559  -3.609  24.306  0.00  0.00    +0.462 P 
ATOM      3  O   UNL     1      10.036  -3.842  24.218  0.00  0.00    -0.228 OA
BRANCH   2   4
ATOM      4  N   UNL     1       7.569  -4.742  23.665  0.00  0.00    -0.199 NA
ATOM      5  H   UNL     1       6.751  -4.860  24.255  0.00  0.00    +0.135 HD
BRANCH   4   7
ATOM      6  C   UNL     1       7.259  -5.953  21.564  0.00  0.00    +0.036 C 
ATOM      7  C   UNL     1       7.129  -4.602  22.264  0.00  0.00    +0.171 C 
BRANCH   7   8
ATOM      8  C   UNL     1       5.661  -4.168  22.150  0.00  0.00    +0.325 C 
ATOM      9  O   UNL     1       5.283  -3.014  21.993  0.00  0.00    -0.249 OA
BRANCH   8  10
ATOM     10  O   UNL     1       4.860  -5.257  22.350  0.00  0.00    -0.461 OA
BRANCH  10  11
ATOM     11  C   UNL     1       4.139  -5.348  23.595  0.00  0.00    +0.170 C 
ATOM     12  C   UNL     1       4.562  -6.659  24.255  0.00  0.00    +0.052 C 
ATOM     13  C   UNL     1       2.639  -5.349  23.337  0.00  0.00    +0.052 C 
ENDBRANCH  10  11
ENDBRANCH   8  10
ENDBRANCH   7   8
ENDBRANCH   4   7
ENDBRANCH   2   4
BRANCH   2  14
ATOM     14  O   UNL     1       8.021  -3.262  25.786  0.00  0.00    -0.413 OA
BRANCH  14  15
ATOM     15  C   UNL     1       6.942  -3.819  26.409  0.00  0.00    +0.131 A 
ATOM     16  C   UNL     1       7.187  -4.988  27.136  0.00  0.00    +0.046 A 
ATOM     17  C   UNL     1       6.149  -5.631  27.810  0.00  0.00    +0.004 A 
ATOM     18  C   UNL     1       4.857  -5.113  27.752  0.00  0.00    +0.000 A 
ATOM     19  C   UNL     1       4.607  -3.959  27.011  0.00  0.00    +0.004 A 
ATOM     20  C   UNL     1       5.647  -3.312  26.338  0.00  0.00    +0.046 A 
ENDBRANCH  14  15
ENDBRANCH   2  14
ENDBRANCH   1   2
BRANCH   1  21
ATOM     21  C   UNL     1       9.169  -1.611  22.798  0.00  0.00    +0.206 C 
BRANCH  21  22
ATOM     22  C   UNL     1       8.727  -0.234  22.305  0.00  0.00    +0.179 C 
ATOM     23  O   UNL     1       7.695   0.261  23.178  0.00  0.00    -0.345 OA
ATOM     24  C   UNL     1       8.196   1.415  23.895  0.00  0.00    +0.263 C 
ATOM     25  C   UNL     1       9.710   1.527  23.619  0.00  0.00    +0.182 C 
ATOM     26  C   UNL     1      10.623   0.922  24.681  0.00  0.00    +0.055 C 
ATOM     27  F   UNL     1      10.085   2.834  23.497  0.00  0.00    -0.235 F 
ATOM     28  C   UNL     1       9.825   0.829  22.263  0.00  0.00    +0.187 C 
BRANCH  24  29
ATOM     29  N   UNL     1       7.803   1.310  25.308  0.00  0.00    -0.271 N 
ATOM     30  C   UNL     1       7.640   2.496  26.020  0.00  0.00    +0.331 A 
ATOM     31  O   UNL     1       7.794   3.616  25.547  0.00  0.00    -0.246 OA
ATOM     32  N   UNL     1       7.285   2.348  27.338  0.00  0.00    -0.275 N 
ATOM     33  H   UNL     1       7.150   3.197  27.865  0.00  0.00    +0.173 HD
ATOM     34  C   UNL     1       7.097   1.170  27.998  0.00  0.00    +0.254 A 
ATOM     35  O   UNL     1       6.785   1.102  29.181  0.00  0.00    -0.268 OA
ATOM     36  C   UNL     1       7.299  -0.045  27.197  0.00  0.00    +0.088 A 
ATOM     37  C   UNL     1       7.633   0.078  25.913  0.00  0.00    +0.098 A 
ENDBRANCH  24  29
BRANCH  28  38
ATOM     38  O   UNL     1       9.496   1.759  21.214  0.00  0.00    -0.386 OA
ATOM     39  H   UNL     1       9.147   1.252  20.462  0.00  0.00    +0.210 HD
ENDBRANCH  28  38
ENDBRANCH  21  22
ENDBRANCH   1  21
TORSDOF 12
ENDMDL
MODEL 2
REMARK VINA RESULT:      -7.0      2.080      3.339
REMARK  Name = 
REMARK  16 active torsions:
REMARK  status: ('A' for Active; 'I' for Inactive)
REMARK    1  A    between atoms: C_1  and  C_2
REMARK    2  A    between atoms: C_2  and  C_4
REMARK    3  A    between atoms: C_2  and  N_10
REMARK    4  A    between atoms: C_4  and  O_6
REMARK    5  A    between atoms: O_6  and  C_7
REMARK    6  A    between atoms: C_7  and  C_8
REMARK    7  A    between atoms: C_7  and  C_9
REMARK    8  A    between atoms: N_10  and  P_11
REMARK    9  A    between atoms: P_11  and  O_13
REMARK   10  A    between atoms: P_11  and  O_34
REMARK   11  A    between atoms: O_13  and  C_14
REMARK   12  A    between atoms: C_14  and  C_15
REMARK   13  A    between atoms: C_17  and  O_33
REMARK   14  A    between atoms: C_19  and  C_31
REMARK   15  A    between atoms: C_20  and  N_23
REMARK   16  A    between atoms: O_34  and  C_35
REMARK                            x       y       z     vdW  Elec       q    Type
REMARK                         _______ _______ _______ _____ _____    ______ ____
ROOT
ATOM      1  O   UNL     1       8.159  -1.964  23.525  0.00  0.00    -0.284 OA
ENDROOT
BRANCH   1   2
ATOM      2  P   UNL     1       8.818  -3.262  24.243  0.00  0.00    +0.462 P 
ATOM      3  O   UNL     1      10.291  -3.334  23.982  0.00  0.00    -0.228 OA
BRANCH   2   4
ATOM      4  N   UNL     1       7.888  -4.497  23.711  0.00  0.00    -0.199 NA
ATOM      5  H   UNL     1       7.153  -4.692  24.384  0.00  0.00    +0.135 HD
BRANCH   4   7
ATOM      6  C   UNL     1       7.250  -5.819  21.756  0.00  0.00    +0.036 C 
ATOM      7  C   UNL     1       7.292  -4.420  22.365  0.00  0.00    +0.171 C 
BRANCH   7   8
ATOM      8  C   UNL     1       5.851  -3.889  22.390  0.00  0.00    +0.325 C 
ATOM      9  O   UNL     1       5.296  -3.326  21.455  0.00  0.00    -0.249 OA
BRANCH   8  10
ATOM     10  O   UNL     1       5.337  -4.061  23.645  0.00  0.00    -0.461 OA
BRANCH  10  11
ATOM     11  C   UNL     1       4.266  -5.009  23.815  0.00  0.00    +0.170 C 
ATOM     12  C   UNL     1       3.166  -4.296  24.600  0.00  0.00    +0.052 C 
ATOM     13  C   UNL     1       4.756  -6.228  24.585  0.00  0.00    +0.052 C 
ENDBRANCH  10  11
ENDBRANCH   8  10
ENDBRANCH   7   8
ENDBRANCH   4   7
ENDBRANCH   2   4
BRANCH   2  14
ATOM     14  O   UNL     1       8.422  -2.971  25.779  0.00  0.00    -0.413 OA
BRANCH  14  15
ATOM     15  C   UNL     1       7.480  -3.631  26.515  0.00  0.00    +0.131 A 
ATOM     16  C   UNL     1       6.314  -2.916  26.803  0.00  0.00    +0.046 A 
ATOM     17  C   UNL     1       5.291  -3.504  27.548  0.00  0.00    +0.004 A 
ATOM     18  C   UNL     1       5.436  -4.808  28.016  0.00  0.00    +0.000 A 
ATOM     19  C   UNL     1       6.606  -5.516  27.747  0.00  0.00    +0.004 A 
ATOM     20  C   UNL     1       7.629  -4.928  26.998  0.00  0.00    +0.046 A 
ENDBRANCH  14  15
ENDBRANCH   2  14
ENDBRANCH   1   2
BRANCH   1  21
ATOM     21  C   UNL     1       8.712  -0.712  23.892  0.00  0.00    +0.206 C 
BRANCH  21  22
ATOM     22  C   UNL     1       7.636   0.234  24.422  0.00  0.00    +0.179 C 
ATOM     23  O   UNL     1       8.272   1.417  24.938  0.00  0.00    -0.345 OA
ATOM     24  C   UNL     1       7.914   2.548  24.107  0.00  0.00    +0.263 C 
ATOM     25  C   UNL     1       7.179   2.009  22.861  0.00  0.00    +0.182 C 
ATOM     26  C   UNL     1       8.038   1.824  21.614  0.00  0.00    +0.055 C 
ATOM     27  F   UNL     1       6.161   2.843  22.501  0.00  0.00    -0.235 F 
ATOM     28  C   UNL     1       6.605   0.694  23.392  0.00  0.00    +0.187 C 
BRANCH  24  29
ATOM     29  N   UNL     1       9.115   3.354  23.849  0.00  0.00    -0.271 N 
ATOM     30  C   UNL     1       8.947   4.729  23.701  0.00  0.00    +0.331 A 
ATOM     31  O   UNL     1       7.870   5.309  23.779  0.00  0.00    -0.246 OA
ATOM     32  N   UNL     1      10.095   5.439  23.449  0.00  0.00    -0.275 N 
ATOM     33  H   UNL     1       9.993   6.438  23.353  0.00  0.00    +0.173 HD
ATOM     34  C   UNL     1      11.352   4.927  23.320  0.00  0.00    +0.254 A 
ATOM     35  O   UNL     1      12.340   5.613  23.090  0.00  0.00    -0.268 OA
ATOM     36  C   UNL     1      11.462   3.470  23.472  0.00  0.00    +0.088 A 
ATOM     37  C   UNL     1      10.360   2.764  23.728  0.00  0.00    +0.098 A 
ENDBRANCH  24  29
BRANCH  28  38
ATOM     38  O   UNL     1       5.372   0.954  24.090  0.00  0.00    -0.386 OA
ATOM     39  H   UNL     1       4.964   1.743  23.694  0.00  0.00    +0.210 HD
ENDBRANCH  28  38
ENDBRANCH  21  22
ENDBRANCH   1  21
TORSDOF 12
ENDMDL
MODEL 3
REMARK VINA RESULT:      -7.0      2.877      7.006
REMARK  Name = 
REMARK  16 active torsions:
REMARK  status: ('A' for Active; 'I' for Inactive)
REMARK    1  A    between atoms: C_1  and  C_2
REMARK    2  A    between atoms: C_2  and  C_4
REMARK    3  A    between atoms: C_2  and  N_10
REMARK    4  A    between atoms: C_4  and  O_6
REMARK    5  A    between atoms: O_6  and  C_7
REMARK    6  A    between atoms: C_7  and  C_8
REMARK    7  A    between atoms: C_7  and  C_9
REMARK    8  A    between atoms: N_10  and  P_11
REMARK    9  A    between atoms: P_11  and  O_13
REMARK   10  A    between atoms: P_11  and  O_34
REMARK   11  A    between atoms: O_13  and  C_14
REMARK   12  A    between atoms: C_14  and  C_15
REMARK   13  A    between atoms: C_17  and  O_33
REMARK   14  A    between atoms: C_19  and  C_31
REMARK   15  A    between atoms: C_20  and  N_23
REMARK   16  A    between atoms: O_34  and  C_35
REMARK                            x       y       z     vdW  Elec       q    Type
REMARK                         _______ _______ _______ _____ _____    ______ ____
ROOT
ATOM      1  O   UNL     1       8.688  -3.347  23.754  0.00  0.00    -0.284 OA
ENDROOT
BRANCH   1   2
ATOM      2  P   UNL     1       8.760  -2.281  24.976  0.00  0.00    +0.462 P 
ATOM      3  O   UNL     1       8.880  -2.980  26.296  0.00  0.00    -0.228 OA
BRANCH   2   4
ATOM      4  N   UNL     1       7.446  -1.339  24.729  0.00  0.00    -0.199 NA
ATOM      5  H   UNL     1       6.827  -1.779  24.055  0.00  0.00    +0.135 HD
BRANCH   4   7
ATOM      6  C   UNL     1       7.387   0.234  26.600  0.00  0.00    +0.036 C 
ATOM      7  C   UNL     1       6.650  -0.898  25.890  0.00  0.00    +0.171 C 
BRANCH   7   8
ATOM      8  C   UNL     1       5.269  -0.361  25.485  0.00  0.00    +0.325 C 
ATOM      9  O   UNL     1       5.059   0.755  25.029  0.00  0.00    -0.249 OA
BRANCH   8  10
ATOM     10  O   UNL     1       4.320  -1.290  25.811  0.00  0.00    -0.461 OA
BRANCH  10  11
ATOM     11  C   UNL     1       4.259  -1.745  27.176  0.00  0.00    +0.170 C 
ATOM     12  C   UNL     1       3.384  -2.998  27.185  0.00  0.00    +0.052 C 
ATOM     13  C   UNL     1       3.647  -0.670  28.065  0.00  0.00    +0.052 C 
ENDBRANCH  10  11
ENDBRANCH   8  10
ENDBRANCH   7   8
ENDBRANCH   4   7
ENDBRANCH   2   4
BRANCH   2  14
ATOM     14  O   UNL     1      10.062  -1.436  24.543  0.00  0.00    -0.413 OA
BRANCH  14  15
ATOM     15  C   UNL     1      10.077  -0.284  23.809  0.00  0.00    +0.131 A 
ATOM     16  C   UNL     1      10.357   0.890  24.515  0.00  0.00    +0.046 A 
ATOM     17  C   UNL     1      10.397   2.118  23.854  0.00  0.00    +0.004 A 
ATOM     18  C   UNL     1      10.147   2.178  22.485  0.00  0.00    +0.000 A 
ATOM     19  C   UNL     1       9.847   1.011  21.784  0.00  0.00    +0.004 A 
ATOM     20  C   UNL     1       9.810  -0.220  22.445  0.00  0.00    +0.046 A 
ENDBRANCH  14  15
ENDBRANCH   2  14
ENDBRANCH   1   2
BRANCH   1  21
ATOM     21  C   UNL     1       7.547  -3.246  22.917  0.00  0.00    +0.206 C 
BRANCH  21  22
ATOM     22  C   UNL     1       7.166  -4.606  22.336  0.00  0.00    +0.179 C 
ATOM     23  O   UNL     1       7.209  -5.588  23.388  0.00  0.00    -0.345 OA
ATOM     24  C   UNL     1       5.867  -6.066  23.644  0.00  0.00    +0.263 C 
ATOM     25  C   UNL     1       4.885  -5.175  22.854  0.00  0.00    +0.182 C 
ATOM     26  C   UNL     1       4.242  -4.038  23.642  0.00  0.00    +0.055 C 
ATOM     27  F   UNL     1       3.856  -5.917  22.351  0.00  0.00    -0.235 F 
ATOM     28  C   UNL     1       5.774  -4.683  21.711  0.00  0.00    +0.187 C 
BRANCH  24  29
ATOM     29  N   UNL     1       5.650  -6.135  25.096  0.00  0.00    -0.271 N 
ATOM     30  C   UNL     1       4.660  -7.000  25.558  0.00  0.00    +0.331 A 
ATOM     31  O   UNL     1       3.966  -7.708  24.838  0.00  0.00    -0.246 OA
ATOM     32  N   UNL     1       4.486  -7.021  26.920  0.00  0.00    -0.275 N 
ATOM     33  H   UNL     1       3.781  -7.651  27.273  0.00  0.00    +0.173 HD
ATOM     34  C   UNL     1       5.170  -6.278  27.836  0.00  0.00    +0.254 A 
ATOM     35  O   UNL     1       4.965  -6.338  29.042  0.00  0.00    -0.268 OA
ATOM     36  C   UNL     1       6.190  -5.375  27.286  0.00  0.00    +0.088 A 
ATOM     37  C   UNL     1       6.382  -5.348  25.967  0.00  0.00    +0.098 A 
ENDBRANCH  24  29
BRANCH  28  38
ATOM     38  O   UNL     1       5.814  -5.678  20.670  0.00  0.00    -0.386 OA
ATOM     39  H   UNL     1       5.780  -5.218  19.814  0.00  0.00    +0.210 HD
ENDBRANCH  28  38
ENDBRANCH  21  22
ENDBRANCH   1  21
TORSDOF 12
ENDMDL
MODEL 4
REMARK VINA RESULT:      -6.9      2.889      7.277
REMARK  Name = 
REMARK  16 active torsions:
REMARK  status: ('A' for Active; 'I' for Inactive)
REMARK    1  A    between atoms: C_1  and  C_2
REMARK    2  A    between atoms: C_2  and  C_4
REMARK    3  A    between atoms: C_2  and  N_10
REMARK    4  A    between atoms: C_4  and  O_6
REMARK    5  A    between atoms: O_6  and  C_7
REMARK    6  A    between atoms: C_7  and  C_8
REMARK    7  A    between atoms: C_7  and  C_9
REMARK    8  A    between atoms: N_10  and  P_11
REMARK    9  A    between atoms: P_11  and  O_13
REMARK   10  A    between atoms: P_11  and  O_34
REMARK   11  A    between atoms: O_13  and  C_14
REMARK   12  A    between atoms: C_14  and  C_15
REMARK   13  A    between atoms: C_17  and  O_33
REMARK   14  A    between atoms: C_19  and  C_31
REMARK   15  A    between atoms: C_20  and  N_23
REMARK   16  A    between atoms: O_34  and  C_35
REMARK                            x       y       z     vdW  Elec       q    Type
REMARK                         _______ _______ _______ _____ _____    ______ ____
ROOT
ATOM      1  O   UNL     1       8.704  -3.452  23.565  0.00  0.00    -0.284 OA
ENDROOT
BRANCH   1   2
ATOM      2  P   UNL     1       8.854  -2.512  24.880  0.00  0.00    +0.462 P 
ATOM      3  O   UNL     1       9.057  -3.337  26.114  0.00  0.00    -0.228 OA
BRANCH   2   4
ATOM      4  N   UNL     1       7.529  -1.557  24.811  0.00  0.00    -0.199 NA
ATOM      5  H   UNL     1       6.841  -1.965  24.183  0.00  0.00    +0.135 HD
BRANCH   4   7
ATOM      6  C   UNL     1       7.770  -0.230  26.850  0.00  0.00    +0.036 C 
ATOM      7  C   UNL     1       6.857  -1.168  26.064  0.00  0.00    +0.171 C 
BRANCH   7   8
ATOM      8  C   UNL     1       5.539  -0.421  25.818  0.00  0.00    +0.325 C 
ATOM      9  O   UNL     1       4.462  -0.958  25.589  0.00  0.00    -0.249 OA
BRANCH   8  10
ATOM     10  O   UNL     1       5.789   0.923  25.797  0.00  0.00    -0.461 OA
BRANCH  10  11
ATOM     11  C   UNL     1       5.321   1.681  24.664  0.00  0.00    +0.170 C 
ATOM     12  C   UNL     1       6.399   1.573  23.586  0.00  0.00    +0.052 C 
ATOM     13  C   UNL     1       5.113   3.138  25.053  0.00  0.00    +0.052 C 
ENDBRANCH  10  11
ENDBRANCH   8  10
ENDBRANCH   7   8
ENDBRANCH   4   7
ENDBRANCH   2   4
BRANCH   2  14
ATOM     14  O   UNL     1      10.128  -1.621  24.451  0.00  0.00    -0.413 OA
BRANCH  14  15
ATOM     15  C   UNL     1      10.098  -0.412  23.818  0.00  0.00    +0.131 A 
ATOM     16  C   UNL     1       9.817  -0.442  22.449  0.00  0.00    +0.046 A 
ATOM     17  C   UNL     1       9.763   0.742  21.713  0.00  0.00    +0.004 A 
ATOM     18  C   UNL     1      10.000   1.961  22.342  0.00  0.00    +0.000 A 
ATOM     19  C   UNL     1      10.300   1.992  23.704  0.00  0.00    +0.004 A 
ATOM     20  C   UNL     1      10.352   0.807  24.442  0.00  0.00    +0.046 A 
ENDBRANCH  14  15
ENDBRANCH   2  14
ENDBRANCH   1   2
BRANCH   1  21
ATOM     21  C   UNL     1       7.461  -3.369  22.889  0.00  0.00    +0.206 C 
BRANCH  21  22
ATOM     22  C   UNL     1       7.044  -4.728  22.330  0.00  0.00    +0.179 C 
ATOM     23  O   UNL     1       7.087  -5.699  23.392  0.00  0.00    -0.345 OA
ATOM     24  C   UNL     1       5.740  -6.149  23.676  0.00  0.00    +0.263 C 
ATOM     25  C   UNL     1       4.762  -5.248  22.893  0.00  0.00    +0.182 C 
ATOM     26  C   UNL     1       4.155  -4.090  23.679  0.00  0.00    +0.055 C 
ATOM     27  F   UNL     1       3.710  -5.975  22.415  0.00  0.00    -0.235 F 
ATOM     28  C   UNL     1       5.640  -4.785  21.729  0.00  0.00    +0.187 C 
BRANCH  24  29
ATOM     29  N   UNL     1       5.547  -6.198  25.132  0.00  0.00    -0.271 N 
ATOM     30  C   UNL     1       4.567  -7.058  25.622  0.00  0.00    +0.331 A 
ATOM     31  O   UNL     1       3.863  -7.778  24.923  0.00  0.00    -0.246 OA
ATOM     32  N   UNL     1       4.415  -7.060  26.987  0.00  0.00    -0.275 N 
ATOM     33  H   UNL     1       3.718  -7.687  27.360  0.00  0.00    +0.173 HD
ATOM     34  C   UNL     1       5.112  -6.303  27.881  0.00  0.00    +0.254 A 
ATOM     35  O   UNL     1       4.927  -6.347  29.091  0.00  0.00    -0.268 OA
ATOM     36  C   UNL     1       6.121  -5.406  27.301  0.00  0.00    +0.088 A 
ATOM     37  C   UNL     1       6.291  -5.397  25.980  0.00  0.00    +0.098 A 
ENDBRANCH  24  29
BRANCH  28  38
ATOM     38  O   UNL     1       5.643  -5.792  20.699  0.00  0.00    -0.386 OA
ATOM     39  H   UNL     1       6.543  -5.844  20.333  0.00  0.00    +0.210 HD
ENDBRANCH  28  38
ENDBRANCH  21  22
ENDBRANCH   1  21
TORSDOF 12
ENDMDL
MODEL 5
REMARK VINA RESULT:      -6.9      2.015      2.437
REMARK  Name = 
REMARK  16 active torsions:
REMARK  status: ('A' for Active; 'I' for Inactive)
REMARK    1  A    between atoms: C_1  and  C_2
REMARK    2  A    between atoms: C_2  and  C_4
REMARK    3  A    between atoms: C_2  and  N_10
REMARK    4  A    between atoms: C_4  and  O_6
REMARK    5  A    between atoms: O_6  and  C_7
REMARK    6  A    between atoms: C_7  and  C_8
REMARK    7  A    between atoms: C_7  and  C_9
REMARK    8  A    between atoms: N_10  and  P_11
REMARK    9  A    between atoms: P_11  and  O_13
REMARK   10  A    between atoms: P_11  and  O_34
REMARK   11  A    between atoms: O_13  and  C_14
REMARK   12  A    between atoms: C_14  and  C_15
REMARK   13  A    between atoms: C_17  and  O_33
REMARK   14  A    between atoms: C_19  and  C_31
REMARK   15  A    between atoms: C_20  and  N_23
REMARK   16  A    between atoms: O_34  and  C_35
REMARK                            x       y       z     vdW  Elec       q    Type
REMARK                         _______ _______ _______ _____ _____    ______ ____
ROOT
ATOM      1  O   UNL     1       7.990  -3.242  25.191  0.00  0.00    -0.284 OA
ENDROOT
BRANCH   1   2
ATOM      2  P   UNL     1       8.086  -4.861  25.265  0.00  0.00    +0.462 P 
ATOM      3  O   UNL     1       9.454  -5.338  24.881  0.00  0.00    -0.228 OA
BRANCH   2   4
ATOM      4  N   UNL     1       6.822  -5.353  24.353  0.00  0.00    -0.199 NA
ATOM      5  H   UNL     1       5.950  -5.085  24.797  0.00  0.00    +0.135 HD
BRANCH   4   7
ATOM      6  C   UNL     1       7.128  -6.180  22.072  0.00  0.00    +0.036 C 
ATOM      7  C   UNL     1       6.770  -4.969  22.930  0.00  0.00    +0.171 C 
BRANCH   7   8
ATOM      8  C   UNL     1       5.372  -4.501  22.499  0.00  0.00    +0.325 C 
ATOM      9  O   UNL     1       5.126  -3.421  21.979  0.00  0.00    -0.249 OA
BRANCH   8  10
ATOM     10  O   UNL     1       4.454  -5.439  22.881  0.00  0.00    -0.461 OA
BRANCH  10  11
ATOM     11  C   UNL     1       3.159  -4.980  23.315  0.00  0.00    +0.170 C 
ATOM     12  C   UNL     1       3.264  -4.718  24.817  0.00  0.00    +0.052 C 
ATOM     13  C   UNL     1       2.103  -6.042  23.041  0.00  0.00    +0.052 C 
ENDBRANCH  10  11
ENDBRANCH   8  10
ENDBRANCH   7   8
ENDBRANCH   4   7
ENDBRANCH   2   4
BRANCH   2  14
ATOM     14  O   UNL     1       7.702  -5.100  26.813  0.00  0.00    -0.413 OA
BRANCH  14  15
ATOM     15  C   UNL     1       6.444  -5.188  27.334  0.00  0.00    +0.131 A 
ATOM     16  C   UNL     1       5.845  -3.979  27.701  0.00  0.00    +0.046 A 
ATOM     17  C   UNL     1       4.558  -3.964  28.241  0.00  0.00    +0.004 A 
ATOM     18  C   UNL     1       3.869  -5.161  28.426  0.00  0.00    +0.000 A 
ATOM     19  C   UNL     1       4.473  -6.369  28.079  0.00  0.00    +0.004 A 
ATOM     20  C   UNL     1       5.760  -6.384  27.535  0.00  0.00    +0.046 A 
ENDBRANCH  14  15
ENDBRANCH   2  14
ENDBRANCH   1   2
BRANCH   1  21
ATOM     21  C   UNL     1       9.185  -2.571  24.828  0.00  0.00    +0.206 C 
BRANCH  21  22
ATOM     22  C   UNL     1       9.198  -2.234  23.338  0.00  0.00    +0.179 C 
ATOM     23  O   UNL     1       7.930  -1.654  22.983  0.00  0.00    -0.345 OA
ATOM     24  C   UNL     1       8.129  -0.267  22.617  0.00  0.00    +0.263 C 
ATOM     25  C   UNL     1       9.583   0.114  22.971  0.00  0.00    +0.182 C 
ATOM     26  C   UNL     1       9.776   0.814  24.312  0.00  0.00    +0.055 C 
ATOM     27  F   UNL     1      10.108   0.949  22.028  0.00  0.00    -0.235 F 
ATOM     28  C   UNL     1      10.280  -1.247  22.901  0.00  0.00    +0.187 C 
BRANCH  24  29
ATOM     29  N   UNL     1       7.078   0.549  23.240  0.00  0.00    -0.271 N 
ATOM     30  C   UNL     1       6.765   1.765  22.635  0.00  0.00    +0.331 A 
ATOM     31  O   UNL     1       7.301   2.192  21.619  0.00  0.00    -0.246 OA
ATOM     32  N   UNL     1       5.787   2.498  23.259  0.00  0.00    -0.275 N 
ATOM     33  H   UNL     1       5.538   3.375  22.827  0.00  0.00    +0.173 HD
ATOM     34  C   UNL     1       5.121   2.156  24.399  0.00  0.00    +0.254 A 
ATOM     35  O   UNL     1       4.258   2.857  24.912  0.00  0.00    -0.268 OA
ATOM     36  C   UNL     1       5.506   0.871  24.997  0.00  0.00    +0.088 A 
ATOM     37  C   UNL     1       6.447   0.139  24.400  0.00  0.00    +0.098 A 
ENDBRANCH  24  29
BRANCH  28  38
ATOM     38  O   UNL     1      10.619  -1.543  21.533  0.00  0.00    -0.386 OA
ATOM     39  H   UNL     1       9.970  -2.184  21.195  0.00  0.00    +0.210 HD
ENDBRANCH  28  38
ENDBRANCH  21  22
ENDBRANCH   1  21
TORSDOF 12
ENDMDL
MODEL 6
REMARK VINA RESULT:      -6.6      2.526      3.997
REMARK  Name = 
REMARK  16 active torsions:
REMARK  status: ('A' for Active; 'I' for Inactive)
REMARK    1  A    between atoms: C_1  and  C_2
REMARK    2  A    between atoms: C_2  and  C_4
REMARK    3  A    between atoms: C_2  and  N_10
REMARK    4  A    between atoms: C_4  and  O_6
REMARK    5  A    between atoms: O_6  and  C_7
REMARK    6  A    between atoms: C_7  and  C_8
REMARK    7  A    between atoms: C_7  and  C_9
REMARK    8  A    between atoms: N_10  and  P_11
REMARK    9  A    between atoms: P_11  and  O_13
REMARK   10  A    between atoms: P_11  and  O_34
REMARK   11  A    between atoms: O_13  and  C_14
REMARK   12  A    between atoms: C_14  and  C_15
REMARK   13  A    between atoms: C_17  and  O_33
REMARK   14  A    between atoms: C_19  and  C_31
REMARK   15  A    between atoms: C_20  and  N_23
REMARK   16  A    between atoms: O_34  and  C_35
REMARK                            x       y       z     vdW  Elec       q    Type
REMARK                         _______ _______ _______ _____ _____    ______ ____
ROOT
ATOM      1  O   UNL     1       5.989  -2.731  23.744  0.00  0.00    -0.284 OA
ENDROOT
BRANCH   1   2
ATOM      2  P   UNL     1       5.505  -4.042  22.917  0.00  0.00    +0.462 P 
ATOM      3  O   UNL     1       5.633  -3.826  21.440  0.00  0.00    -0.228 OA
BRANCH   2   4
ATOM      4  N   UNL     1       4.013  -4.334  23.519  0.00  0.00    -0.199 NA
ATOM      5  H   UNL     1       3.375  -4.567  22.764  0.00  0.00    +0.135 HD
BRANCH   4   7
ATOM      6  C   UNL     1       2.786  -4.836  25.573  0.00  0.00    +0.036 C 
ATOM      7  C   UNL     1       3.855  -5.325  24.599  0.00  0.00    +0.171 C 
BRANCH   7   8
ATOM      8  C   UNL     1       3.403  -6.697  24.076  0.00  0.00    +0.325 C 
ATOM      9  O   UNL     1       3.700  -7.771  24.582  0.00  0.00    -0.249 OA
BRANCH   8  10
ATOM     10  O   UNL     1       2.708  -6.519  22.912  0.00  0.00    -0.461 OA
BRANCH  10  11
ATOM     11  C   UNL     1       1.319  -6.899  22.888  0.00  0.00    +0.170 C 
ATOM     12  C   UNL     1       1.162  -7.929  21.770  0.00  0.00    +0.052 C 
ATOM     13  C   UNL     1       0.444  -5.684  22.610  0.00  0.00    +0.052 C 
ENDBRANCH  10  11
ENDBRANCH   8  10
ENDBRANCH   7   8
ENDBRANCH   4   7
ENDBRANCH   2   4
BRANCH   2  14
ATOM     14  O   UNL     1       6.508  -5.149  23.523  0.00  0.00    -0.413 OA
BRANCH  14  15
ATOM     15  C   UNL     1       7.377  -4.978  24.561  0.00  0.00    +0.131 A 
ATOM     16  C   UNL     1       8.708  -5.326  24.312  0.00  0.00    +0.046 A 
ATOM     17  C   UNL     1       9.674  -5.185  25.310  0.00  0.00    +0.004 A 
ATOM     18  C   UNL     1       9.308  -4.705  26.565  0.00  0.00    +0.000 A 
ATOM     19  C   UNL     1       7.978  -4.376  26.822  0.00  0.00    +0.004 A 
ATOM     20  C   UNL     1       7.012  -4.514  25.822  0.00  0.00    +0.046 A 
ENDBRANCH  14  15
ENDBRANCH   2  14
ENDBRANCH   1   2
BRANCH   1  21
ATOM     21  C   UNL     1       6.413  -1.630  22.958  0.00  0.00    +0.206 C 
BRANCH  21  22
ATOM     22  C   UNL     1       7.937  -1.531  22.922  0.00  0.00    +0.179 C 
ATOM     23  O   UNL     1       8.306  -0.352  22.183  0.00  0.00    -0.345 OA
ATOM     24  C   UNL     1       8.932   0.594  23.083  0.00  0.00    +0.263 C 
ATOM     25  C   UNL     1       8.752   0.070  24.524  0.00  0.00    +0.182 C 
ATOM     26  C   UNL     1       7.577   0.658  25.300  0.00  0.00    +0.055 C 
ATOM     27  F   UNL     1       9.865   0.322  25.273  0.00  0.00    -0.235 F 
ATOM     28  C   UNL     1       8.618  -1.435  24.286  0.00  0.00    +0.187 C 
BRANCH  24  29
ATOM     29  N   UNL     1       8.400   1.937  22.813  0.00  0.00    -0.271 N 
ATOM     30  C   UNL     1       9.209   3.025  23.132  0.00  0.00    +0.331 A 
ATOM     31  O   UNL     1      10.333   2.937  23.614  0.00  0.00    -0.246 OA
ATOM     32  N   UNL     1       8.665   4.259  22.874  0.00  0.00    -0.275 N 
ATOM     33  H   UNL     1       9.243   5.058  23.087  0.00  0.00    +0.173 HD
ATOM     34  C   UNL     1       7.428   4.507  22.359  0.00  0.00    +0.254 A 
ATOM     35  O   UNL     1       6.995   5.635  22.155  0.00  0.00    -0.268 OA
ATOM     36  C   UNL     1       6.617   3.320  22.058  0.00  0.00    +0.088 A 
ATOM     37  C   UNL     1       7.131   2.112  22.290  0.00  0.00    +0.098 A 
ENDBRANCH  24  29
BRANCH  28  38
ATOM     38  O   UNL     1       9.929  -2.020  24.165  0.00  0.00    -0.386 OA
ATOM     39  H   UNL     1      10.236  -1.882  23.253  0.00  0.00    +0.210 HD
ENDBRANCH  28  38
ENDBRANCH  21  22
ENDBRANCH   1  21
TORSDOF 12
ENDMDL
MODEL 7
REMARK VINA RESULT:      -6.6      2.750      7.303
REMARK  Name = 
REMARK  16 active torsions:
REMARK  status: ('A' for Active; 'I' for Inactive)
REMARK    1  A    between atoms: C_1  and  C_2
REMARK    2  A    between atoms: C_2  and  C_4
REMARK    3  A    between atoms: C_2  and  N_10
REMARK    4  A    between atoms: C_4  and  O_6
REMARK    5  A    between atoms: O_6  and  C_7
REMARK    6  A    between atoms: C_7  and  C_8
REMARK    7  A    between atoms: C_7  and  C_9
REMARK    8  A    between atoms: N_10  and  P_11
REMARK    9  A    between atoms: P_11  and  O_13
REMARK   10  A    between atoms: P_11  and  O_34
REMARK   11  A    between atoms: O_13  and  C_14
REMARK   12  A    between atoms: C_14  and  C_15
REMARK   13  A    between atoms: C_17  and  O_33
REMARK   14  A    between atoms: C_19  and  C_31
REMARK   15  A    between atoms: C_20  and  N_23
REMARK   16  A    between atoms: O_34  and  C_35
REMARK                            x       y       z     vdW  Elec       q    Type
REMARK                         _______ _______ _______ _____ _____    ______ ____
ROOT
ATOM      1  O   UNL     1       7.529  -1.565  22.264  0.00  0.00    -0.284 OA
ENDROOT
BRANCH   1   2
ATOM      2  P   UNL     1       7.710  -0.183  23.095  0.00  0.00    +0.462 P 
ATOM      3  O   UNL     1       7.094   0.971  22.364  0.00  0.00    -0.228 OA
BRANCH   2   4
ATOM      4  N   UNL     1       9.318  -0.129  23.388  0.00  0.00    -0.199 NA
ATOM      5  H   UNL     1       9.831  -0.295  22.528  0.00  0.00    +0.135 HD
BRANCH   4   7
ATOM      6  C   UNL     1      11.220   0.671  24.699  0.00  0.00    +0.036 C 
ATOM      7  C   UNL     1       9.886   1.053  24.062  0.00  0.00    +0.171 C 
BRANCH   7   8
ATOM      8  C   UNL     1      10.160   2.209  23.089  0.00  0.00    +0.325 C 
ATOM      9  O   UNL     1      10.356   2.081  21.888  0.00  0.00    -0.249 OA
BRANCH   8  10
ATOM     10  O   UNL     1      10.244   3.374  23.800  0.00  0.00    -0.461 OA
BRANCH  10  11
ATOM     11  C   UNL     1       9.078   4.219  23.856  0.00  0.00    +0.170 C 
ATOM     12  C   UNL     1       9.573   5.661  23.759  0.00  0.00    +0.052 C 
ATOM     13  C   UNL     1       8.336   4.006  25.169  0.00  0.00    +0.052 C 
ENDBRANCH  10  11
ENDBRANCH   8  10
ENDBRANCH   7   8
ENDBRANCH   4   7
ENDBRANCH   2   4
BRANCH   2  14
ATOM     14  O   UNL     1       6.969  -0.578  24.472  0.00  0.00    -0.413 OA
BRANCH  14  15
ATOM     15  C   UNL     1       6.557   0.282  25.448  0.00  0.00    +0.131 A 
ATOM     16  C   UNL     1       7.326   0.300  26.616  0.00  0.00    +0.046 A 
ATOM     17  C   UNL     1       6.987   1.147  27.672  0.00  0.00    +0.004 A 
ATOM     18  C   UNL     1       5.870   1.973  27.568  0.00  0.00    +0.000 A 
ATOM     19  C   UNL     1       5.090   1.942  26.413  0.00  0.00    +0.004 A 
ATOM     20  C   UNL     1       5.431   1.096  25.353  0.00  0.00    +0.046 A 
ENDBRANCH  14  15
ENDBRANCH   2  14
ENDBRANCH   1   2
BRANCH   1  21
ATOM     21  C   UNL     1       8.053  -2.728  22.884  0.00  0.00    +0.206 C 
BRANCH  21  22
ATOM     22  C   UNL     1       7.411  -3.993  22.318  0.00  0.00    +0.179 C 
ATOM     23  O   UNL     1       7.542  -5.051  23.285  0.00  0.00    -0.345 OA
ATOM     24  C   UNL     1       6.228  -5.406  23.779  0.00  0.00    +0.263 C 
ATOM     25  C   UNL     1       5.222  -4.361  23.251  0.00  0.00    +0.182 C 
ATOM     26  C   UNL     1       4.881  -3.226  24.213  0.00  0.00    +0.055 C 
ATOM     27  F   UNL     1       4.036  -4.951  22.925  0.00  0.00    -0.235 F 
ATOM     28  C   UNL     1       5.924  -3.877  21.981  0.00  0.00    +0.187 C 
BRANCH  24  29
ATOM     29  N   UNL     1       6.290  -5.563  25.239  0.00  0.00    -0.271 N 
ATOM     30  C   UNL     1       5.379  -6.436  25.831  0.00  0.00    +0.331 A 
ATOM     31  O   UNL     1       4.539  -7.083  25.217  0.00  0.00    -0.246 OA
ATOM     32  N   UNL     1       5.467  -6.540  27.197  0.00  0.00    -0.275 N 
ATOM     33  H   UNL     1       4.823  -7.178  27.641  0.00  0.00    +0.173 HD
ATOM     34  C   UNL     1       6.336  -5.871  28.007  0.00  0.00    +0.254 A 
ATOM     35  O   UNL     1       6.363  -6.003  29.224  0.00  0.00    -0.268 OA
ATOM     36  C   UNL     1       7.260  -4.954  27.324  0.00  0.00    +0.088 A 
ATOM     37  C   UNL     1       7.198  -4.848  25.997  0.00  0.00    +0.098 A 
ENDBRANCH  24  29
BRANCH  28  38
ATOM     38  O   UNL     1       5.646  -4.788  20.902  0.00  0.00    -0.386 OA
ATOM     39  H   UNL     1       6.226  -5.562  21.005  0.00  0.00    +0.210 HD
ENDBRANCH  28  38
ENDBRANCH  21  22
ENDBRANCH   1  21
TORSDOF 12
ENDMDL
MODEL 8
REMARK VINA RESULT:      -6.6      2.293      3.744
REMARK  Name = 
REMARK  16 active torsions:
REMARK  status: ('A' for Active; 'I' for Inactive)
REMARK    1  A    between atoms: C_1  and  C_2
REMARK    2  A    between atoms: C_2  and  C_4
REMARK    3  A    between atoms: C_2  and  N_10
REMARK    4  A    between atoms: C_4  and  O_6
REMARK    5  A    between atoms: O_6  and  C_7
REMARK    6  A    between atoms: C_7  and  C_8
REMARK    7  A    between atoms: C_7  and  C_9
REMARK    8  A    between atoms: N_10  and  P_11
REMARK    9  A    between atoms: P_11  and  O_13
REMARK   10  A    between atoms: P_11  and  O_34
REMARK   11  A    between atoms: O_13  and  C_14
REMARK   12  A    between atoms: C_14  and  C_15
REMARK   13  A    between atoms: C_17  and  O_33
REMARK   14  A    between atoms: C_19  and  C_31
REMARK   15  A    between atoms: C_20  and  N_23
REMARK   16  A    between atoms: O_34  and  C_35
REMARK                            x       y       z     vdW  Elec       q    Type
REMARK                         _______ _______ _______ _____ _____    ______ ____
ROOT
ATOM      1  O   UNL     1       7.202  -2.929  26.363  0.00  0.00    -0.284 OA
ENDROOT
BRANCH   1   2
ATOM      2  P   UNL     1       6.651  -4.453  26.466  0.00  0.00    +0.462 P 
ATOM      3  O   UNL     1       7.654  -5.427  25.929  0.00  0.00    -0.228 OA
BRANCH   2   4
ATOM      4  N   UNL     1       5.193  -4.375  25.730  0.00  0.00    -0.199 NA
ATOM      5  H   UNL     1       5.114  -3.505  25.213  0.00  0.00    +0.135 HD
BRANCH   4   7
ATOM      6  C   UNL     1       3.529  -6.145  25.462  0.00  0.00    +0.036 C 
ATOM      7  C   UNL     1       4.768  -5.486  24.860  0.00  0.00    +0.171 C 
BRANCH   7   8
ATOM      8  C   UNL     1       4.393  -5.016  23.447  0.00  0.00    +0.325 C 
ATOM      9  O   UNL     1       3.252  -4.967  23.006  0.00  0.00    -0.249 OA
BRANCH   8  10
ATOM     10  O   UNL     1       5.539  -4.765  22.746  0.00  0.00    -0.461 OA
BRANCH  10  11
ATOM     11  C   UNL     1       6.217  -5.880  22.134  0.00  0.00    +0.170 C 
ATOM     12  C   UNL     1       7.679  -5.801  22.572  0.00  0.00    +0.052 C 
ATOM     13  C   UNL     1       6.118  -5.790  20.617  0.00  0.00    +0.052 C 
ENDBRANCH  10  11
ENDBRANCH   8  10
ENDBRANCH   7   8
ENDBRANCH   4   7
ENDBRANCH   2   4
BRANCH   2  14
ATOM     14  O   UNL     1       6.398  -4.559  28.055  0.00  0.00    -0.413 OA
BRANCH  14  15
ATOM     15  C   UNL     1       5.249  -4.967  28.669  0.00  0.00    +0.131 A 
ATOM     16  C   UNL     1       5.066  -6.349  28.774  0.00  0.00    +0.046 A 
ATOM     17  C   UNL     1       3.924  -6.866  29.387  0.00  0.00    +0.004 A 
ATOM     18  C   UNL     1       2.955  -6.001  29.889  0.00  0.00    +0.000 A 
ATOM     19  C   UNL     1       3.125  -4.622  29.767  0.00  0.00    +0.004 A 
ATOM     20  C   UNL     1       4.271  -4.105  29.156  0.00  0.00    +0.046 A 
ENDBRANCH  14  15
ENDBRANCH   2  14
ENDBRANCH   1   2
BRANCH   1  21
ATOM     21  C   UNL     1       6.861  -2.232  25.177  0.00  0.00    +0.206 C 
BRANCH  21  22
ATOM     22  C   UNL     1       7.913  -2.442  24.090  0.00  0.00    +0.179 C 
ATOM     23  O   UNL     1       7.642  -1.540  23.002  0.00  0.00    -0.345 OA
ATOM     24  C   UNL     1       8.711  -0.567  22.916  0.00  0.00    +0.263 C 
ATOM     25  C   UNL     1       9.606  -0.732  24.163  0.00  0.00    +0.182 C 
ATOM     26  C   UNL     1       9.316   0.224  25.316  0.00  0.00    +0.055 C 
ATOM     27  F   UNL     1      10.920  -0.552  23.843  0.00  0.00    -0.235 F 
ATOM     28  C   UNL     1       9.358  -2.197  24.524  0.00  0.00    +0.187 C 
BRANCH  24  29
ATOM     29  N   UNL     1       8.130   0.767  22.709  0.00  0.00    -0.271 N 
ATOM     30  C   UNL     1       8.943   1.739  22.130  0.00  0.00    +0.331 A 
ATOM     31  O   UNL     1      10.101   1.554  21.775  0.00  0.00    -0.246 OA
ATOM     32  N   UNL     1       8.361   2.972  21.968  0.00  0.00    -0.275 N 
ATOM     33  H   UNL     1       8.932   3.685  21.538  0.00  0.00    +0.173 HD
ATOM     34  C   UNL     1       7.095   3.325  22.330  0.00  0.00    +0.254 A 
ATOM     35  O   UNL     1       6.633   4.447  22.164  0.00  0.00    -0.268 OA
ATOM     36  C   UNL     1       6.293   2.261  22.950  0.00  0.00    +0.088 A 
ATOM     37  C   UNL     1       6.836   1.053  23.105  0.00  0.00    +0.098 A 
ENDBRANCH  24  29
BRANCH  28  38
ATOM     38  O   UNL     1      10.207  -3.040  23.721  0.00  0.00    -0.386 OA
ATOM     39  H   UNL     1       9.913  -2.967  22.796  0.00  0.00    +0.210 HD
ENDBRANCH  28  38
ENDBRANCH  21  22
ENDBRANCH   1  21
TORSDOF 12
ENDMDL
MODEL 9
REMARK VINA RESULT:      -6.6      2.984      8.100
REMARK  Name = 
REMARK  16 active torsions:
REMARK  status: ('A' for Active; 'I' for Inactive)
REMARK    1  A    between atoms: C_1  and  C_2
REMARK    2  A    between atoms: C_2  and  C_4
REMARK    3  A    between atoms: C_2  and  N_10
REMARK    4  A    between atoms: C_4  and  O_6
REMARK    5  A    between atoms: O_6  and  C_7
REMARK    6  A    between atoms: C_7  and  C_8
REMARK    7  A    between atoms: C_7  and  C_9
REMARK    8  A    between atoms: N_10  and  P_11
REMARK    9  A    between atoms: P_11  and  O_13
REMARK   10  A    between atoms: P_11  and  O_34
REMARK   11  A    between atoms: O_13  and  C_14
REMARK   12  A    between atoms: C_14  and  C_15
REMARK   13  A    between atoms: C_17  and  O_33
REMARK   14  A    between atoms: C_19  and  C_31
REMARK   15  A    between atoms: C_20  and  N_23
REMARK   16  A    between atoms: O_34  and  C_35
REMARK                            x       y       z     vdW  Elec       q    Type
REMARK                         _______ _______ _______ _____ _____    ______ ____
ROOT
ATOM      1  O   UNL     1       5.049  -0.717  25.483  0.00  0.00    -0.284 OA
ENDROOT
BRANCH   1   2
ATOM      2  P   UNL     1       6.065   0.355  24.811  0.00  0.00    +0.462 P 
ATOM      3  O   UNL     1       7.156   0.736  25.765  0.00  0.00    -0.228 OA
BRANCH   2   4
ATOM      4  N   UNL     1       5.067   1.538  24.283  0.00  0.00    -0.199 NA
ATOM      5  H   UNL     1       4.676   2.039  25.076  0.00  0.00    +0.135 HD
BRANCH   4   7
ATOM      6  C   UNL     1       4.384   3.252  22.680  0.00  0.00    +0.036 C 
ATOM      7  C   UNL     1       5.569   2.517  23.302  0.00  0.00    +0.171 C 
BRANCH   7   8
ATOM      8  C   UNL     1       6.479   3.576  23.940  0.00  0.00    +0.325 C 
ATOM      9  O   UNL     1       6.101   4.456  24.702  0.00  0.00    -0.249 OA
BRANCH   8  10
ATOM     10  O   UNL     1       7.744   3.431  23.441  0.00  0.00    -0.461 OA
BRANCH  10  11
ATOM     11  C   UNL     1       8.848   3.514  24.362  0.00  0.00    +0.170 C 
ATOM     12  C   UNL     1       9.543   4.850  24.098  0.00  0.00    +0.052 C 
ATOM     13  C   UNL     1       9.818   2.363  24.129  0.00  0.00    +0.052 C 
ENDBRANCH  10  11
ENDBRANCH   8  10
ENDBRANCH   7   8
ENDBRANCH   4   7
ENDBRANCH   2   4
BRANCH   2  14
ATOM     14  O   UNL     1       6.560  -0.485  23.527  0.00  0.00    -0.413 OA
BRANCH  14  15
ATOM     15  C   UNL     1       7.837  -0.887  23.261  0.00  0.00    +0.131 A 
ATOM     16  C   UNL     1       8.460  -0.273  22.170  0.00  0.00    +0.046 A 
ATOM     17  C   UNL     1       9.766  -0.615  21.819  0.00  0.00    +0.004 A 
ATOM     18  C   UNL     1      10.452  -1.580  22.552  0.00  0.00    +0.000 A 
ATOM     19  C   UNL     1       9.825  -2.208  23.627  0.00  0.00    +0.004 A 
ATOM     20  C   UNL     1       8.518  -1.864  23.981  0.00  0.00    +0.046 A 
ENDBRANCH  14  15
ENDBRANCH   2  14
ENDBRANCH   1   2
BRANCH   1  21
ATOM     21  C   UNL     1       5.628  -1.610  26.419  0.00  0.00    +0.206 C 
BRANCH  21  22
ATOM     22  C   UNL     1       4.646  -2.711  26.814  0.00  0.00    +0.179 C 
ATOM     23  O   UNL     1       4.122  -3.315  25.618  0.00  0.00    -0.345 OA
ATOM     24  C   UNL     1       4.589  -4.683  25.534  0.00  0.00    +0.263 C 
ATOM     25  C   UNL     1       5.651  -4.891  26.635  0.00  0.00    +0.182 C 
ATOM     26  C   UNL     1       7.103  -4.748  26.189  0.00  0.00    +0.055 C 
ATOM     27  F   UNL     1       5.543  -6.137  27.182  0.00  0.00    -0.235 F 
ATOM     28  C   UNL     1       5.234  -3.838  27.663  0.00  0.00    +0.187 C 
BRANCH  24  29
ATOM     29  N   UNL     1       5.024  -4.959  24.158  0.00  0.00    -0.271 N 
ATOM     30  C   UNL     1       4.976  -6.281  23.721  0.00  0.00    +0.331 A 
ATOM     31  O   UNL     1       4.589  -7.223  24.402  0.00  0.00    -0.246 OA
ATOM     32  N   UNL     1       5.403  -6.491  22.433  0.00  0.00    -0.275 N 
ATOM     33  H   UNL     1       5.362  -7.441  22.095  0.00  0.00    +0.173 HD
ATOM     34  C   UNL     1       5.873  -5.545  21.570  0.00  0.00    +0.254 A 
ATOM     35  O   UNL     1       6.245  -5.796  20.431  0.00  0.00    -0.268 OA
ATOM     36  C   UNL     1       5.914  -4.173  22.095  0.00  0.00    +0.088 A 
ATOM     37  C   UNL     1       5.492  -3.947  23.339  0.00  0.00    +0.098 A 
ENDBRANCH  24  29
BRANCH  28  38
ATOM     38  O   UNL     1       4.178  -4.364  28.488  0.00  0.00    -0.386 OA
ATOM     39  H   UNL     1       3.330  -4.065  28.118  0.00  0.00    +0.210 HD
ENDBRANCH  28  38
ENDBRANCH  21  22
ENDBRANCH   1  21
TORSDOF 12
ENDMDL
