MODEL 1
REMARK VINA RESULT:      -6.0      0.000      0.000
REMARK  Name = 
REMARK  3 active torsions:
REMARK  status: ('A' for Active; 'I' for Inactive)
REMARK    1  A    between atoms: C_2  and  N_10
REMARK    2  A    between atoms: C_5  and  C_8
REMARK    3  A    between atoms: C_8  and  O_9
REMARK                            x       y       z     vdW  Elec       q    Type
REMARK                         _______ _______ _______ _____ _____    ______ ____
ROOT
ATOM      1  N   UNL     1       9.862  -0.566  22.914  0.00  0.00    -0.272 N 
ATOM      2  C   UNL     1       9.639   0.333  21.861  0.00  0.00    +0.352 A 
ATOM      3  O   UNL     1       9.249  -0.063  20.765  0.00  0.00    -0.244 OA
ATOM      4  N   UNL     1       9.871   1.673  22.075  0.00  0.00    -0.178 NA
ATOM      5  C   UNL     1      10.383   2.070  23.197  0.00  0.00    +0.123 A 
ATOM      6  N   UNL     1      10.628   3.405  23.341  0.00  0.00    -0.343 N 
ATOM      7  H   UNL     1      10.173   3.973  22.635  0.00  0.00    +0.144 HD
ATOM      8  H   UNL     1      10.601   3.799  24.273  0.00  0.00    +0.144 HD
ATOM      9  C   UNL     1      10.721   1.153  24.297  0.00  0.00    +0.061 A 
ATOM     10  C   UNL     1      10.461  -0.134  24.079  0.00  0.00    +0.096 A 
ENDROOT
BRANCH   1  15
ATOM     11  C   UNL     1       8.198  -2.449  22.388  0.00  0.00    +0.126 C 
ATOM     12  S   UNL     1       7.502  -2.668  24.036  0.00  0.00    -0.123 S 
ATOM     13  C   UNL     1       9.144  -2.917  24.751  0.00  0.00    +0.203 C 
ATOM     14  O   UNL     1      10.142  -2.817  23.723  0.00  0.00    -0.340 OA
ATOM     15  C   UNL     1       9.648  -1.997  22.641  0.00  0.00    +0.235 C 
BRANCH  13  16
ATOM     16  C   UNL     1       9.260  -4.281  25.447  0.00  0.00    +0.198 C 
BRANCH  16  17
ATOM     17  O   UNL     1      10.315  -5.080  24.910  0.00  0.00    -0.392 OA
ATOM     18  H   UNL     1      10.012  -5.382  24.033  0.00  0.00    +0.210 HD
ENDBRANCH  16  17
ENDBRANCH  13  16
ENDBRANCH   1  15
TORSDOF 3
ENDMDL
MODEL 2
REMARK VINA RESULT:      -5.6      2.022      2.416
REMARK  Name = 
REMARK  3 active torsions:
REMARK  status: ('A' for Active; 'I' for Inactive)
REMARK    1  A    between atoms: C_2  and  N_10
REMARK    2  A    between atoms: C_5  and  C_8
REMARK    3  A    between atoms: C_8  and  O_9
REMARK                            x       y       z     vdW  Elec       q    Type
REMARK                         _______ _______ _______ _____ _____    ______ ____
ROOT
ATOM      1  N   UNL     1       8.042  -1.289  23.130  0.00  0.00    -0.272 N 
ATOM      2  C   UNL     1       7.445  -0.024  23.217  0.00  0.00    +0.352 A 
ATOM      3  O   UNL     1       6.356   0.122  23.768  0.00  0.00    -0.244 OA
ATOM      4  N   UNL     1       8.098   1.055  22.668  0.00  0.00    -0.178 NA
ATOM      5  C   UNL     1       9.191   0.877  21.996  0.00  0.00    +0.123 A 
ATOM      6  N   UNL     1       9.778   1.978  21.440  0.00  0.00    -0.343 N 
ATOM      7  H   UNL     1       9.412   2.851  21.804  0.00  0.00    +0.144 HD
ATOM      8  H   UNL     1      10.780   1.971  21.307  0.00  0.00    +0.144 HD
ATOM      9  C   UNL     1       9.808  -0.444  21.798  0.00  0.00    +0.061 A 
ATOM     10  C   UNL     1       9.175  -1.470  22.363  0.00  0.00    +0.096 A 
ENDROOT
BRANCH   1  15
ATOM     11  C   UNL     1       6.891  -2.341  25.169  0.00  0.00    +0.126 C 
ATOM     12  S   UNL     1       8.360  -2.869  26.071  0.00  0.00    -0.123 S 
ATOM     13  C   UNL     1       8.967  -3.795  24.642  0.00  0.00    +0.203 C 
ATOM     14  O   UNL     1       8.044  -3.662  23.549  0.00  0.00    -0.340 OA
ATOM     15  C   UNL     1       7.299  -2.432  23.687  0.00  0.00    +0.235 C 
BRANCH  13  16
ATOM     16  C   UNL     1       9.161  -5.283  24.970  0.00  0.00    +0.198 C 
BRANCH  16  17
ATOM     17  O   UNL     1      10.477  -5.569  25.447  0.00  0.00    -0.392 OA
ATOM     18  H   UNL     1      10.479  -6.513  25.696  0.00  0.00    +0.210 HD
ENDBRANCH  16  17
ENDBRANCH  13  16
ENDBRANCH   1  15
TORSDOF 3
ENDMDL
MODEL 3
REMARK VINA RESULT:      -5.5      3.021      5.955
REMARK  Name = 
REMARK  3 active torsions:
REMARK  status: ('A' for Active; 'I' for Inactive)
REMARK    1  A    between atoms: C_2  and  N_10
REMARK    2  A    between atoms: C_5  and  C_8
REMARK    3  A    between atoms: C_8  and  O_9
REMARK                            x       y       z     vdW  Elec       q    Type
REMARK                         _______ _______ _______ _____ _____    ______ ____
ROOT
ATOM      1  N   UNL     1       8.173  -3.384  23.207  0.00  0.00    -0.272 N 
ATOM      2  C   UNL     1       8.164  -4.683  23.734  0.00  0.00    +0.352 A 
ATOM      3  O   UNL     1       9.068  -5.072  24.469  0.00  0.00    -0.244 OA
ATOM      4  N   UNL     1       7.123  -5.522  23.406  0.00  0.00    -0.178 NA
ATOM      5  C   UNL     1       6.231  -5.143  22.547  0.00  0.00    +0.123 A 
ATOM      6  N   UNL     1       5.242  -6.029  22.229  0.00  0.00    -0.343 N 
ATOM      7  H   UNL     1       5.186  -6.810  22.873  0.00  0.00    +0.144 HD
ATOM      8  H   UNL     1       4.345  -5.662  21.942  0.00  0.00    +0.144 HD
ATOM      9  C   UNL     1       6.251  -3.823  21.896  0.00  0.00    +0.061 A 
ATOM     10  C   UNL     1       7.250  -3.017  22.250  0.00  0.00    +0.096 A 
ENDROOT
BRANCH   1  15
ATOM     11  C   UNL     1       9.153  -1.564  24.730  0.00  0.00    +0.126 C 
ATOM     12  S   UNL     1       8.297  -0.137  24.037  0.00  0.00    -0.123 S 
ATOM     13  C   UNL     1       8.898  -0.519  22.376  0.00  0.00    +0.203 C 
ATOM     14  O   UNL     1       9.708  -1.706  22.413  0.00  0.00    -0.340 OA
ATOM     15  C   UNL     1       9.322  -2.525  23.539  0.00  0.00    +0.235 C 
BRANCH  13  16
ATOM     16  C   UNL     1       9.714   0.640  21.786  0.00  0.00    +0.198 C 
BRANCH  16  17
ATOM     17  O   UNL     1       8.904   1.556  21.046  0.00  0.00    -0.392 OA
ATOM     18  H   UNL     1       8.073   1.655  21.548  0.00  0.00    +0.210 HD
ENDBRANCH  16  17
ENDBRANCH  13  16
ENDBRANCH   1  15
TORSDOF 3
ENDMDL
MODEL 4
REMARK VINA RESULT:      -5.5      1.588      1.948
REMARK  Name = 
REMARK  3 active torsions:
REMARK  status: ('A' for Active; 'I' for Inactive)
REMARK    1  A    between atoms: C_2  and  N_10
REMARK    2  A    between atoms: C_5  and  C_8
REMARK    3  A    between atoms: C_8  and  O_9
REMARK                            x       y       z     vdW  Elec       q    Type
REMARK                         _______ _______ _______ _____ _____    ______ ____
ROOT
ATOM      1  N   UNL     1       8.346  -1.476  22.466  0.00  0.00    -0.272 N 
ATOM      2  C   UNL     1       9.632  -1.072  22.078  0.00  0.00    +0.352 A 
ATOM      3  O   UNL     1      10.535  -1.892  21.939  0.00  0.00    -0.244 OA
ATOM      4  N   UNL     1       9.866   0.267  21.862  0.00  0.00    -0.178 NA
ATOM      5  C   UNL     1       8.940   1.136  22.114  0.00  0.00    +0.123 A 
ATOM      6  N   UNL     1       9.239   2.454  21.918  0.00  0.00    -0.343 N 
ATOM      7  H   UNL     1      10.086   2.594  21.380  0.00  0.00    +0.144 HD
ATOM      8  H   UNL     1       8.486   3.086  21.680  0.00  0.00    +0.144 HD
ATOM      9  C   UNL     1       7.605   0.768  22.611  0.00  0.00    +0.061 A 
ATOM     10  C   UNL     1       7.390  -0.535  22.786  0.00  0.00    +0.096 A 
ENDROOT
BRANCH   1  15
ATOM     11  C   UNL     1       6.791  -3.310  23.366  0.00  0.00    +0.126 C 
ATOM     12  S   UNL     1       7.022  -3.024  25.130  0.00  0.00    -0.123 S 
ATOM     13  C   UNL     1       8.816  -3.184  24.973  0.00  0.00    +0.203 C 
ATOM     14  O   UNL     1       9.163  -3.437  23.602  0.00  0.00    -0.340 OA
ATOM     15  C   UNL     1       8.137  -2.909  22.733  0.00  0.00    +0.235 C 
BRANCH  13  16
ATOM     16  C   UNL     1       9.366  -4.312  25.858  0.00  0.00    +0.198 C 
BRANCH  16  17
ATOM     17  O   UNL     1      10.173  -5.236  25.126  0.00  0.00    -0.392 OA
ATOM     18  H   UNL     1      10.904  -5.492  25.720  0.00  0.00    +0.210 HD
ENDBRANCH  16  17
ENDBRANCH  13  16
ENDBRANCH   1  15
TORSDOF 3
ENDMDL
MODEL 5
REMARK VINA RESULT:      -5.5      1.734      2.074
REMARK  Name = 
REMARK  3 active torsions:
REMARK  status: ('A' for Active; 'I' for Inactive)
REMARK    1  A    between atoms: C_2  and  N_10
REMARK    2  A    between atoms: C_5  and  C_8
REMARK    3  A    between atoms: C_8  and  O_9
REMARK                            x       y       z     vdW  Elec       q    Type
REMARK                         _______ _______ _______ _____ _____    ______ ____
ROOT
ATOM      1  N   UNL     1       9.435  -1.770  24.223  0.00  0.00    -0.272 N 
ATOM      2  C   UNL     1      10.155  -1.223  23.151  0.00  0.00    +0.352 A 
ATOM      3  O   UNL     1      10.590  -1.941  22.253  0.00  0.00    -0.244 OA
ATOM      4  N   UNL     1      10.373   0.135  23.125  0.00  0.00    -0.178 NA
ATOM      5  C   UNL     1      10.006   0.870  24.127  0.00  0.00    +0.123 A 
ATOM      6  N   UNL     1      10.281   2.205  24.066  0.00  0.00    -0.343 N 
ATOM      7  H   UNL     1      10.545   2.516  23.137  0.00  0.00    +0.144 HD
ATOM      8  H   UNL     1       9.670   2.843  24.559  0.00  0.00    +0.144 HD
ATOM      9  C   UNL     1       9.329   0.328  25.316  0.00  0.00    +0.061 A 
ATOM     10  C   UNL     1       9.102  -0.984  25.307  0.00  0.00    +0.096 A 
ENDROOT
BRANCH   1  15
ATOM     11  C   UNL     1       8.076  -3.802  23.439  0.00  0.00    +0.126 C 
ATOM     12  S   UNL     1       6.655  -3.619  24.532  0.00  0.00    -0.123 S 
ATOM     13  C   UNL     1       7.719  -3.596  25.994  0.00  0.00    +0.203 C 
ATOM     14  O   UNL     1       9.094  -3.719  25.596  0.00  0.00    -0.340 OA
ATOM     15  C   UNL     1       9.256  -3.231  24.246  0.00  0.00    +0.235 C 
BRANCH  13  16
ATOM     16  C   UNL     1       7.365  -4.727  26.972  0.00  0.00    +0.198 C 
BRANCH  16  17
ATOM     17  O   UNL     1       8.232  -5.854  26.840  0.00  0.00    -0.392 OA
ATOM     18  H   UNL     1       9.107  -5.566  27.163  0.00  0.00    +0.210 HD
ENDBRANCH  16  17
ENDBRANCH  13  16
ENDBRANCH   1  15
TORSDOF 3
ENDMDL
MODEL 6
REMARK VINA RESULT:      -5.3      4.138      6.783
REMARK  Name = 
REMARK  3 active torsions:
REMARK  status: ('A' for Active; 'I' for Inactive)
REMARK    1  A    between atoms: C_2  and  N_10
REMARK    2  A    between atoms: C_5  and  C_8
REMARK    3  A    between atoms: C_8  and  O_9
REMARK                            x       y       z     vdW  Elec       q    Type
REMARK                         _______ _______ _______ _____ _____    ______ ____
ROOT
ATOM      1  N   UNL     1       7.256  -5.014  24.741  0.00  0.00    -0.272 N 
ATOM      2  C   UNL     1       6.460  -5.697  25.672  0.00  0.00    +0.352 A 
ATOM      3  O   UNL     1       6.792  -5.767  26.853  0.00  0.00    -0.244 OA
ATOM      4  N   UNL     1       5.301  -6.298  25.237  0.00  0.00    -0.178 NA
ATOM      5  C   UNL     1       5.013  -6.312  23.974  0.00  0.00    +0.123 A 
ATOM      6  N   UNL     1       3.870  -6.955  23.594  0.00  0.00    -0.343 N 
ATOM      7  H   UNL     1       3.251  -7.159  24.371  0.00  0.00    +0.144 HD
ATOM      8  H   UNL     1       3.397  -6.637  22.758  0.00  0.00    +0.144 HD
ATOM      9  C   UNL     1       5.864  -5.689  22.948  0.00  0.00    +0.061 A 
ATOM     10  C   UNL     1       6.965  -5.089  23.394  0.00  0.00    +0.096 A 
ENDROOT
BRANCH   1  15
ATOM     11  C   UNL     1       8.392  -3.233  26.199  0.00  0.00    +0.126 C 
ATOM     12  S   UNL     1       8.140  -1.803  25.130  0.00  0.00    -0.123 S 
ATOM     13  C   UNL     1       8.926  -2.643  23.735  0.00  0.00    +0.203 C 
ATOM     14  O   UNL     1       9.335  -3.963  24.131  0.00  0.00    -0.340 OA
ATOM     15  C   UNL     1       8.512  -4.420  25.227  0.00  0.00    +0.235 C 
BRANCH  13  16
ATOM     16  C   UNL     1      10.142  -1.864  23.214  0.00  0.00    +0.198 C 
BRANCH  16  17
ATOM     17  O   UNL     1      10.163  -1.775  21.788  0.00  0.00    -0.392 OA
ATOM     18  H   UNL     1      10.632  -2.570  21.471  0.00  0.00    +0.210 HD
ENDBRANCH  16  17
ENDBRANCH  13  16
ENDBRANCH   1  15
TORSDOF 3
ENDMDL
MODEL 7
REMARK VINA RESULT:      -5.3      2.611      5.279
REMARK  Name = 
REMARK  3 active torsions:
REMARK  status: ('A' for Active; 'I' for Inactive)
REMARK    1  A    between atoms: C_2  and  N_10
REMARK    2  A    between atoms: C_5  and  C_8
REMARK    3  A    between atoms: C_8  and  O_9
REMARK                            x       y       z     vdW  Elec       q    Type
REMARK                         _______ _______ _______ _____ _____    ______ ____
ROOT
ATOM      1  N   UNL     1       9.403  -1.565  24.732  0.00  0.00    -0.272 N 
ATOM      2  C   UNL     1       9.789  -2.674  23.964  0.00  0.00    +0.352 A 
ATOM      3  O   UNL     1      10.556  -2.545  23.012  0.00  0.00    -0.244 OA
ATOM      4  N   UNL     1       9.285  -3.912  24.291  0.00  0.00    -0.178 NA
ATOM      5  C   UNL     1       8.395  -4.023  25.225  0.00  0.00    +0.123 A 
ATOM      6  N   UNL     1       7.901  -5.269  25.483  0.00  0.00    -0.343 N 
ATOM      7  H   UNL     1       8.452  -6.011  25.064  0.00  0.00    +0.144 HD
ATOM      8  H   UNL     1       7.576  -5.472  26.419  0.00  0.00    +0.144 HD
ATOM      9  C   UNL     1       7.891  -2.876  25.997  0.00  0.00    +0.061 A 
ATOM     10  C   UNL     1       8.413  -1.692  25.684  0.00  0.00    +0.096 A 
ENDROOT
BRANCH   1  15
ATOM     11  C   UNL     1       9.338   0.981  25.052  0.00  0.00    +0.126 C 
ATOM     12  S   UNL     1       7.804   1.329  24.172  0.00  0.00    -0.123 S 
ATOM     13  C   UNL     1       8.408   0.495  22.686  0.00  0.00    +0.203 C 
ATOM     14  O   UNL     1       9.731  -0.014  22.918  0.00  0.00    -0.340 OA
ATOM     15  C   UNL     1       9.923  -0.247  24.331  0.00  0.00    +0.235 C 
BRANCH  13  16
ATOM     16  C   UNL     1       8.426   1.437  21.473  0.00  0.00    +0.198 C 
BRANCH  16  17
ATOM     17  O   UNL     1       9.658   2.151  21.356  0.00  0.00    -0.392 OA
ATOM     18  H   UNL     1      10.162   1.712  20.645  0.00  0.00    +0.210 HD
ENDBRANCH  16  17
ENDBRANCH  13  16
ENDBRANCH   1  15
TORSDOF 3
ENDMDL
MODEL 8
REMARK VINA RESULT:      -5.3      2.705      3.209
REMARK  Name = 
REMARK  3 active torsions:
REMARK  status: ('A' for Active; 'I' for Inactive)
REMARK    1  A    between atoms: C_2  and  N_10
REMARK    2  A    between atoms: C_5  and  C_8
REMARK    3  A    between atoms: C_8  and  O_9
REMARK                            x       y       z     vdW  Elec       q    Type
REMARK                         _______ _______ _______ _____ _____    ______ ____
ROOT
ATOM      1  N   UNL     1       7.633  -0.749  22.806  0.00  0.00    -0.272 N 
ATOM      2  C   UNL     1       7.369   0.596  23.100  0.00  0.00    +0.352 A 
ATOM      3  O   UNL     1       6.330   0.925  23.668  0.00  0.00    -0.244 OA
ATOM      4  N   UNL     1       8.294   1.546  22.734  0.00  0.00    -0.178 NA
ATOM      5  C   UNL     1       9.335   1.205  22.042  0.00  0.00    +0.123 A 
ATOM      6  N   UNL     1      10.201   2.194  21.673  0.00  0.00    -0.343 N 
ATOM      7  H   UNL     1      10.051   3.062  22.175  0.00  0.00    +0.144 HD
ATOM      8  H   UNL     1      11.174   1.953  21.540  0.00  0.00    +0.144 HD
ATOM      9  C   UNL     1       9.607  -0.181  21.630  0.00  0.00    +0.061 A 
ATOM     10  C   UNL     1       8.714  -1.088  22.019  0.00  0.00    +0.096 A 
ENDROOT
BRANCH   1  15
ATOM     11  C   UNL     1       6.798  -2.488  24.500  0.00  0.00    +0.126 C 
ATOM     12  S   UNL     1       7.933  -3.830  24.098  0.00  0.00    -0.123 S 
ATOM     13  C   UNL     1       7.453  -3.780  22.355  0.00  0.00    +0.203 C 
ATOM     14  O   UNL     1       6.469  -2.754  22.151  0.00  0.00    -0.340 OA
ATOM     15  C   UNL     1       6.604  -1.739  23.169  0.00  0.00    +0.235 C 
BRANCH  13  16
ATOM     16  C   UNL     1       6.894  -5.130  21.881  0.00  0.00    +0.198 C 
BRANCH  16  17
ATOM     17  O   UNL     1       5.485  -5.085  21.648  0.00  0.00    -0.392 OA
ATOM     18  H   UNL     1       5.247  -5.941  21.244  0.00  0.00    +0.210 HD
ENDBRANCH  16  17
ENDBRANCH  13  16
ENDBRANCH   1  15
TORSDOF 3
ENDMDL
MODEL 9
REMARK VINA RESULT:      -5.2      5.359      7.498
REMARK  Name = 
REMARK  3 active torsions:
REMARK  status: ('A' for Active; 'I' for Inactive)
REMARK    1  A    between atoms: C_2  and  N_10
REMARK    2  A    between atoms: C_5  and  C_8
REMARK    3  A    between atoms: C_8  and  O_9
REMARK                            x       y       z     vdW  Elec       q    Type
REMARK                         _______ _______ _______ _____ _____    ______ ____
ROOT
ATOM      1  N   UNL     1       6.675  -5.151  25.775  0.00  0.00    -0.272 N 
ATOM      2  C   UNL     1       7.479  -5.238  26.921  0.00  0.00    +0.352 A 
ATOM      3  O   UNL     1       8.582  -4.697  26.959  0.00  0.00    -0.244 OA
ATOM      4  N   UNL     1       7.013  -5.949  28.003  0.00  0.00    -0.178 NA
ATOM      5  C   UNL     1       5.900  -6.605  27.917  0.00  0.00    +0.123 A 
ATOM      6  N   UNL     1       5.504  -7.324  29.008  0.00  0.00    -0.343 N 
ATOM      7  H   UNL     1       6.016  -7.084  29.850  0.00  0.00    +0.144 HD
ATOM      8  H   UNL     1       4.514  -7.471  29.151  0.00  0.00    +0.144 HD
ATOM      9  C   UNL     1       5.067  -6.619  26.704  0.00  0.00    +0.061 A 
ATOM     10  C   UNL     1       5.521  -5.902  25.679  0.00  0.00    +0.096 A 
ENDROOT
BRANCH   1  15
ATOM     11  C   UNL     1       6.441  -3.179  24.149  0.00  0.00    +0.126 C 
ATOM     12  S   UNL     1       5.127  -3.839  23.105  0.00  0.00    -0.123 S 
ATOM     13  C   UNL     1       6.078  -5.340  22.770  0.00  0.00    +0.203 C 
ATOM     14  O   UNL     1       7.336  -5.283  23.462  0.00  0.00    -0.340 OA
ATOM     15  C   UNL     1       7.218  -4.422  24.617  0.00  0.00    +0.235 C 
BRANCH  13  16
ATOM     16  C   UNL     1       6.328  -5.530  21.267  0.00  0.00    +0.198 C 
BRANCH  16  17
ATOM     17  O   UNL     1       5.816  -4.448  20.487  0.00  0.00    -0.392 OA
ATOM     18  H   UNL     1       4.846  -4.476  20.583  0.00  0.00    +0.210 HD
ENDBRANCH  16  17
ENDBRANCH  13  16
ENDBRANCH   1  15
TORSDOF 3
ENDMDL
