MODEL 1
REMARK VINA RESULT:      -7.4      0.000      0.000
REMARK  Name = 
REMARK  7 active torsions:
REMARK  status: ('A' for Active; 'I' for Inactive)
REMARK    1  A    between atoms: C_1  and  O_2
REMARK    2  A    between atoms: O_2  and  C_3
REMARK    3  A    between atoms: C_3  and  O_5
REMARK    4  A    between atoms: O_5  and  C_6
REMARK    5  A    between atoms: C_6  and  O_7
REMARK    6  A    between atoms: O_7  and  C_8
REMARK    7  A    between atoms: N_19  and  C_25
REMARK                            x       y       z     vdW  Elec       q    Type
REMARK                         _______ _______ _______ _____ _____    ______ ____
ROOT
ATOM      1  C   UNL     1       9.053   0.497  24.672  0.00  0.00    +0.201 A 
ATOM      2  C   UNL     1       9.786  -0.380  23.698  0.00  0.00    +0.224 A 
ATOM      3  O   UNL     1      10.893  -0.114  23.240  0.00  0.00    -0.284 OA
ATOM      4  C   UNL     1       9.068  -1.540  23.169  0.00  0.00    +0.074 A 
ATOM      5  C   UNL     1       7.887  -1.839  23.709  0.00  0.00    +0.113 A 
ATOM      6  N   UNL     1       7.306  -1.245  24.815  0.00  0.00    -0.260 N 
ATOM      7  N   UNL     1       5.915  -1.571  25.235  0.00  0.00    -0.236 N 
ATOM      8  C   UNL     1       5.537  -0.771  26.453  0.00  0.00    +0.206 C 
ATOM      9  N   UNL     1       5.706   0.631  26.065  0.00  0.00    -0.272 N 
ATOM     10  C   UNL     1       4.821   1.670  26.588  0.00  0.00    +0.138 C 
ATOM     11  C   UNL     1       3.420   1.185  26.872  0.00  0.00    +0.179 C 
ATOM     12  O   UNL     1       3.524   0.094  27.779  0.00  0.00    -0.375 OA
ATOM     13  C   UNL     1       7.016   1.035  25.871  0.00  0.00    +0.270 C 
ATOM     14  O   UNL     1       7.394   2.153  26.210  0.00  0.00    -0.268 OA
ATOM     15  C   UNL     1       4.138  -1.019  27.114  0.00  0.00    +0.203 C 
ATOM     16  C   UNL     1       7.860   0.032  25.136  0.00  0.00    +0.169 A 
ENDROOT
BRANCH   7  17
ATOM     17  C   UNL     1       5.387  -3.008  25.179  0.00  0.00    +0.155 C 
ATOM     18  C   UNL     1       5.129  -3.809  26.458  0.00  0.00    -0.008 A 
ATOM     19  C   UNL     1       6.162  -4.358  27.219  0.00  0.00    +0.014 A 
ATOM     20  C   UNL     1       5.865  -5.037  28.410  0.00  0.00    +0.015 A 
ATOM     21  C   UNL     1       4.545  -5.168  28.852  0.00  0.00    +0.001 A 
ATOM     22  C   UNL     1       3.504  -4.674  28.076  0.00  0.00    +0.000 A 
ATOM     23  S   UNL     1       7.848  -4.189  26.702  0.00  0.00    -0.120 S 
ATOM     24  C   UNL     1       7.810  -5.200  25.209  0.00  0.00    +0.112 C 
ATOM     25  C   UNL     1       6.898  -4.854  24.053  0.00  0.00    +0.006 A 
ATOM     26  C   UNL     1       7.221  -5.540  22.851  0.00  0.00    +0.163 A 
ATOM     27  F   UNL     1       8.306  -6.331  22.817  0.00  0.00    -0.202 F 
ATOM     28  C   UNL     1       6.481  -5.389  21.686  0.00  0.00    +0.159 A 
ATOM     29  F   UNL     1       6.853  -6.017  20.561  0.00  0.00    -0.202 F 
ATOM     30  C   UNL     1       5.364  -4.576  21.673  0.00  0.00    +0.041 A 
ATOM     31  C   UNL     1       5.023  -3.868  22.826  0.00  0.00    +0.009 A 
ATOM     32  C   UNL     1       3.793  -4.046  26.869  0.00  0.00    +0.007 A 
ATOM     33  C   UNL     1       5.794  -3.961  24.023  0.00  0.00    -0.014 A 
ENDBRANCH   7  17
BRANCH   1  34
ATOM     34  O   UNL     1       9.508   1.778  24.909  0.00  0.00    -0.450 OA
BRANCH  34  35
ATOM     35  C   UNL     1       9.719   2.614  23.778  0.00  0.00    +0.473 C 
BRANCH  35  36
ATOM     36  O   UNL     1       8.508   3.266  23.405  0.00  0.00    -0.397 OA
BRANCH  36  37
ATOM     37  C   UNL     1       8.005   2.811  22.234  0.00  0.00    +0.513 C 
ATOM     38  O   UNL     1       8.528   2.001  21.482  0.00  0.00    -0.203 OA
BRANCH  37  40
ATOM     39  C   UNL     1       5.799   2.899  22.962  0.00  0.00    +0.284 C 
ATOM     40  O   UNL     1       6.786   3.381  22.059  0.00  0.00    -0.437 OA
ENDBRANCH  37  40
ENDBRANCH  36  37
ENDBRANCH  35  36
ENDBRANCH  34  35
ENDBRANCH   1  34
TORSDOF 6
ENDMDL
MODEL 2
REMARK VINA RESULT:      -6.9      1.438      3.500
REMARK  Name = 
REMARK  7 active torsions:
REMARK  status: ('A' for Active; 'I' for Inactive)
REMARK    1  A    between atoms: C_1  and  O_2
REMARK    2  A    between atoms: O_2  and  C_3
REMARK    3  A    between atoms: C_3  and  O_5
REMARK    4  A    between atoms: O_5  and  C_6
REMARK    5  A    between atoms: C_6  and  O_7
REMARK    6  A    between atoms: O_7  and  C_8
REMARK    7  A    between atoms: N_19  and  C_25
REMARK                            x       y       z     vdW  Elec       q    Type
REMARK                         _______ _______ _______ _____ _____    ______ ____
ROOT
ATOM      1  C   UNL     1       7.159   2.222  26.156  0.00  0.00    +0.201 A 
ATOM      2  C   UNL     1       6.124   2.189  27.242  0.00  0.00    +0.224 A 
ATOM      3  O   UNL     1       5.784   3.173  27.892  0.00  0.00    -0.284 OA
ATOM      4  C   UNL     1       5.603   0.878  27.631  0.00  0.00    +0.074 A 
ATOM      5  C   UNL     1       5.947  -0.173  26.887  0.00  0.00    +0.113 A 
ATOM      6  N   UNL     1       6.651  -0.152  25.697  0.00  0.00    -0.260 N 
ATOM      7  N   UNL     1       7.100  -1.407  25.033  0.00  0.00    -0.236 N 
ATOM      8  C   UNL     1       7.854  -1.089  23.771  0.00  0.00    +0.206 C 
ATOM      9  N   UNL     1       8.966  -0.231  24.187  0.00  0.00    -0.272 N 
ATOM     10  C   UNL     1      10.263  -0.300  23.517  0.00  0.00    +0.138 C 
ATOM     11  C   UNL     1      10.598  -1.673  22.986  0.00  0.00    +0.179 C 
ATOM     12  O   UNL     1       9.546  -2.056  22.108  0.00  0.00    -0.375 OA
ATOM     13  C   UNL     1       8.604   1.036  24.614  0.00  0.00    +0.270 C 
ATOM     14  O   UNL     1       9.295   2.016  24.351  0.00  0.00    -0.268 OA
ATOM     15  C   UNL     1       8.349  -2.272  22.869  0.00  0.00    +0.203 C 
ATOM     16  C   UNL     1       7.380   1.058  25.484  0.00  0.00    +0.169 A 
ENDROOT
BRANCH   7  17
ATOM     17  C   UNL     1       6.199  -2.646  24.990  0.00  0.00    +0.155 C 
ATOM     18  C   UNL     1       5.841  -3.412  26.266  0.00  0.00    -0.008 A 
ATOM     19  C   UNL     1       6.746  -4.255  26.912  0.00  0.00    +0.014 A 
ATOM     20  C   UNL     1       6.376  -4.888  28.108  0.00  0.00    +0.015 A 
ATOM     21  C   UNL     1       5.111  -4.683  28.668  0.00  0.00    +0.001 A 
ATOM     22  C   UNL     1       4.183  -3.890  28.006  0.00  0.00    +0.000 A 
ATOM     23  S   UNL     1       8.366  -4.517  26.244  0.00  0.00    -0.120 S 
ATOM     24  C   UNL     1       7.931  -5.405  24.736  0.00  0.00    +0.112 C 
ATOM     25  C   UNL     1       7.054  -4.770  23.680  0.00  0.00    +0.006 A 
ATOM     26  C   UNL     1       7.078  -5.457  22.436  0.00  0.00    +0.163 A 
ATOM     27  F   UNL     1       7.901  -6.507  22.279  0.00  0.00    -0.202 F 
ATOM     28  C   UNL     1       6.312  -5.055  21.349  0.00  0.00    +0.159 A 
ATOM     29  F   UNL     1       6.405  -5.701  20.178  0.00  0.00    -0.202 F 
ATOM     30  C   UNL     1       5.460  -3.972  21.462  0.00  0.00    +0.041 A 
ATOM     31  C   UNL     1       5.421  -3.258  22.659  0.00  0.00    +0.009 A 
ATOM     32  C   UNL     1       4.530  -3.302  26.794  0.00  0.00    +0.007 A 
ATOM     33  C   UNL     1       6.235  -3.613  23.776  0.00  0.00    -0.014 A 
ENDBRANCH   7  17
BRANCH   1  34
ATOM     34  O   UNL     1       7.954   3.341  26.008  0.00  0.00    -0.450 OA
BRANCH  34  35
ATOM     35  C   UNL     1       7.369   4.480  25.388  0.00  0.00    +0.473 C 
BRANCH  35  36
ATOM     36  O   UNL     1       6.542   4.083  24.297  0.00  0.00    -0.397 OA
BRANCH  36  37
ATOM     37  C   UNL     1       7.065   4.415  23.094  0.00  0.00    +0.513 C 
ATOM     38  O   UNL     1       7.211   3.674  22.133  0.00  0.00    -0.203 OA
BRANCH  37  40
ATOM     39  C   UNL     1       7.295   6.363  21.846  0.00  0.00    +0.284 C 
ATOM     40  O   UNL     1       7.358   5.740  23.123  0.00  0.00    -0.437 OA
ENDBRANCH  37  40
ENDBRANCH  36  37
ENDBRANCH  35  36
ENDBRANCH  34  35
ENDBRANCH   1  34
TORSDOF 6
ENDMDL
MODEL 3
REMARK VINA RESULT:      -6.8      4.216      8.393
REMARK  Name = 
REMARK  7 active torsions:
REMARK  status: ('A' for Active; 'I' for Inactive)
REMARK    1  A    between atoms: C_1  and  O_2
REMARK    2  A    between atoms: O_2  and  C_3
REMARK    3  A    between atoms: C_3  and  O_5
REMARK    4  A    between atoms: O_5  and  C_6
REMARK    5  A    between atoms: C_6  and  O_7
REMARK    6  A    between atoms: O_7  and  C_8
REMARK    7  A    between atoms: N_19  and  C_25
REMARK                            x       y       z     vdW  Elec       q    Type
REMARK                         _______ _______ _______ _____ _____    ______ ____
ROOT
ATOM      1  C   UNL     1       6.527  -1.045  26.569  0.00  0.00    +0.201 A 
ATOM      2  C   UNL     1       5.244  -0.623  27.225  0.00  0.00    +0.224 A 
ATOM      3  O   UNL     1       4.718  -1.235  28.149  0.00  0.00    -0.284 OA
ATOM      4  C   UNL     1       4.523   0.500  26.625  0.00  0.00    +0.074 A 
ATOM      5  C   UNL     1       5.129   1.180  25.653  0.00  0.00    +0.113 A 
ATOM      6  N   UNL     1       6.433   1.023  25.220  0.00  0.00    -0.260 N 
ATOM      7  N   UNL     1       6.951   1.745  24.024  0.00  0.00    -0.236 N 
ATOM      8  C   UNL     1       8.388   1.376  23.774  0.00  0.00    +0.206 C 
ATOM      9  N   UNL     1       8.395  -0.080  23.613  0.00  0.00    -0.272 N 
ATOM     10  C   UNL     1       9.320  -0.732  22.688  0.00  0.00    +0.138 C 
ATOM     11  C   UNL     1       9.664   0.109  21.483  0.00  0.00    +0.179 C 
ATOM     12  O   UNL     1      10.197   1.338  21.961  0.00  0.00    -0.375 OA
ATOM     13  C   UNL     1       8.125  -0.801  24.764  0.00  0.00    +0.270 C 
ATOM     14  O   UNL     1       8.707  -1.855  25.004  0.00  0.00    -0.268 OA
ATOM     15  C   UNL     1       9.157   2.086  22.607  0.00  0.00    +0.203 C 
ATOM     16  C   UNL     1       7.016  -0.226  25.597  0.00  0.00    +0.169 A 
ENDROOT
BRANCH   7  17
ATOM     17  C   UNL     1       6.569   3.204  23.754  0.00  0.00    +0.155 C 
ATOM     18  C   UNL     1       7.516   4.351  24.117  0.00  0.00    -0.008 A 
ATOM     19  C   UNL     1       7.702   4.782  25.431  0.00  0.00    +0.014 A 
ATOM     20  C   UNL     1       8.623   5.803  25.705  0.00  0.00    +0.015 A 
ATOM     21  C   UNL     1       9.365   6.397  24.679  0.00  0.00    +0.001 A 
ATOM     22  C   UNL     1       9.148   6.016  23.361  0.00  0.00    +0.000 A 
ATOM     23  S   UNL     1       6.798   4.034  26.758  0.00  0.00    -0.120 S 
ATOM     24  C   UNL     1       5.134   4.589  26.342  0.00  0.00    +0.112 C 
ATOM     25  C   UNL     1       4.490   4.210  25.027  0.00  0.00    +0.006 A 
ATOM     26  C   UNL     1       3.088   4.444  24.994  0.00  0.00    +0.163 A 
ATOM     27  F   UNL     1       2.468   4.875  26.105  0.00  0.00    -0.202 F 
ATOM     28  C   UNL     1       2.319   4.197  23.865  0.00  0.00    +0.159 A 
ATOM     29  F   UNL     1       0.991   4.383  23.896  0.00  0.00    -0.202 F 
ATOM     30  C   UNL     1       2.915   3.742  22.704  0.00  0.00    +0.041 A 
ATOM     31  C   UNL     1       4.285   3.481  22.699  0.00  0.00    +0.009 A 
ATOM     32  C   UNL     1       8.198   5.039  23.081  0.00  0.00    +0.007 A 
ATOM     33  C   UNL     1       5.093   3.673  23.858  0.00  0.00    -0.014 A 
ENDBRANCH   7  17
BRANCH   1  34
ATOM     34  O   UNL     1       7.046  -2.296  26.833  0.00  0.00    -0.450 OA
BRANCH  34  35
ATOM     35  C   UNL     1       6.231  -3.419  26.522  0.00  0.00    +0.473 C 
BRANCH  35  36
ATOM     36  O   UNL     1       7.017  -4.465  25.958  0.00  0.00    -0.397 OA
BRANCH  36  37
ATOM     37  C   UNL     1       7.792  -5.092  26.872  0.00  0.00    +0.513 C 
ATOM     38  O   UNL     1       7.407  -5.792  27.798  0.00  0.00    -0.203 OA
BRANCH  37  40
ATOM     39  C   UNL     1       9.440  -5.266  25.241  0.00  0.00    +0.284 C 
ATOM     40  O   UNL     1       9.088  -4.846  26.554  0.00  0.00    -0.437 OA
ENDBRANCH  37  40
ENDBRANCH  36  37
ENDBRANCH  35  36
ENDBRANCH  34  35
ENDBRANCH   1  34
TORSDOF 6
ENDMDL
MODEL 4
REMARK VINA RESULT:      -6.7      2.195      3.928
REMARK  Name = 
REMARK  7 active torsions:
REMARK  status: ('A' for Active; 'I' for Inactive)
REMARK    1  A    between atoms: C_1  and  O_2
REMARK    2  A    between atoms: O_2  and  C_3
REMARK    3  A    between atoms: C_3  and  O_5
REMARK    4  A    between atoms: O_5  and  C_6
REMARK    5  A    between atoms: C_6  and  O_7
REMARK    6  A    between atoms: O_7  and  C_8
REMARK    7  A    between atoms: N_19  and  C_25
REMARK                            x       y       z     vdW  Elec       q    Type
REMARK                         _______ _______ _______ _____ _____    ______ ____
ROOT
ATOM      1  C   UNL     1       9.027   0.331  24.915  0.00  0.00    +0.201 A 
ATOM      2  C   UNL     1       9.990  -0.229  23.909  0.00  0.00    +0.224 A 
ATOM      3  O   UNL     1      10.948   0.394  23.461  0.00  0.00    -0.284 OA
ATOM      4  C   UNL     1       9.676  -1.539  23.337  0.00  0.00    +0.074 A 
ATOM      5  C   UNL     1       8.660  -2.220  23.866  0.00  0.00    +0.113 A 
ATOM      6  N   UNL     1       7.933  -1.882  24.993  0.00  0.00    -0.260 N 
ATOM      7  N   UNL     1       6.725  -2.651  25.402  0.00  0.00    -0.236 N 
ATOM      8  C   UNL     1       6.126  -2.059  26.649  0.00  0.00    +0.206 C 
ATOM      9  N   UNL     1       5.831  -0.663  26.313  0.00  0.00    -0.272 N 
ATOM     10  C   UNL     1       4.666   0.017  26.875  0.00  0.00    +0.138 C 
ATOM     11  C   UNL     1       3.498  -0.901  27.141  0.00  0.00    +0.179 C 
ATOM     12  O   UNL     1       3.958  -1.932  28.007  0.00  0.00    -0.375 OA
ATOM     13  C   UNL     1       6.941   0.146  26.133  0.00  0.00    +0.270 C 
ATOM     14  O   UNL     1       6.944   1.313  26.514  0.00  0.00    -0.268 OA
ATOM     15  C   UNL     1       4.887  -2.765  27.301  0.00  0.00    +0.203 C 
ATOM     16  C   UNL     1       8.052  -0.507  25.362  0.00  0.00    +0.169 A 
ENDROOT
BRANCH   7  17
ATOM     17  C   UNL     1       6.685  -4.180  25.293  0.00  0.00    +0.155 C 
ATOM     18  C   UNL     1       6.516  -4.873  23.939  0.00  0.00    -0.008 A 
ATOM     19  C   UNL     1       5.292  -4.925  23.271  0.00  0.00    +0.014 A 
ATOM     20  C   UNL     1       5.213  -5.530  22.007  0.00  0.00    +0.015 A 
ATOM     21  C   UNL     1       6.347  -6.080  21.402  0.00  0.00    +0.001 A 
ATOM     22  C   UNL     1       7.559  -6.084  22.080  0.00  0.00    +0.000 A 
ATOM     23  S   UNL     1       3.841  -4.215  23.997  0.00  0.00    -0.120 S 
ATOM     24  C   UNL     1       3.628  -5.329  25.399  0.00  0.00    +0.112 C 
ATOM     25  C   UNL     1       4.698  -5.465  26.459  0.00  0.00    +0.006 A 
ATOM     26  C   UNL     1       4.247  -6.116  27.639  0.00  0.00    +0.163 A 
ATOM     27  F   UNL     1       2.953  -6.460  27.747  0.00  0.00    -0.202 F 
ATOM     28  C   UNL     1       5.087  -6.372  28.714  0.00  0.00    +0.159 A 
ATOM     29  F   UNL     1       4.606  -6.942  29.829  0.00  0.00    -0.202 F 
ATOM     30  C   UNL     1       6.423  -6.025  28.651  0.00  0.00    +0.041 A 
ATOM     31  C   UNL     1       6.902  -5.366  27.519  0.00  0.00    +0.009 A 
ATOM     32  C   UNL     1       7.628  -5.531  23.355  0.00  0.00    +0.007 A 
ATOM     33  C   UNL     1       6.053  -5.041  26.419  0.00  0.00    -0.014 A 
ENDBRANCH   7  17
BRANCH   1  34
ATOM     34  O   UNL     1       9.050   1.682  25.199  0.00  0.00    -0.450 OA
BRANCH  34  35
ATOM     35  C   UNL     1       9.061   2.580  24.096  0.00  0.00    +0.473 C 
BRANCH  35  36
ATOM     36  O   UNL     1       7.732   2.965  23.754  0.00  0.00    -0.397 OA
BRANCH  36  37
ATOM     37  C   UNL     1       7.369   2.558  22.516  0.00  0.00    +0.513 C 
ATOM     38  O   UNL     1       7.551   1.451  22.030  0.00  0.00    -0.203 OA
BRANCH  37  40
ATOM     39  C   UNL     1       7.085   4.864  22.427  0.00  0.00    +0.284 C 
ATOM     40  O   UNL     1       6.720   3.587  21.916  0.00  0.00    -0.437 OA
ENDBRANCH  37  40
ENDBRANCH  36  37
ENDBRANCH  35  36
ENDBRANCH  34  35
ENDBRANCH   1  34
TORSDOF 6
ENDMDL
MODEL 5
REMARK VINA RESULT:      -6.7      2.492      5.401
REMARK  Name = 
REMARK  7 active torsions:
REMARK  status: ('A' for Active; 'I' for Inactive)
REMARK    1  A    between atoms: C_1  and  O_2
REMARK    2  A    between atoms: O_2  and  C_3
REMARK    3  A    between atoms: C_3  and  O_5
REMARK    4  A    between atoms: O_5  and  C_6
REMARK    5  A    between atoms: C_6  and  O_7
REMARK    6  A    between atoms: O_7  and  C_8
REMARK    7  A    between atoms: N_19  and  C_25
REMARK                            x       y       z     vdW  Elec       q    Type
REMARK                         _______ _______ _______ _____ _____    ______ ____
ROOT
ATOM      1  C   UNL     1       4.842   0.429  26.500  0.00  0.00    +0.201 A 
ATOM      2  C   UNL     1       3.860  -0.207  27.441  0.00  0.00    +0.224 A 
ATOM      3  O   UNL     1       2.975   0.412  28.023  0.00  0.00    -0.284 OA
ATOM      4  C   UNL     1       4.071  -1.615  27.780  0.00  0.00    +0.074 A 
ATOM      5  C   UNL     1       5.007  -2.282  27.105  0.00  0.00    +0.113 A 
ATOM      6  N   UNL     1       5.730  -1.826  26.018  0.00  0.00    -0.260 N 
ATOM      7  N   UNL     1       6.853  -2.616  25.440  0.00  0.00    -0.236 N 
ATOM      8  C   UNL     1       7.469  -1.878  24.283  0.00  0.00    +0.206 C 
ATOM      9  N   UNL     1       7.896  -0.587  24.827  0.00  0.00    -0.272 N 
ATOM     10  C   UNL     1       9.102   0.076  24.335  0.00  0.00    +0.138 C 
ATOM     11  C   UNL     1      10.175  -0.881  23.876  0.00  0.00    +0.179 C 
ATOM     12  O   UNL     1       9.602  -1.712  22.874  0.00  0.00    -0.375 OA
ATOM     13  C   UNL     1       6.870   0.272  25.182  0.00  0.00    +0.270 C 
ATOM     14  O   UNL     1       6.961   1.482  24.996  0.00  0.00    -0.268 OA
ATOM     15  C   UNL     1       8.620  -2.569  23.474  0.00  0.00    +0.203 C 
ATOM     16  C   UNL     1       5.726  -0.404  25.883  0.00  0.00    +0.169 A 
ENDROOT
BRANCH   7  17
ATOM     17  C   UNL     1       6.759  -4.139  25.299  0.00  0.00    +0.155 C 
ATOM     18  C   UNL     1       6.539  -4.796  23.934  0.00  0.00    -0.008 A 
ATOM     19  C   UNL     1       5.300  -4.792  23.291  0.00  0.00    +0.014 A 
ATOM     20  C   UNL     1       5.175  -5.366  22.017  0.00  0.00    +0.015 A 
ATOM     21  C   UNL     1       6.278  -5.940  21.376  0.00  0.00    +0.001 A 
ATOM     22  C   UNL     1       7.502  -6.000  22.028  0.00  0.00    +0.000 A 
ATOM     23  S   UNL     1       3.889  -4.051  24.063  0.00  0.00    -0.120 S 
ATOM     24  C   UNL     1       3.668  -5.188  25.445  0.00  0.00    +0.112 C 
ATOM     25  C   UNL     1       4.754  -5.384  26.479  0.00  0.00    +0.006 A 
ATOM     26  C   UNL     1       4.306  -6.045  27.654  0.00  0.00    +0.163 A 
ATOM     27  F   UNL     1       3.004  -6.348  27.782  0.00  0.00    -0.202 F 
ATOM     28  C   UNL     1       5.159  -6.353  28.706  0.00  0.00    +0.159 A 
ATOM     29  F   UNL     1       4.682  -6.931  29.818  0.00  0.00    -0.202 F 
ATOM     30  C   UNL     1       6.504  -6.049  28.621  0.00  0.00    +0.041 A 
ATOM     31  C   UNL     1       6.982  -5.382  27.493  0.00  0.00    +0.009 A 
ATOM     32  C   UNL     1       7.616  -5.478  23.313  0.00  0.00    +0.007 A 
ATOM     33  C   UNL     1       6.122  -5.004  26.420  0.00  0.00    -0.014 A 
ENDBRANCH   7  17
BRANCH   1  34
ATOM     34  O   UNL     1       4.933   1.805  26.440  0.00  0.00    -0.450 OA
BRANCH  34  35
ATOM     35  C   UNL     1       3.854   2.504  25.831  0.00  0.00    +0.473 C 
BRANCH  35  36
ATOM     36  O   UNL     1       3.767   2.177  24.446  0.00  0.00    -0.397 OA
BRANCH  36  37
ATOM     37  C   UNL     1       4.120   3.205  23.640  0.00  0.00    +0.513 C 
ATOM     38  O   UNL     1       5.072   3.956  23.793  0.00  0.00    -0.203 OA
BRANCH  37  40
ATOM     39  C   UNL     1       3.053   4.529  22.055  0.00  0.00    +0.284 C 
ATOM     40  O   UNL     1       3.253   3.229  22.597  0.00  0.00    -0.437 OA
ENDBRANCH  37  40
ENDBRANCH  36  37
ENDBRANCH  35  36
ENDBRANCH  34  35
ENDBRANCH   1  34
TORSDOF 6
ENDMDL
MODEL 6
REMARK VINA RESULT:      -6.6      4.231      7.603
REMARK  Name = 
REMARK  7 active torsions:
REMARK  status: ('A' for Active; 'I' for Inactive)
REMARK    1  A    between atoms: C_1  and  O_2
REMARK    2  A    between atoms: O_2  and  C_3
REMARK    3  A    between atoms: C_3  and  O_5
REMARK    4  A    between atoms: O_5  and  C_6
REMARK    5  A    between atoms: C_6  and  O_7
REMARK    6  A    between atoms: O_7  and  C_8
REMARK    7  A    between atoms: N_19  and  C_25
REMARK                            x       y       z     vdW  Elec       q    Type
REMARK                         _______ _______ _______ _____ _____    ______ ____
ROOT
ATOM      1  C   UNL     1       8.826  -0.896  24.559  0.00  0.00    +0.201 A 
ATOM      2  C   UNL     1       9.932  -0.093  23.939  0.00  0.00    +0.224 A 
ATOM      3  O   UNL     1      10.926  -0.588  23.418  0.00  0.00    -0.284 OA
ATOM      4  C   UNL     1       9.874   1.361  24.098  0.00  0.00    +0.074 A 
ATOM      5  C   UNL     1       8.768   1.885  24.625  0.00  0.00    +0.113 A 
ATOM      6  N   UNL     1       7.598   1.215  24.932  0.00  0.00    -0.260 N 
ATOM      7  N   UNL     1       6.481   1.886  25.653  0.00  0.00    -0.236 N 
ATOM      8  C   UNL     1       5.345   0.922  25.867  0.00  0.00    +0.206 C 
ATOM      9  N   UNL     1       5.920  -0.198  26.615  0.00  0.00    -0.272 N 
ATOM     10  C   UNL     1       5.135  -0.920  27.614  0.00  0.00    +0.138 C 
ATOM     11  C   UNL     1       4.110  -0.061  28.315  0.00  0.00    +0.179 C 
ATOM     12  O   UNL     1       3.273   0.503  27.314  0.00  0.00    -0.375 OA
ATOM     13  C   UNL     1       6.813  -0.984  25.906  0.00  0.00    +0.270 C 
ATOM     14  O   UNL     1       6.849  -2.201  26.059  0.00  0.00    -0.268 OA
ATOM     15  C   UNL     1       4.029   1.444  26.540  0.00  0.00    +0.203 C 
ATOM     16  C   UNL     1       7.760  -0.200  25.041  0.00  0.00    +0.169 A 
ENDROOT
BRANCH   7  17
ATOM     17  C   UNL     1       6.090   3.333  25.337  0.00  0.00    +0.155 C 
ATOM     18  C   UNL     1       4.890   3.652  24.441  0.00  0.00    -0.008 A 
ATOM     19  C   UNL     1       4.928   3.499  23.055  0.00  0.00    +0.014 A 
ATOM     20  C   UNL     1       3.778   3.758  22.294  0.00  0.00    +0.015 A 
ATOM     21  C   UNL     1       2.588   4.165  22.905  0.00  0.00    +0.001 A 
ATOM     22  C   UNL     1       2.553   4.375  24.277  0.00  0.00    +0.000 A 
ATOM     23  S   UNL     1       6.411   2.960  22.250  0.00  0.00    -0.120 S 
ATOM     24  C   UNL     1       7.464   4.389  22.567  0.00  0.00    +0.112 C 
ATOM     25  C   UNL     1       7.792   4.821  23.978  0.00  0.00    +0.006 A 
ATOM     26  C   UNL     1       8.874   5.740  24.053  0.00  0.00    +0.163 A 
ATOM     27  F   UNL     1       9.539   6.065  22.931  0.00  0.00    -0.202 F 
ATOM     28  C   UNL     1       9.306   6.285  25.254  0.00  0.00    +0.159 A 
ATOM     29  F   UNL     1      10.364   7.108  25.283  0.00  0.00    -0.202 F 
ATOM     30  C   UNL     1       8.659   5.969  26.433  0.00  0.00    +0.041 A 
ATOM     31  C   UNL     1       7.605   5.055  26.408  0.00  0.00    +0.009 A 
ATOM     32  C   UNL     1       3.706   4.168  25.028  0.00  0.00    +0.007 A 
ATOM     33  C   UNL     1       7.172   4.437  25.197  0.00  0.00    -0.014 A 
ENDBRANCH   7  17
BRANCH   1  34
ATOM     34  O   UNL     1       9.008  -2.247  24.779  0.00  0.00    -0.450 OA
BRANCH  34  35
ATOM     35  C   UNL     1       8.904  -3.111  23.655  0.00  0.00    +0.473 C 
BRANCH  35  36
ATOM     36  O   UNL     1       8.693  -4.456  24.077  0.00  0.00    -0.397 OA
BRANCH  36  37
ATOM     37  C   UNL     1       7.510  -4.959  23.654  0.00  0.00    +0.513 C 
ATOM     38  O   UNL     1       6.580  -5.323  24.358  0.00  0.00    -0.203 OA
BRANCH  37  40
ATOM     39  C   UNL     1       6.753  -5.996  21.716  0.00  0.00    +0.284 C 
ATOM     40  O   UNL     1       7.517  -4.947  22.297  0.00  0.00    -0.437 OA
ENDBRANCH  37  40
ENDBRANCH  36  37
ENDBRANCH  35  36
ENDBRANCH  34  35
ENDBRANCH   1  34
TORSDOF 6
ENDMDL
MODEL 7
REMARK VINA RESULT:      -6.5      1.229      1.603
REMARK  Name = 
REMARK  7 active torsions:
REMARK  status: ('A' for Active; 'I' for Inactive)
REMARK    1  A    between atoms: C_1  and  O_2
REMARK    2  A    between atoms: O_2  and  C_3
REMARK    3  A    between atoms: C_3  and  O_5
REMARK    4  A    between atoms: O_5  and  C_6
REMARK    5  A    between atoms: C_6  and  O_7
REMARK    6  A    between atoms: O_7  and  C_8
REMARK    7  A    between atoms: N_19  and  C_25
REMARK                            x       y       z     vdW  Elec       q    Type
REMARK                         _______ _______ _______ _____ _____    ______ ____
ROOT
ATOM      1  C   UNL     1       7.561   0.520  25.819  0.00  0.00    +0.201 A 
ATOM      2  C   UNL     1       8.582  -0.079  24.897  0.00  0.00    +0.224 A 
ATOM      3  O   UNL     1       9.632   0.476  24.588  0.00  0.00    -0.284 OA
ATOM      4  C   UNL     1       8.228  -1.332  24.228  0.00  0.00    +0.074 A 
ATOM      5  C   UNL     1       7.107  -1.943  24.607  0.00  0.00    +0.113 A 
ATOM      6  N   UNL     1       6.287  -1.591  25.665  0.00  0.00    -0.260 N 
ATOM      7  N   UNL     1       4.981  -2.268  25.899  0.00  0.00    -0.236 N 
ATOM      8  C   UNL     1       4.296  -1.678  27.101  0.00  0.00    +0.206 C 
ATOM      9  N   UNL     1       4.157  -0.249  26.808  0.00  0.00    -0.272 N 
ATOM     10  C   UNL     1       2.995   0.507  27.272  0.00  0.00    +0.138 C 
ATOM     11  C   UNL     1       1.733  -0.317  27.362  0.00  0.00    +0.179 C 
ATOM     12  O   UNL     1       2.006  -1.419  28.220  0.00  0.00    -0.375 OA
ATOM     13  C   UNL     1       5.342   0.467  26.791  0.00  0.00    +0.270 C 
ATOM     14  O   UNL     1       5.398   1.613  27.229  0.00  0.00    -0.268 OA
ATOM     15  C   UNL     1       2.938  -2.299  27.578  0.00  0.00    +0.203 C 
ATOM     16  C   UNL     1       6.476  -0.248  26.113  0.00  0.00    +0.169 A 
ENDROOT
BRANCH   7  17
ATOM     17  C   UNL     1       4.828  -3.781  25.708  0.00  0.00    +0.155 C 
ATOM     18  C   UNL     1       4.855  -4.737  26.904  0.00  0.00    -0.008 A 
ATOM     19  C   UNL     1       6.035  -5.074  27.568  0.00  0.00    +0.014 A 
ATOM     20  C   UNL     1       5.987  -5.915  28.689  0.00  0.00    +0.015 A 
ATOM     21  C   UNL     1       4.770  -6.420  29.158  0.00  0.00    +0.001 A 
ATOM     22  C   UNL     1       3.596  -6.138  28.473  0.00  0.00    +0.000 A 
ATOM     23  S   UNL     1       7.591  -4.431  27.017  0.00  0.00    -0.120 S 
ATOM     24  C   UNL     1       7.721  -5.273  25.428  0.00  0.00    +0.112 C 
ATOM     25  C   UNL     1       6.686  -5.064  24.346  0.00  0.00    +0.006 A 
ATOM     26  C   UNL     1       7.101  -5.530  23.068  0.00  0.00    +0.163 A 
ATOM     27  F   UNL     1       8.346  -6.010  22.915  0.00  0.00    -0.202 F 
ATOM     28  C   UNL     1       6.280  -5.464  21.950  0.00  0.00    +0.159 A 
ATOM     29  F   UNL     1       6.732  -5.867  20.753  0.00  0.00    -0.202 F 
ATOM     30  C   UNL     1       4.996  -4.966  22.059  0.00  0.00    +0.041 A 
ATOM     31  C   UNL     1       4.556  -4.480  23.291  0.00  0.00    +0.009 A 
ATOM     32  C   UNL     1       3.647  -5.346  27.330  0.00  0.00    +0.007 A 
ATOM     33  C   UNL     1       5.393  -4.485  24.445  0.00  0.00    -0.014 A 
ENDBRANCH   7  17
BRANCH   1  34
ATOM     34  O   UNL     1       7.662   1.851  26.172  0.00  0.00    -0.450 OA
BRANCH  34  35
ATOM     35  C   UNL     1       7.772   2.799  25.117  0.00  0.00    +0.473 C 
BRANCH  35  36
ATOM     36  O   UNL     1       6.686   2.657  24.205  0.00  0.00    -0.397 OA
BRANCH  36  37
ATOM     37  C   UNL     1       7.041   2.902  22.923  0.00  0.00    +0.513 C 
ATOM     38  O   UNL     1       7.304   3.992  22.435  0.00  0.00    -0.203 OA
BRANCH  37  40
ATOM     39  C   UNL     1       8.271   1.555  21.482  0.00  0.00    +0.284 C 
ATOM     40  O   UNL     1       7.101   1.711  22.276  0.00  0.00    -0.437 OA
ENDBRANCH  37  40
ENDBRANCH  36  37
ENDBRANCH  35  36
ENDBRANCH  34  35
ENDBRANCH   1  34
TORSDOF 6
ENDMDL
MODEL 8
REMARK VINA RESULT:      -6.5      3.177      5.454
REMARK  Name = 
REMARK  7 active torsions:
REMARK  status: ('A' for Active; 'I' for Inactive)
REMARK    1  A    between atoms: C_1  and  O_2
REMARK    2  A    between atoms: O_2  and  C_3
REMARK    3  A    between atoms: C_3  and  O_5
REMARK    4  A    between atoms: O_5  and  C_6
REMARK    5  A    between atoms: C_6  and  O_7
REMARK    6  A    between atoms: O_7  and  C_8
REMARK    7  A    between atoms: N_19  and  C_25
REMARK                            x       y       z     vdW  Elec       q    Type
REMARK                         _______ _______ _______ _____ _____    ______ ____
ROOT
ATOM      1  C   UNL     1       5.817   0.226  28.135  0.00  0.00    +0.201 A 
ATOM      2  C   UNL     1       6.847   1.276  27.838  0.00  0.00    +0.224 A 
ATOM      3  O   UNL     1       7.260   2.081  28.667  0.00  0.00    -0.284 OA
ATOM      4  C   UNL     1       7.267   1.428  26.444  0.00  0.00    +0.074 A 
ATOM      5  C   UNL     1       6.844   0.519  25.566  0.00  0.00    +0.113 A 
ATOM      6  N   UNL     1       6.143  -0.640  25.844  0.00  0.00    -0.260 N 
ATOM      7  N   UNL     1       5.600  -1.504  24.759  0.00  0.00    -0.236 N 
ATOM      8  C   UNL     1       4.873  -2.683  25.345  0.00  0.00    +0.206 C 
ATOM      9  N   UNL     1       3.829  -2.111  26.200  0.00  0.00    -0.272 N 
ATOM     10  C   UNL     1       2.530  -2.766  26.344  0.00  0.00    +0.138 C 
ATOM     11  C   UNL     1       2.092  -3.520  25.113  0.00  0.00    +0.179 C 
ATOM     12  O   UNL     1       3.112  -4.464  24.808  0.00  0.00    -0.375 OA
ATOM     13  C   UNL     1       4.286  -1.478  27.344  0.00  0.00    +0.270 C 
ATOM     14  O   UNL     1       3.672  -1.559  28.403  0.00  0.00    -0.268 OA
ATOM     15  C   UNL     1       4.289  -3.768  24.376  0.00  0.00    +0.203 C 
ATOM     16  C   UNL     1       5.508  -0.632  27.124  0.00  0.00    +0.169 A 
ENDROOT
BRANCH   7  17
ATOM     17  C   UNL     1       6.405  -1.772  23.483  0.00  0.00    +0.155 C 
ATOM     18  C   UNL     1       6.703  -3.200  23.018  0.00  0.00    -0.008 A 
ATOM     19  C   UNL     1       7.664  -4.003  23.635  0.00  0.00    +0.014 A 
ATOM     20  C   UNL     1       7.853  -5.322  23.196  0.00  0.00    +0.015 A 
ATOM     21  C   UNL     1       7.089  -5.848  22.151  0.00  0.00    +0.001 A 
ATOM     22  C   UNL     1       6.170  -5.043  21.493  0.00  0.00    +0.000 A 
ATOM     23  S   UNL     1       8.631  -3.376  24.979  0.00  0.00    -0.120 S 
ATOM     24  C   UNL     1       9.593  -2.127  24.104  0.00  0.00    +0.112 C 
ATOM     25  C   UNL     1       8.917  -0.973  23.397  0.00  0.00    +0.006 A 
ATOM     26  C   UNL     1       9.809   0.077  23.046  0.00  0.00    +0.163 A 
ATOM     27  F   UNL     1      11.094   0.003  23.429  0.00  0.00    -0.202 F 
ATOM     28  C   UNL     1       9.392   1.208  22.358  0.00  0.00    +0.159 A 
ATOM     29  F   UNL     1      10.257   2.198  22.094  0.00  0.00    -0.202 F 
ATOM     30  C   UNL     1       8.075   1.331  21.955  0.00  0.00    +0.041 A 
ATOM     31  C   UNL     1       7.163   0.332  22.296  0.00  0.00    +0.009 A 
ATOM     32  C   UNL     1       6.015  -3.719  21.892  0.00  0.00    +0.007 A 
ATOM     33  C   UNL     1       7.549  -0.817  23.049  0.00  0.00    -0.014 A 
ENDBRANCH   7  17
BRANCH   1  34
ATOM     34  O   UNL     1       5.110   0.283  29.319  0.00  0.00    -0.450 OA
BRANCH  34  35
ATOM     35  C   UNL     1       4.422   1.494  29.610  0.00  0.00    +0.473 C 
BRANCH  35  36
ATOM     36  O   UNL     1       3.566   1.853  28.528  0.00  0.00    -0.397 OA
BRANCH  36  37
ATOM     37  C   UNL     1       3.594   3.178  28.254  0.00  0.00    +0.513 C 
ATOM     38  O   UNL     1       3.298   4.086  29.016  0.00  0.00    -0.203 OA
BRANCH  37  40
ATOM     39  C   UNL     1       3.533   2.369  26.075  0.00  0.00    +0.284 C 
ATOM     40  O   UNL     1       4.055   3.328  26.986  0.00  0.00    -0.437 OA
ENDBRANCH  37  40
ENDBRANCH  36  37
ENDBRANCH  35  36
ENDBRANCH  34  35
ENDBRANCH   1  34
TORSDOF 6
ENDMDL
MODEL 9
REMARK VINA RESULT:      -6.4      1.864      2.432
REMARK  Name = 
REMARK  7 active torsions:
REMARK  status: ('A' for Active; 'I' for Inactive)
REMARK    1  A    between atoms: C_1  and  O_2
REMARK    2  A    between atoms: O_2  and  C_3
REMARK    3  A    between atoms: C_3  and  O_5
REMARK    4  A    between atoms: O_5  and  C_6
REMARK    5  A    between atoms: C_6  and  O_7
REMARK    6  A    between atoms: O_7  and  C_8
REMARK    7  A    between atoms: N_19  and  C_25
REMARK                            x       y       z     vdW  Elec       q    Type
REMARK                         _______ _______ _______ _____ _____    ______ ____
ROOT
ATOM      1  C   UNL     1       7.962  -0.706  24.652  0.00  0.00    +0.201 A 
ATOM      2  C   UNL     1       8.143  -1.741  23.580  0.00  0.00    +0.224 A 
ATOM      3  O   UNL     1       9.027  -1.697  22.730  0.00  0.00    -0.284 OA
ATOM      4  C   UNL     1       7.115  -2.778  23.469  0.00  0.00    +0.074 A 
ATOM      5  C   UNL     1       6.189  -2.838  24.424  0.00  0.00    +0.113 A 
ATOM      6  N   UNL     1       6.155  -2.101  25.595  0.00  0.00    -0.260 N 
ATOM      7  N   UNL     1       4.986  -2.155  26.517  0.00  0.00    -0.236 N 
ATOM      8  C   UNL     1       5.210  -1.248  27.696  0.00  0.00    +0.206 C 
ATOM      9  N   UNL     1       5.430   0.084  27.126  0.00  0.00    -0.272 N 
ATOM     10  C   UNL     1       4.967   1.286  27.817  0.00  0.00    +0.138 C 
ATOM     11  C   UNL     1       3.715   1.070  28.633  0.00  0.00    +0.179 C 
ATOM     12  O   UNL     1       3.985   0.020  29.554  0.00  0.00    -0.375 OA
ATOM     13  C   UNL     1       6.619   0.239  26.434  0.00  0.00    +0.270 C 
ATOM     14  O   UNL     1       7.258   1.286  26.494  0.00  0.00    -0.268 OA
ATOM     15  C   UNL     1       4.135  -1.212  28.836  0.00  0.00    +0.203 C 
ATOM     16  C   UNL     1       6.971  -0.930  25.558  0.00  0.00    +0.169 A 
ENDROOT
BRANCH   7  17
ATOM     17  C   UNL     1       4.267  -3.477  26.808  0.00  0.00    +0.155 C 
ATOM     18  C   UNL     1       4.572  -4.284  28.072  0.00  0.00    -0.008 A 
ATOM     19  C   UNL     1       5.737  -5.039  28.217  0.00  0.00    +0.014 A 
ATOM     20  C   UNL     1       5.984  -5.715  29.421  0.00  0.00    +0.015 A 
ATOM     21  C   UNL     1       5.080  -5.640  30.485  0.00  0.00    +0.001 A 
ATOM     22  C   UNL     1       3.892  -4.939  30.335  0.00  0.00    +0.000 A 
ATOM     23  S   UNL     1       6.916  -5.134  26.898  0.00  0.00    -0.120 S 
ATOM     24  C   UNL     1       5.942  -6.048  25.687  0.00  0.00    +0.112 C 
ATOM     25  C   UNL     1       4.641  -5.495  25.151  0.00  0.00    +0.006 A 
ATOM     26  C   UNL     1       4.176  -6.167  23.988  0.00  0.00    +0.163 A 
ATOM     27  F   UNL     1       4.934  -7.129  23.436  0.00  0.00    -0.202 F 
ATOM     28  C   UNL     1       2.980  -5.834  23.365  0.00  0.00    +0.159 A 
ATOM     29  F   UNL     1       2.606  -6.460  22.239  0.00  0.00    -0.202 F 
ATOM     30  C   UNL     1       2.174  -4.843  23.892  0.00  0.00    +0.041 A 
ATOM     31  C   UNL     1       2.603  -4.145  25.021  0.00  0.00    +0.009 A 
ATOM     32  C   UNL     1       3.620  -4.310  29.123  0.00  0.00    +0.007 A 
ATOM     33  C   UNL     1       3.851  -4.427  25.653  0.00  0.00    -0.014 A 
ENDBRANCH   7  17
BRANCH   1  34
ATOM     34  O   UNL     1       8.658   0.484  24.571  0.00  0.00    -0.450 OA
BRANCH  34  35
ATOM     35  C   UNL     1      10.041   0.454  24.900  0.00  0.00    +0.473 C 
BRANCH  35  36
ATOM     36  O   UNL     1      10.828   0.853  23.780  0.00  0.00    -0.397 OA
BRANCH  36  37
ATOM     37  C   UNL     1      10.285   1.888  23.099  0.00  0.00    +0.513 C 
ATOM     38  O   UNL     1      10.131   3.030  23.508  0.00  0.00    -0.203 OA
BRANCH  37  40
ATOM     39  C   UNL     1       8.626   1.682  21.483  0.00  0.00    +0.284 C 
ATOM     40  O   UNL     1       9.979   1.447  21.852  0.00  0.00    -0.437 OA
ENDBRANCH  37  40
ENDBRANCH  36  37
ENDBRANCH  35  36
ENDBRANCH  34  35
ENDBRANCH   1  34
TORSDOF 6
ENDMDL
