MODEL 1
REMARK VINA RESULT:      -7.4      0.000      0.000
REMARK  Name = 
REMARK  15 active torsions:
REMARK  status: ('A' for Active; 'I' for Inactive)
REMARK    1  A    between atoms: C_1  and  C_2
REMARK    2  A    between atoms: C_2  and  C_3
REMARK    3  A    between atoms: C_3  and  C_4
REMARK    4  A    between atoms: C_4  and  C_36
REMARK    5  A    between atoms: C_6  and  O_35
REMARK    6  A    between atoms: C_7  and  C_11
REMARK    7  A    between atoms: C_11  and  C_13
REMARK    8  A    between atoms: C_11  and  C_15
REMARK    9  A    between atoms: C_13  and  C_14
REMARK   10  A    between atoms: C_17  and  N_21
REMARK   11  A    between atoms: N_21  and  S_22
REMARK   12  A    between atoms: S_22  and  C_25
REMARK   13  A    between atoms: C_28  and  C_31
REMARK   14  A    between atoms: C_36  and  C_37
REMARK   15  A    between atoms: C_37  and  C_38
REMARK                            x       y       z     vdW  Elec       q    Type
REMARK                         _______ _______ _______ _____ _____    ______ ____
ROOT
ATOM      1  C   UNL     1       6.582  -5.102  22.906  0.00  0.00    +0.059 C 
ENDROOT
BRANCH   1   6
ATOM      2  C   UNL     1       9.195  -1.772  24.205  0.00  0.00    +0.121 C 
ATOM      3  O   UNL     1       7.840  -1.631  23.721  0.00  0.00    -0.454 OA
ATOM      4  C   UNL     1       7.028  -2.639  23.337  0.00  0.00    +0.339 C 
ATOM      5  O   UNL     1       5.916  -2.391  22.882  0.00  0.00    -0.245 OA
ATOM      6  C   UNL     1       7.518  -4.031  23.484  0.00  0.00    +0.081 C 
ATOM      7  C   UNL     1       8.661  -4.251  24.163  0.00  0.00    +0.108 C 
ATOM      8  C   UNL     1       9.468  -3.164  24.790  0.00  0.00    +0.122 C 
BRANCH   7   9
ATOM      9  O   UNL     1       9.168  -5.524  24.316  0.00  0.00    -0.510 OA
ATOM     10  H   UNL     1      10.080  -5.568  23.981  0.00  0.00    +0.292 HD
ENDBRANCH   7   9
BRANCH   2  11
ATOM     11  C   UNL     1       9.321  -0.749  25.372  0.00  0.00    +0.048 C 
BRANCH  11  13
ATOM     12  C   UNL     1       7.942   1.333  25.689  0.00  0.00    +0.004 C 
ATOM     13  C   UNL     1       7.998  -0.174  25.893  0.00  0.00    +0.000 C 
ENDBRANCH  11  13
ENDBRANCH   2  11
BRANCH   2  14
ATOM     14  C   UNL     1      10.183  -1.407  23.069  0.00  0.00    +0.053 C 
BRANCH  14  15
ATOM     15  C   UNL     1       9.578  -0.686  21.856  0.00  0.00    +0.039 C 
BRANCH  15  16
ATOM     16  C   UNL     1       9.386   0.780  22.164  0.00  0.00    -0.047 A 
ATOM     17  C   UNL     1       8.172   1.413  21.867  0.00  0.00    +0.003 A 
ATOM     18  C   UNL     1       7.960   2.742  22.235  0.00  0.00    +0.000 A 
ATOM     19  C   UNL     1       8.959   3.451  22.899  0.00  0.00    +0.000 A 
ATOM     20  C   UNL     1      10.177   2.835  23.184  0.00  0.00    +0.000 A 
ATOM     21  C   UNL     1      10.392   1.506  22.817  0.00  0.00    +0.003 A 
ENDBRANCH  15  16
ENDBRANCH  14  15
ENDBRANCH   2  14
ENDBRANCH   1   6
BRANCH   1  22
ATOM     22  C   UNL     1       5.460  -5.480  23.870  0.00  0.00    -0.038 A 
ATOM     23  C   UNL     1       4.121  -5.261  23.493  0.00  0.00    +0.004 A 
ATOM     24  C   UNL     1       3.068  -5.632  24.333  0.00  0.00    +0.002 A 
ATOM     25  C   UNL     1       3.334  -6.251  25.554  0.00  0.00    +0.024 A 
ATOM     26  C   UNL     1       4.655  -6.454  25.950  0.00  0.00    +0.048 A 
ATOM     27  C   UNL     1       5.708  -6.051  25.129  0.00  0.00    +0.028 A 
BRANCH  26  28
ATOM     28  N   UNL     1       4.943  -7.142  27.152  0.00  0.00    -0.215 N 
ATOM     29  H   UNL     1       4.609  -8.093  27.297  0.00  0.00    +0.174 HD
BRANCH  28  30
ATOM     30  S   UNL     1       5.505  -6.323  28.503  0.00  0.00    +0.090 S 
ATOM     31  O   UNL     1       6.933  -6.563  28.610  0.00  0.00    -0.148 OA
ATOM     32  O   UNL     1       4.625  -6.662  29.605  0.00  0.00    -0.148 OA
BRANCH  30  33
ATOM     33  C   UNL     1       5.271  -4.584  28.119  0.00  0.00    +0.197 A 
ATOM     34  C   UNL     1       6.241  -3.890  27.412  0.00  0.00    +0.050 A 
ATOM     35  C   UNL     1       5.976  -2.562  27.091  0.00  0.00    +0.017 A 
ATOM     36  C   UNL     1       4.769  -1.973  27.490  0.00  0.00    +0.073 A 
ATOM     37  C   UNL     1       3.877  -2.750  28.220  0.00  0.00    +0.125 A 
ATOM     38  N   UNL     1       4.087  -4.051  28.533  0.00  0.00    -0.235 NA
BRANCH  36  39
ATOM     39  C   UNL     1       4.435  -0.560  27.112  0.00  0.00    +0.419 C 
ATOM     40  F   UNL     1       4.786  -0.276  25.827  0.00  0.00    -0.166 F 
ATOM     41  F   UNL     1       5.080   0.356  27.885  0.00  0.00    -0.166 F 
ATOM     42  F   UNL     1       3.109  -0.266  27.208  0.00  0.00    -0.166 F 
ENDBRANCH  36  39
ENDBRANCH  30  33
ENDBRANCH  28  30
ENDBRANCH  26  28
ENDBRANCH   1  22
BRANCH   1  43
ATOM     43  C   UNL     1       6.060  -4.804  21.479  0.00  0.00    +0.010 C 
ATOM     44  C   UNL     1       6.068  -6.017  20.556  0.00  0.00    +0.005 C 
ENDBRANCH   1  43
TORSDOF 13
ENDMDL
MODEL 2
REMARK VINA RESULT:      -7.3      2.955      6.195
REMARK  Name = 
REMARK  15 active torsions:
REMARK  status: ('A' for Active; 'I' for Inactive)
REMARK    1  A    between atoms: C_1  and  C_2
REMARK    2  A    between atoms: C_2  and  C_3
REMARK    3  A    between atoms: C_3  and  C_4
REMARK    4  A    between atoms: C_4  and  C_36
REMARK    5  A    between atoms: C_6  and  O_35
REMARK    6  A    between atoms: C_7  and  C_11
REMARK    7  A    between atoms: C_11  and  C_13
REMARK    8  A    between atoms: C_11  and  C_15
REMARK    9  A    between atoms: C_13  and  C_14
REMARK   10  A    between atoms: C_17  and  N_21
REMARK   11  A    between atoms: N_21  and  S_22
REMARK   12  A    between atoms: S_22  and  C_25
REMARK   13  A    between atoms: C_28  and  C_31
REMARK   14  A    between atoms: C_36  and  C_37
REMARK   15  A    between atoms: C_37  and  C_38
REMARK                            x       y       z     vdW  Elec       q    Type
REMARK                         _______ _______ _______ _____ _____    ______ ____
ROOT
ATOM      1  C   UNL     1       6.213   1.577  26.732  0.00  0.00    +0.059 C 
ENDROOT
BRANCH   1   6
ATOM      2  C   UNL     1       8.769  -0.181  23.573  0.00  0.00    +0.121 C 
ATOM      3  O   UNL     1       7.695   0.761  23.351  0.00  0.00    -0.454 OA
ATOM      4  C   UNL     1       6.919   1.316  24.306  0.00  0.00    +0.339 C 
ATOM      5  O   UNL     1       5.994   2.057  23.990  0.00  0.00    -0.245 OA
ATOM      6  C   UNL     1       7.221   1.006  25.724  0.00  0.00    +0.081 C 
ATOM      7  C   UNL     1       8.358   0.347  26.020  0.00  0.00    +0.108 C 
ATOM      8  C   UNL     1       9.348  -0.088  24.991  0.00  0.00    +0.122 C 
BRANCH   7   9
ATOM      9  O   UNL     1       8.679   0.021  27.320  0.00  0.00    -0.510 OA
ATOM     10  H   UNL     1       9.465   0.516  27.610  0.00  0.00    +0.292 HD
ENDBRANCH   7   9
BRANCH   2  11
ATOM     11  C   UNL     1       9.896   0.243  22.586  0.00  0.00    +0.048 C 
BRANCH  11  13
ATOM     12  C   UNL     1      10.487   2.670  22.904  0.00  0.00    +0.004 C 
ATOM     13  C   UNL     1       9.775   1.661  22.014  0.00  0.00    +0.000 C 
ENDBRANCH  11  13
ENDBRANCH   2  11
BRANCH   2  14
ATOM     14  C   UNL     1       8.273  -1.609  23.231  0.00  0.00    +0.053 C 
BRANCH  14  15
ATOM     15  C   UNL     1       9.203  -2.760  23.641  0.00  0.00    +0.039 C 
BRANCH  15  16
ATOM     16  C   UNL     1       8.561  -3.585  24.731  0.00  0.00    -0.047 A 
ATOM     17  C   UNL     1       8.859  -4.948  24.856  0.00  0.00    +0.003 A 
ATOM     18  C   UNL     1       8.341  -5.690  25.918  0.00  0.00    +0.000 A 
ATOM     19  C   UNL     1       7.517  -5.078  26.861  0.00  0.00    +0.000 A 
ATOM     20  C   UNL     1       7.200  -3.726  26.736  0.00  0.00    +0.000 A 
ATOM     21  C   UNL     1       7.718  -2.982  25.674  0.00  0.00    +0.003 A 
ENDBRANCH  15  16
ENDBRANCH  14  15
ENDBRANCH   2  14
ENDBRANCH   1   6
BRANCH   1  22
ATOM     22  C   UNL     1       5.346   0.493  27.368  0.00  0.00    -0.038 A 
ATOM     23  C   UNL     1       5.216   0.444  28.770  0.00  0.00    +0.004 A 
ATOM     24  C   UNL     1       4.399  -0.509  29.383  0.00  0.00    +0.002 A 
ATOM     25  C   UNL     1       3.677  -1.412  28.606  0.00  0.00    +0.024 A 
ATOM     26  C   UNL     1       3.811  -1.390  27.219  0.00  0.00    +0.048 A 
ATOM     27  C   UNL     1       4.655  -0.464  26.606  0.00  0.00    +0.028 A 
BRANCH  26  28
ATOM     28  N   UNL     1       3.034  -2.253  26.411  0.00  0.00    -0.215 N 
ATOM     29  H   UNL     1       2.218  -1.900  25.913  0.00  0.00    +0.174 HD
BRANCH  28  30
ATOM     30  S   UNL     1       3.188  -3.918  26.528  0.00  0.00    +0.090 S 
ATOM     31  O   UNL     1       1.863  -4.500  26.414  0.00  0.00    -0.148 OA
ATOM     32  O   UNL     1       4.005  -4.190  27.696  0.00  0.00    -0.148 OA
BRANCH  30  33
ATOM     33  C   UNL     1       4.122  -4.399  25.071  0.00  0.00    +0.197 A 
ATOM     34  C   UNL     1       4.469  -3.450  24.122  0.00  0.00    +0.050 A 
ATOM     35  C   UNL     1       5.245  -3.870  23.046  0.00  0.00    +0.017 A 
ATOM     36  C   UNL     1       5.639  -5.211  22.949  0.00  0.00    +0.073 A 
ATOM     37  C   UNL     1       5.213  -6.087  23.941  0.00  0.00    +0.125 A 
ATOM     38  N   UNL     1       4.476  -5.714  25.014  0.00  0.00    -0.235 NA
BRANCH  36  39
ATOM     39  C   UNL     1       6.519  -5.680  21.828  0.00  0.00    +0.419 C 
ATOM     40  F   UNL     1       7.537  -4.810  21.577  0.00  0.00    -0.166 F 
ATOM     41  F   UNL     1       5.847  -5.815  20.653  0.00  0.00    -0.166 F 
ATOM     42  F   UNL     1       7.110  -6.884  22.063  0.00  0.00    -0.166 F 
ENDBRANCH  36  39
ENDBRANCH  30  33
ENDBRANCH  28  30
ENDBRANCH  26  28
ENDBRANCH   1  22
BRANCH   1  43
ATOM     43  C   UNL     1       6.820   2.540  27.781  0.00  0.00    +0.010 C 
ATOM     44  C   UNL     1       6.805   4.003  27.355  0.00  0.00    +0.005 C 
ENDBRANCH   1  43
TORSDOF 13
ENDMDL
MODEL 3
REMARK VINA RESULT:      -7.3      3.227      6.257
REMARK  Name = 
REMARK  15 active torsions:
REMARK  status: ('A' for Active; 'I' for Inactive)
REMARK    1  A    between atoms: C_1  and  C_2
REMARK    2  A    between atoms: C_2  and  C_3
REMARK    3  A    between atoms: C_3  and  C_4
REMARK    4  A    between atoms: C_4  and  C_36
REMARK    5  A    between atoms: C_6  and  O_35
REMARK    6  A    between atoms: C_7  and  C_11
REMARK    7  A    between atoms: C_11  and  C_13
REMARK    8  A    between atoms: C_11  and  C_15
REMARK    9  A    between atoms: C_13  and  C_14
REMARK   10  A    between atoms: C_17  and  N_21
REMARK   11  A    between atoms: N_21  and  S_22
REMARK   12  A    between atoms: S_22  and  C_25
REMARK   13  A    between atoms: C_28  and  C_31
REMARK   14  A    between atoms: C_36  and  C_37
REMARK   15  A    between atoms: C_37  and  C_38
REMARK                            x       y       z     vdW  Elec       q    Type
REMARK                         _______ _______ _______ _____ _____    ______ ____
ROOT
ATOM      1  C   UNL     1       5.416   2.333  24.099  0.00  0.00    +0.059 C 
ENDROOT
BRANCH   1   6
ATOM      2  C   UNL     1       9.830   2.449  23.770  0.00  0.00    +0.121 C 
ATOM      3  O   UNL     1       8.926   2.010  22.732  0.00  0.00    -0.454 OA
ATOM      4  C   UNL     1       7.578   1.984  22.813  0.00  0.00    +0.339 C 
ATOM      5  O   UNL     1       6.916   1.529  21.885  0.00  0.00    -0.245 OA
ATOM      6  C   UNL     1       6.939   2.518  24.040  0.00  0.00    +0.081 C 
ATOM      7  C   UNL     1       7.698   3.177  24.937  0.00  0.00    +0.108 C 
ATOM      8  C   UNL     1       9.162   3.411  24.762  0.00  0.00    +0.122 C 
BRANCH   7   9
ATOM      9  O   UNL     1       7.156   3.680  26.101  0.00  0.00    -0.510 OA
ATOM     10  H   UNL     1       7.484   3.182  26.869  0.00  0.00    +0.292 HD
ENDBRANCH   7   9
BRANCH   2  11
ATOM     11  C   UNL     1      10.944   3.249  23.033  0.00  0.00    +0.048 C 
BRANCH  11  13
ATOM     12  C   UNL     1      12.651   5.089  23.224  0.00  0.00    +0.004 C 
ATOM     13  C   UNL     1      11.249   4.639  23.606  0.00  0.00    +0.000 C 
ENDBRANCH  11  13
ENDBRANCH   2  11
BRANCH   2  14
ATOM     14  C   UNL     1      10.441   1.210  24.472  0.00  0.00    +0.053 C 
BRANCH  14  15
ATOM     15  C   UNL     1      10.475  -0.083  23.646  0.00  0.00    +0.039 C 
BRANCH  15  16
ATOM     16  C   UNL     1       9.730  -1.182  24.368  0.00  0.00    -0.047 A 
ATOM     17  C   UNL     1       9.855  -2.513  23.952  0.00  0.00    +0.003 A 
ATOM     18  C   UNL     1       9.243  -3.539  24.673  0.00  0.00    +0.000 A 
ATOM     19  C   UNL     1       8.500  -3.243  25.814  0.00  0.00    +0.000 A 
ATOM     20  C   UNL     1       8.355  -1.919  26.227  0.00  0.00    +0.000 A 
ATOM     21  C   UNL     1       8.966  -0.891  25.506  0.00  0.00    +0.003 A 
ENDBRANCH  15  16
ENDBRANCH  14  15
ENDBRANCH   2  14
ENDBRANCH   1   6
BRANCH   1  22
ATOM     22  C   UNL     1       4.957   1.684  25.403  0.00  0.00    -0.038 A 
ATOM     23  C   UNL     1       4.154   2.419  26.297  0.00  0.00    +0.004 A 
ATOM     24  C   UNL     1       3.682   1.843  27.479  0.00  0.00    +0.002 A 
ATOM     25  C   UNL     1       3.983   0.515  27.776  0.00  0.00    +0.024 A 
ATOM     26  C   UNL     1       4.794  -0.218  26.912  0.00  0.00    +0.048 A 
ATOM     27  C   UNL     1       5.296   0.366  25.749  0.00  0.00    +0.028 A 
BRANCH  26  28
ATOM     28  N   UNL     1       5.052  -1.586  27.163  0.00  0.00    -0.215 N 
ATOM     29  H   UNL     1       5.980  -1.893  27.448  0.00  0.00    +0.174 HD
BRANCH  28  30
ATOM     30  S   UNL     1       3.984  -2.775  26.656  0.00  0.00    +0.090 S 
ATOM     31  O   UNL     1       2.812  -2.119  26.104  0.00  0.00    -0.148 OA
ATOM     32  O   UNL     1       3.844  -3.717  27.750  0.00  0.00    -0.148 OA
BRANCH  30  33
ATOM     33  C   UNL     1       4.828  -3.610  25.308  0.00  0.00    +0.197 A 
ATOM     34  C   UNL     1       5.077  -2.939  24.120  0.00  0.00    +0.050 A 
ATOM     35  C   UNL     1       5.788  -3.618  23.135  0.00  0.00    +0.017 A 
ATOM     36  C   UNL     1       6.217  -4.933  23.362  0.00  0.00    +0.073 A 
ATOM     37  C   UNL     1       5.889  -5.523  24.578  0.00  0.00    +0.125 A 
ATOM     38  N   UNL     1       5.218  -4.889  25.569  0.00  0.00    -0.235 NA
BRANCH  36  39
ATOM     39  C   UNL     1       7.030  -5.669  22.339  0.00  0.00    +0.419 C 
ATOM     40  F   UNL     1       7.414  -4.860  21.311  0.00  0.00    -0.166 F 
ATOM     41  F   UNL     1       6.348  -6.698  21.767  0.00  0.00    -0.166 F 
ATOM     42  F   UNL     1       8.177  -6.208  22.835  0.00  0.00    -0.166 F 
ENDBRANCH  36  39
ENDBRANCH  30  33
ENDBRANCH  28  30
ENDBRANCH  26  28
ENDBRANCH   1  22
BRANCH   1  43
ATOM     43  C   UNL     1       4.595   3.597  23.747  0.00  0.00    +0.010 C 
ATOM     44  C   UNL     1       3.585   3.382  22.626  0.00  0.00    +0.005 C 
ENDBRANCH   1  43
TORSDOF 13
ENDMDL
MODEL 4
REMARK VINA RESULT:      -7.2      2.389      3.720
REMARK  Name = 
REMARK  15 active torsions:
REMARK  status: ('A' for Active; 'I' for Inactive)
REMARK    1  A    between atoms: C_1  and  C_2
REMARK    2  A    between atoms: C_2  and  C_3
REMARK    3  A    between atoms: C_3  and  C_4
REMARK    4  A    between atoms: C_4  and  C_36
REMARK    5  A    between atoms: C_6  and  O_35
REMARK    6  A    between atoms: C_7  and  C_11
REMARK    7  A    between atoms: C_11  and  C_13
REMARK    8  A    between atoms: C_11  and  C_15
REMARK    9  A    between atoms: C_13  and  C_14
REMARK   10  A    between atoms: C_17  and  N_21
REMARK   11  A    between atoms: N_21  and  S_22
REMARK   12  A    between atoms: S_22  and  C_25
REMARK   13  A    between atoms: C_28  and  C_31
REMARK   14  A    between atoms: C_36  and  C_37
REMARK   15  A    between atoms: C_37  and  C_38
REMARK                            x       y       z     vdW  Elec       q    Type
REMARK                         _______ _______ _______ _____ _____    ______ ____
ROOT
ATOM      1  C   UNL     1       6.723  -5.182  23.870  0.00  0.00    +0.059 C 
ENDROOT
BRANCH   1   6
ATOM      2  C   UNL     1       8.955  -1.365  23.634  0.00  0.00    +0.121 C 
ATOM      3  O   UNL     1       9.505  -2.629  24.068  0.00  0.00    -0.454 OA
ATOM      4  C   UNL     1       8.841  -3.803  24.129  0.00  0.00    +0.339 C 
ATOM      5  O   UNL     1       9.398  -4.801  24.575  0.00  0.00    -0.245 OA
ATOM      6  C   UNL     1       7.440  -3.842  23.645  0.00  0.00    +0.081 C 
ATOM      7  C   UNL     1       6.945  -2.773  22.992  0.00  0.00    +0.108 C 
ATOM      8  C   UNL     1       7.737  -1.538  22.717  0.00  0.00    +0.122 C 
BRANCH   7   9
ATOM      9  O   UNL     1       5.645  -2.752  22.534  0.00  0.00    -0.510 OA
ATOM     10  H   UNL     1       5.074  -3.287  23.112  0.00  0.00    +0.292 HD
ENDBRANCH   7   9
BRANCH   2  11
ATOM     11  C   UNL     1      10.078  -0.698  22.787  0.00  0.00    +0.048 C 
BRANCH  11  13
ATOM     12  C   UNL     1      10.056   1.644  21.865  0.00  0.00    +0.004 C 
ATOM     13  C   UNL     1       9.596   0.210  21.648  0.00  0.00    +0.000 C 
ENDBRANCH  11  13
ENDBRANCH   2  11
BRANCH   2  14
ATOM     14  C   UNL     1       8.638  -0.494  24.876  0.00  0.00    +0.053 C 
BRANCH  14  15
ATOM     15  C   UNL     1       7.283   0.228  24.864  0.00  0.00    +0.039 C 
BRANCH  15  16
ATOM     16  C   UNL     1       7.465   1.668  24.447  0.00  0.00    -0.047 A 
ATOM     17  C   UNL     1       8.439   2.466  25.060  0.00  0.00    +0.003 A 
ATOM     18  C   UNL     1       8.671   3.766  24.613  0.00  0.00    +0.000 A 
ATOM     19  C   UNL     1       7.930   4.283  23.552  0.00  0.00    +0.000 A 
ATOM     20  C   UNL     1       6.946   3.504  22.946  0.00  0.00    +0.000 A 
ATOM     21  C   UNL     1       6.711   2.202  23.392  0.00  0.00    +0.003 A 
ENDBRANCH  15  16
ENDBRANCH  14  15
ENDBRANCH   2  14
ENDBRANCH   1   6
BRANCH   1  22
ATOM     22  C   UNL     1       5.801  -5.153  25.086  0.00  0.00    -0.038 A 
ATOM     23  C   UNL     1       5.240  -6.356  25.559  0.00  0.00    +0.004 A 
ATOM     24  C   UNL     1       4.425  -6.373  26.693  0.00  0.00    +0.002 A 
ATOM     25  C   UNL     1       4.176  -5.191  27.389  0.00  0.00    +0.024 A 
ATOM     26  C   UNL     1       4.705  -3.990  26.922  0.00  0.00    +0.048 A 
ATOM     27  C   UNL     1       5.489  -3.966  25.769  0.00  0.00    +0.028 A 
BRANCH  26  28
ATOM     28  N   UNL     1       4.519  -2.794  27.653  0.00  0.00    -0.215 N 
ATOM     29  H   UNL     1       5.029  -2.633  28.520  0.00  0.00    +0.174 HD
BRANCH  28  30
ATOM     30  S   UNL     1       3.219  -1.783  27.341  0.00  0.00    +0.090 S 
ATOM     31  O   UNL     1       2.296  -1.880  28.459  0.00  0.00    -0.148 OA
ATOM     32  O   UNL     1       2.765  -2.074  25.995  0.00  0.00    -0.148 OA
BRANCH  30  33
ATOM     33  C   UNL     1       3.911  -0.125  27.349  0.00  0.00    +0.197 A 
ATOM     34  C   UNL     1       5.081   0.138  28.044  0.00  0.00    +0.050 A 
ATOM     35  C   UNL     1       5.601   1.426  27.963  0.00  0.00    +0.017 A 
ATOM     36  C   UNL     1       4.940   2.402  27.205  0.00  0.00    +0.073 A 
ATOM     37  C   UNL     1       3.757   2.040  26.570  0.00  0.00    +0.125 A 
ATOM     38  N   UNL     1       3.230   0.793  26.606  0.00  0.00    -0.235 NA
BRANCH  36  39
ATOM     39  C   UNL     1       5.507   3.783  27.057  0.00  0.00    +0.419 C 
ATOM     40  F   UNL     1       6.812   3.845  27.442  0.00  0.00    -0.166 F 
ATOM     41  F   UNL     1       4.851   4.704  27.816  0.00  0.00    -0.166 F 
ATOM     42  F   UNL     1       5.473   4.255  25.781  0.00  0.00    -0.166 F 
ENDBRANCH  36  39
ENDBRANCH  30  33
ENDBRANCH  28  30
ENDBRANCH  26  28
ENDBRANCH   1  22
BRANCH   1  43
ATOM     43  C   UNL     1       6.029  -5.764  22.615  0.00  0.00    +0.010 C 
ATOM     44  C   UNL     1       6.963  -5.944  21.424  0.00  0.00    +0.005 C 
ENDBRANCH   1  43
TORSDOF 13
ENDMDL
MODEL 5
REMARK VINA RESULT:      -7.2      2.670      4.832
REMARK  Name = 
REMARK  15 active torsions:
REMARK  status: ('A' for Active; 'I' for Inactive)
REMARK    1  A    between atoms: C_1  and  C_2
REMARK    2  A    between atoms: C_2  and  C_3
REMARK    3  A    between atoms: C_3  and  C_4
REMARK    4  A    between atoms: C_4  and  C_36
REMARK    5  A    between atoms: C_6  and  O_35
REMARK    6  A    between atoms: C_7  and  C_11
REMARK    7  A    between atoms: C_11  and  C_13
REMARK    8  A    between atoms: C_11  and  C_15
REMARK    9  A    between atoms: C_13  and  C_14
REMARK   10  A    between atoms: C_17  and  N_21
REMARK   11  A    between atoms: N_21  and  S_22
REMARK   12  A    between atoms: S_22  and  C_25
REMARK   13  A    between atoms: C_28  and  C_31
REMARK   14  A    between atoms: C_36  and  C_37
REMARK   15  A    between atoms: C_37  and  C_38
REMARK                            x       y       z     vdW  Elec       q    Type
REMARK                         _______ _______ _______ _____ _____    ______ ____
ROOT
ATOM      1  C   UNL     1       5.699  -0.047  25.029  0.00  0.00    +0.059 C 
ENDROOT
BRANCH   1   6
ATOM      2  C   UNL     1       9.351  -2.360  24.072  0.00  0.00    +0.121 C 
ATOM      3  O   UNL     1       9.103  -1.667  25.316  0.00  0.00    -0.454 OA
ATOM      4  C   UNL     1       7.988  -0.972  25.626  0.00  0.00    +0.339 C 
ATOM      5  O   UNL     1       7.918  -0.371  26.694  0.00  0.00    -0.245 OA
ATOM      6  C   UNL     1       6.871  -0.964  24.651  0.00  0.00    +0.081 C 
ATOM      7  C   UNL     1       6.926  -1.792  23.590  0.00  0.00    +0.108 C 
ATOM      8  C   UNL     1       8.056  -2.736  23.340  0.00  0.00    +0.122 C 
BRANCH   7   9
ATOM      9  O   UNL     1       5.922  -1.813  22.646  0.00  0.00    -0.510 OA
ATOM     10  H   UNL     1       5.115  -1.400  23.000  0.00  0.00    +0.292 HD
ENDBRANCH   7   9
BRANCH   2  11
ATOM     11  C   UNL     1      10.053  -3.690  24.476  0.00  0.00    +0.048 C 
BRANCH  11  13
ATOM     12  C   UNL     1       8.888  -4.816  26.403  0.00  0.00    +0.004 C 
ATOM     13  C   UNL     1       9.117  -4.829  24.898  0.00  0.00    +0.000 C 
ENDBRANCH  11  13
ENDBRANCH   2  11
BRANCH   2  14
ATOM     14  C   UNL     1      10.298  -1.505  23.192  0.00  0.00    +0.053 C 
BRANCH  14  15
ATOM     15  C   UNL     1       9.653  -0.819  21.980  0.00  0.00    +0.039 C 
BRANCH  15  16
ATOM     16  C   UNL     1       9.338   0.623  22.304  0.00  0.00    -0.047 A 
ATOM     17  C   UNL     1       8.374   1.320  21.565  0.00  0.00    +0.003 A 
ATOM     18  C   UNL     1       8.015   2.620  21.922  0.00  0.00    +0.000 A 
ATOM     19  C   UNL     1       8.617   3.235  23.018  0.00  0.00    +0.000 A 
ATOM     20  C   UNL     1       9.589   2.555  23.750  0.00  0.00    +0.000 A 
ATOM     21  C   UNL     1       9.951   1.255  23.395  0.00  0.00    +0.003 A 
ENDBRANCH  15  16
ENDBRANCH  14  15
ENDBRANCH   2  14
ENDBRANCH   1   6
BRANCH   1  22
ATOM     22  C   UNL     1       4.952  -0.535  26.268  0.00  0.00    -0.038 A 
ATOM     23  C   UNL     1       4.366   0.404  27.139  0.00  0.00    +0.004 A 
ATOM     24  C   UNL     1       3.640  -0.009  28.258  0.00  0.00    +0.002 A 
ATOM     25  C   UNL     1       3.466  -1.368  28.514  0.00  0.00    +0.024 A 
ATOM     26  C   UNL     1       4.058  -2.309  27.674  0.00  0.00    +0.048 A 
ATOM     27  C   UNL     1       4.814  -1.899  26.576  0.00  0.00    +0.028 A 
BRANCH  26  28
ATOM     28  N   UNL     1       3.835  -3.691  27.879  0.00  0.00    -0.215 N 
ATOM     29  H   UNL     1       4.419  -4.219  28.525  0.00  0.00    +0.174 HD
BRANCH  28  30
ATOM     30  S   UNL     1       2.880  -4.578  26.824  0.00  0.00    +0.090 S 
ATOM     31  O   UNL     1       1.765  -3.742  26.418  0.00  0.00    -0.148 OA
ATOM     32  O   UNL     1       2.637  -5.865  27.447  0.00  0.00    -0.148 OA
BRANCH  30  33
ATOM     33  C   UNL     1       3.914  -4.846  25.380  0.00  0.00    +0.197 A 
ATOM     34  C   UNL     1       5.149  -5.464  25.512  0.00  0.00    +0.050 A 
ATOM     35  C   UNL     1       5.878  -5.699  24.350  0.00  0.00    +0.017 A 
ATOM     36  C   UNL     1       5.361  -5.307  23.108  0.00  0.00    +0.073 A 
ATOM     37  C   UNL     1       4.125  -4.669  23.090  0.00  0.00    +0.125 A 
ATOM     38  N   UNL     1       3.376  -4.441  24.195  0.00  0.00    -0.235 NA
BRANCH  36  39
ATOM     39  C   UNL     1       6.101  -5.596  21.835  0.00  0.00    +0.419 C 
ATOM     40  F   UNL     1       7.342  -6.106  22.069  0.00  0.00    -0.166 F 
ATOM     41  F   UNL     1       6.293  -4.483  21.076  0.00  0.00    -0.166 F 
ATOM     42  F   UNL     1       5.475  -6.497  21.030  0.00  0.00    -0.166 F 
ENDBRANCH  36  39
ENDBRANCH  30  33
ENDBRANCH  28  30
ENDBRANCH  26  28
ENDBRANCH   1  22
BRANCH   1  43
ATOM     43  C   UNL     1       6.054   1.459  25.109  0.00  0.00    +0.010 C 
ATOM     44  C   UNL     1       5.210   2.338  24.194  0.00  0.00    +0.005 C 
ENDBRANCH   1  43
TORSDOF 13
ENDMDL
MODEL 6
REMARK VINA RESULT:      -7.2      2.239      3.528
REMARK  Name = 
REMARK  15 active torsions:
REMARK  status: ('A' for Active; 'I' for Inactive)
REMARK    1  A    between atoms: C_1  and  C_2
REMARK    2  A    between atoms: C_2  and  C_3
REMARK    3  A    between atoms: C_3  and  C_4
REMARK    4  A    between atoms: C_4  and  C_36
REMARK    5  A    between atoms: C_6  and  O_35
REMARK    6  A    between atoms: C_7  and  C_11
REMARK    7  A    between atoms: C_11  and  C_13
REMARK    8  A    between atoms: C_11  and  C_15
REMARK    9  A    between atoms: C_13  and  C_14
REMARK   10  A    between atoms: C_17  and  N_21
REMARK   11  A    between atoms: N_21  and  S_22
REMARK   12  A    between atoms: S_22  and  C_25
REMARK   13  A    between atoms: C_28  and  C_31
REMARK   14  A    between atoms: C_36  and  C_37
REMARK   15  A    between atoms: C_37  and  C_38
REMARK                            x       y       z     vdW  Elec       q    Type
REMARK                         _______ _______ _______ _____ _____    ______ ____
ROOT
ATOM      1  C   UNL     1       6.407  -5.353  24.694  0.00  0.00    +0.059 C 
ENDROOT
BRANCH   1   6
ATOM      2  C   UNL     1       9.172  -2.013  23.798  0.00  0.00    +0.121 C 
ATOM      3  O   UNL     1       9.558  -3.397  23.957  0.00  0.00    -0.454 OA
ATOM      4  C   UNL     1       8.723  -4.427  24.215  0.00  0.00    +0.339 C 
ATOM      5  O   UNL     1       9.176  -5.553  24.392  0.00  0.00    -0.245 OA
ATOM      6  C   UNL     1       7.266  -4.153  24.271  0.00  0.00    +0.081 C 
ATOM      7  C   UNL     1       6.814  -2.946  23.880  0.00  0.00    +0.108 C 
ATOM      8  C   UNL     1       7.704  -1.856  23.380  0.00  0.00    +0.122 C 
BRANCH   7   9
ATOM      9  O   UNL     1       5.472  -2.634  23.927  0.00  0.00    -0.510 OA
ATOM     10  H   UNL     1       4.952  -3.417  24.178  0.00  0.00    +0.292 HD
ENDBRANCH   7   9
BRANCH   2  11
ATOM     11  C   UNL     1      10.044  -1.477  22.625  0.00  0.00    +0.048 C 
BRANCH  11  13
ATOM     12  C   UNL     1       9.266   0.489  21.259  0.00  0.00    +0.004 C 
ATOM     13  C   UNL     1       9.272  -1.028  21.378  0.00  0.00    +0.000 C 
ENDBRANCH  11  13
ENDBRANCH   2  11
BRANCH   2  14
ATOM     14  C   UNL     1       9.499  -1.240  25.100  0.00  0.00    +0.053 C 
BRANCH  14  15
ATOM     15  C   UNL     1       8.555  -0.082  25.451  0.00  0.00    +0.039 C 
BRANCH  15  16
ATOM     16  C   UNL     1       8.990   1.179  24.741  0.00  0.00    -0.047 A 
ATOM     17  C   UNL     1       8.048   2.155  24.391  0.00  0.00    +0.003 A 
ATOM     18  C   UNL     1       8.460   3.360  23.820  0.00  0.00    +0.000 A 
ATOM     19  C   UNL     1       9.814   3.599  23.592  0.00  0.00    +0.000 A 
ATOM     20  C   UNL     1      10.757   2.627  23.921  0.00  0.00    +0.000 A 
ATOM     21  C   UNL     1      10.348   1.420  24.492  0.00  0.00    +0.003 A 
ENDBRANCH  15  16
ENDBRANCH  14  15
ENDBRANCH   2  14
ENDBRANCH   1   6
BRANCH   1  22
ATOM     22  C   UNL     1       5.716  -5.132  26.037  0.00  0.00    -0.038 A 
ATOM     23  C   UNL     1       6.465  -5.232  27.226  0.00  0.00    +0.004 A 
ATOM     24  C   UNL     1       5.875  -4.996  28.470  0.00  0.00    +0.002 A 
ATOM     25  C   UNL     1       4.532  -4.631  28.546  0.00  0.00    +0.024 A 
ATOM     26  C   UNL     1       3.772  -4.549  27.381  0.00  0.00    +0.048 A 
ATOM     27  C   UNL     1       4.350  -4.821  26.141  0.00  0.00    +0.028 A 
BRANCH  26  28
ATOM     28  N   UNL     1       2.427  -4.115  27.433  0.00  0.00    -0.215 N 
ATOM     29  H   UNL     1       1.681  -4.768  27.664  0.00  0.00    +0.174 HD
BRANCH  28  30
ATOM     30  S   UNL     1       1.968  -2.644  26.771  0.00  0.00    +0.090 S 
ATOM     31  O   UNL     1       0.728  -2.234  27.406  0.00  0.00    -0.148 OA
ATOM     32  O   UNL     1       2.036  -2.785  25.329  0.00  0.00    -0.148 OA
BRANCH  30  33
ATOM     33  C   UNL     1       3.248  -1.490  27.278  0.00  0.00    +0.197 A 
ATOM     34  C   UNL     1       3.350  -1.104  28.606  0.00  0.00    +0.050 A 
ATOM     35  C   UNL     1       4.399  -0.255  28.949  0.00  0.00    +0.017 A 
ATOM     36  C   UNL     1       5.296   0.182  27.965  0.00  0.00    +0.073 A 
ATOM     37  C   UNL     1       5.085  -0.243  26.658  0.00  0.00    +0.125 A 
ATOM     38  N   UNL     1       4.091  -1.084  26.287  0.00  0.00    -0.235 NA
BRANCH  36  39
ATOM     39  C   UNL     1       6.466   1.053  28.317  0.00  0.00    +0.419 C 
ATOM     40  F   UNL     1       6.267   1.732  29.481  0.00  0.00    -0.166 F 
ATOM     41  F   UNL     1       6.717   2.001  27.372  0.00  0.00    -0.166 F 
ATOM     42  F   UNL     1       7.630   0.368  28.480  0.00  0.00    -0.166 F 
ENDBRANCH  36  39
ENDBRANCH  30  33
ENDBRANCH  28  30
ENDBRANCH  26  28
ENDBRANCH   1  22
BRANCH   1  43
ATOM     43  C   UNL     1       5.432  -5.867  23.606  0.00  0.00    +0.010 C 
ATOM     44  C   UNL     1       6.100  -6.143  22.263  0.00  0.00    +0.005 C 
ENDBRANCH   1  43
TORSDOF 13
ENDMDL
MODEL 7
REMARK VINA RESULT:      -7.1      2.787      5.509
REMARK  Name = 
REMARK  15 active torsions:
REMARK  status: ('A' for Active; 'I' for Inactive)
REMARK    1  A    between atoms: C_1  and  C_2
REMARK    2  A    between atoms: C_2  and  C_3
REMARK    3  A    between atoms: C_3  and  C_4
REMARK    4  A    between atoms: C_4  and  C_36
REMARK    5  A    between atoms: C_6  and  O_35
REMARK    6  A    between atoms: C_7  and  C_11
REMARK    7  A    between atoms: C_11  and  C_13
REMARK    8  A    between atoms: C_11  and  C_15
REMARK    9  A    between atoms: C_13  and  C_14
REMARK   10  A    between atoms: C_17  and  N_21
REMARK   11  A    between atoms: N_21  and  S_22
REMARK   12  A    between atoms: S_22  and  C_25
REMARK   13  A    between atoms: C_28  and  C_31
REMARK   14  A    between atoms: C_36  and  C_37
REMARK   15  A    between atoms: C_37  and  C_38
REMARK                            x       y       z     vdW  Elec       q    Type
REMARK                         _______ _______ _______ _____ _____    ______ ____
ROOT
ATOM      1  C   UNL     1       7.979  -1.138  24.027  0.00  0.00    +0.059 C 
ENDROOT
BRANCH   1   6
ATOM      2  C   UNL     1       8.809   3.202  24.315  0.00  0.00    +0.121 C 
ATOM      3  O   UNL     1       9.653   2.153  24.840  0.00  0.00    -0.454 OA
ATOM      4  C   UNL     1       9.420   0.826  24.745  0.00  0.00    +0.339 C 
ATOM      5  O   UNL     1      10.180   0.030  25.287  0.00  0.00    -0.245 OA
ATOM      6  C   UNL     1       8.236   0.375  23.974  0.00  0.00    +0.081 C 
ATOM      7  C   UNL     1       7.551   1.276  23.244  0.00  0.00    +0.108 C 
ATOM      8  C   UNL     1       7.923   2.719  23.158  0.00  0.00    +0.122 C 
BRANCH   7   9
ATOM      9  O   UNL     1       6.434   0.912  22.522  0.00  0.00    -0.510 OA
ATOM     10  H   UNL     1       6.179   1.625  21.911  0.00  0.00    +0.292 HD
ENDBRANCH   7   9
BRANCH   2  11
ATOM     11  C   UNL     1       9.787   4.263  23.733  0.00  0.00    +0.048 C 
BRANCH  11  13
ATOM     12  C   UNL     1      12.200   4.875  23.355  0.00  0.00    +0.004 C 
ATOM     13  C   UNL     1      11.182   3.744  23.363  0.00  0.00    +0.000 C 
ENDBRANCH  11  13
ENDBRANCH   2  11
BRANCH   2  14
ATOM     14  C   UNL     1       7.982   3.818  25.471  0.00  0.00    +0.053 C 
BRANCH  14  15
ATOM     15  C   UNL     1       6.478   3.511  25.462  0.00  0.00    +0.039 C 
BRANCH  15  16
ATOM     16  C   UNL     1       6.121   2.622  26.630  0.00  0.00    -0.047 A 
ATOM     17  C   UNL     1       4.804   2.570  27.104  0.00  0.00    +0.003 A 
ATOM     18  C   UNL     1       4.453   1.680  28.119  0.00  0.00    +0.000 A 
ATOM     19  C   UNL     1       5.416   0.837  28.672  0.00  0.00    +0.000 A 
ATOM     20  C   UNL     1       6.732   0.893  28.219  0.00  0.00    +0.000 A 
ATOM     21  C   UNL     1       7.086   1.782  27.203  0.00  0.00    +0.003 A 
ENDBRANCH  15  16
ENDBRANCH  14  15
ENDBRANCH   2  14
ENDBRANCH   1   6
BRANCH   1  22
ATOM     22  C   UNL     1       6.899  -1.512  25.039  0.00  0.00    -0.038 A 
ATOM     23  C   UNL     1       5.617  -0.937  24.929  0.00  0.00    +0.004 A 
ATOM     24  C   UNL     1       4.594  -1.288  25.813  0.00  0.00    +0.002 A 
ATOM     25  C   UNL     1       4.825  -2.237  26.807  0.00  0.00    +0.024 A 
ATOM     26  C   UNL     1       6.094  -2.799  26.942  0.00  0.00    +0.048 A 
ATOM     27  C   UNL     1       7.127  -2.423  26.084  0.00  0.00    +0.028 A 
BRANCH  26  28
ATOM     28  N   UNL     1       6.328  -3.813  27.899  0.00  0.00    -0.215 N 
ATOM     29  H   UNL     1       6.859  -3.614  28.744  0.00  0.00    +0.174 HD
BRANCH  28  30
ATOM     30  S   UNL     1       6.079  -5.429  27.525  0.00  0.00    +0.090 S 
ATOM     31  O   UNL     1       4.738  -5.786  27.953  0.00  0.00    -0.148 OA
ATOM     32  O   UNL     1       7.224  -6.165  28.027  0.00  0.00    -0.148 OA
BRANCH  30  33
ATOM     33  C   UNL     1       6.116  -5.498  25.731  0.00  0.00    +0.197 A 
ATOM     34  C   UNL     1       4.933  -5.593  25.013  0.00  0.00    +0.050 A 
ATOM     35  C   UNL     1       5.021  -5.582  23.624  0.00  0.00    +0.017 A 
ATOM     36  C   UNL     1       6.273  -5.485  23.003  0.00  0.00    +0.073 A 
ATOM     37  C   UNL     1       7.399  -5.424  23.817  0.00  0.00    +0.125 A 
ATOM     38  N   UNL     1       7.355  -5.411  25.170  0.00  0.00    -0.235 NA
BRANCH  36  39
ATOM     39  C   UNL     1       6.393  -5.417  21.509  0.00  0.00    +0.419 C 
ATOM     40  F   UNL     1       7.651  -5.722  21.082  0.00  0.00    -0.166 F 
ATOM     41  F   UNL     1       6.123  -4.178  21.016  0.00  0.00    -0.166 F 
ATOM     42  F   UNL     1       5.561  -6.272  20.853  0.00  0.00    -0.166 F 
ENDBRANCH  36  39
ENDBRANCH  30  33
ENDBRANCH  28  30
ENDBRANCH  26  28
ENDBRANCH   1  22
BRANCH   1  43
ATOM     43  C   UNL     1       7.752  -1.805  22.648  0.00  0.00    +0.010 C 
ATOM     44  C   UNL     1       8.998  -1.837  21.769  0.00  0.00    +0.005 C 
ENDBRANCH   1  43
TORSDOF 13
ENDMDL
MODEL 8
REMARK VINA RESULT:      -7.1      3.165      6.044
REMARK  Name = 
REMARK  15 active torsions:
REMARK  status: ('A' for Active; 'I' for Inactive)
REMARK    1  A    between atoms: C_1  and  C_2
REMARK    2  A    between atoms: C_2  and  C_3
REMARK    3  A    between atoms: C_3  and  C_4
REMARK    4  A    between atoms: C_4  and  C_36
REMARK    5  A    between atoms: C_6  and  O_35
REMARK    6  A    between atoms: C_7  and  C_11
REMARK    7  A    between atoms: C_11  and  C_13
REMARK    8  A    between atoms: C_11  and  C_15
REMARK    9  A    between atoms: C_13  and  C_14
REMARK   10  A    between atoms: C_17  and  N_21
REMARK   11  A    between atoms: N_21  and  S_22
REMARK   12  A    between atoms: S_22  and  C_25
REMARK   13  A    between atoms: C_28  and  C_31
REMARK   14  A    between atoms: C_36  and  C_37
REMARK   15  A    between atoms: C_37  and  C_38
REMARK                            x       y       z     vdW  Elec       q    Type
REMARK                         _______ _______ _______ _____ _____    ______ ____
ROOT
ATOM      1  C   UNL     1       4.887  -4.627  28.058  0.00  0.00    +0.059 C 
ENDROOT
BRANCH   1   6
ATOM      2  C   UNL     1       6.705  -4.453  24.025  0.00  0.00    +0.121 C 
ATOM      3  O   UNL     1       7.425  -4.682  25.257  0.00  0.00    -0.454 OA
ATOM      4  C   UNL     1       6.881  -4.752  26.491  0.00  0.00    +0.339 C 
ATOM      5  O   UNL     1       7.605  -4.888  27.473  0.00  0.00    -0.245 OA
ATOM      6  C   UNL     1       5.406  -4.665  26.614  0.00  0.00    +0.081 C 
ATOM      7  C   UNL     1       4.655  -4.711  25.497  0.00  0.00    +0.108 C 
ATOM      8  C   UNL     1       5.227  -4.854  24.125  0.00  0.00    +0.122 C 
BRANCH   7   9
ATOM      9  O   UNL     1       3.280  -4.619  25.554  0.00  0.00    -0.510 OA
ATOM     10  H   UNL     1       3.006  -4.143  26.358  0.00  0.00    +0.292 HD
ENDBRANCH   7   9
BRANCH   2  11
ATOM     11  C   UNL     1       7.368  -5.399  22.981  0.00  0.00    +0.048 C 
BRANCH  11  13
ATOM     12  C   UNL     1       6.219  -5.682  20.759  0.00  0.00    +0.004 C 
ATOM     13  C   UNL     1       6.400  -6.256  22.157  0.00  0.00    +0.000 C 
ENDBRANCH  11  13
ENDBRANCH   2  11
BRANCH   2  14
ATOM     14  C   UNL     1       6.886  -2.976  23.595  0.00  0.00    +0.053 C 
BRANCH  14  15
ATOM     15  C   UNL     1       8.157  -2.658  22.795  0.00  0.00    +0.039 C 
BRANCH  15  16
ATOM     16  C   UNL     1       9.004  -1.654  23.540  0.00  0.00    -0.047 A 
ATOM     17  C   UNL     1       9.908  -0.837  22.848  0.00  0.00    +0.003 A 
ATOM     18  C   UNL     1      10.622   0.154  23.521  0.00  0.00    +0.000 A 
ATOM     19  C   UNL     1      10.442   0.337  24.891  0.00  0.00    +0.000 A 
ATOM     20  C   UNL     1       9.558  -0.481  25.592  0.00  0.00    +0.000 A 
ATOM     21  C   UNL     1       8.843  -1.475  24.921  0.00  0.00    +0.003 A 
ENDBRANCH  15  16
ENDBRANCH  14  15
ENDBRANCH   2  14
ENDBRANCH   1   6
BRANCH   1  22
ATOM     22  C   UNL     1       4.417  -3.235  28.473  0.00  0.00    -0.038 A 
ATOM     23  C   UNL     1       3.825  -3.052  29.738  0.00  0.00    +0.004 A 
ATOM     24  C   UNL     1       3.421  -1.785  30.167  0.00  0.00    +0.002 A 
ATOM     25  C   UNL     1       3.625  -0.675  29.349  0.00  0.00    +0.024 A 
ATOM     26  C   UNL     1       4.189  -0.843  28.087  0.00  0.00    +0.048 A 
ATOM     27  C   UNL     1       4.560  -2.112  27.641  0.00  0.00    +0.028 A 
BRANCH  26  28
ATOM     28  N   UNL     1       4.466   0.280  27.272  0.00  0.00    -0.215 N 
ATOM     29  H   UNL     1       3.987   0.404  26.382  0.00  0.00    +0.174 HD
BRANCH  28  30
ATOM     30  S   UNL     1       5.821   1.230  27.541  0.00  0.00    +0.090 S 
ATOM     31  O   UNL     1       6.793   0.430  28.265  0.00  0.00    -0.148 OA
ATOM     32  O   UNL     1       5.358   2.489  28.093  0.00  0.00    -0.148 OA
BRANCH  30  33
ATOM     33  C   UNL     1       6.490   1.553  25.905  0.00  0.00    +0.197 A 
ATOM     34  C   UNL     1       6.077   0.794  24.822  0.00  0.00    +0.050 A 
ATOM     35  C   UNL     1       6.584   1.131  23.570  0.00  0.00    +0.017 A 
ATOM     36  C   UNL     1       7.484   2.198  23.443  0.00  0.00    +0.073 A 
ATOM     37  C   UNL     1       7.855   2.875  24.599  0.00  0.00    +0.125 A 
ATOM     38  N   UNL     1       7.368   2.593  25.831  0.00  0.00    -0.235 NA
BRANCH  36  39
ATOM     39  C   UNL     1       8.005   2.616  22.100  0.00  0.00    +0.419 C 
ATOM     40  F   UNL     1       7.543   3.843  21.731  0.00  0.00    -0.166 F 
ATOM     41  F   UNL     1       7.634   1.764  21.105  0.00  0.00    -0.166 F 
ATOM     42  F   UNL     1       9.362   2.696  22.039  0.00  0.00    -0.166 F 
ENDBRANCH  36  39
ENDBRANCH  30  33
ENDBRANCH  28  30
ENDBRANCH  26  28
ENDBRANCH   1  22
BRANCH   1  43
ATOM     43  C   UNL     1       3.854  -5.727  28.405  0.00  0.00    +0.010 C 
ATOM     44  C   UNL     1       4.482  -7.061  28.791  0.00  0.00    +0.005 C 
ENDBRANCH   1  43
TORSDOF 13
ENDMDL
MODEL 9
REMARK VINA RESULT:      -7.1      3.271      6.620
REMARK  Name = 
REMARK  15 active torsions:
REMARK  status: ('A' for Active; 'I' for Inactive)
REMARK    1  A    between atoms: C_1  and  C_2
REMARK    2  A    between atoms: C_2  and  C_3
REMARK    3  A    between atoms: C_3  and  C_4
REMARK    4  A    between atoms: C_4  and  C_36
REMARK    5  A    between atoms: C_6  and  O_35
REMARK    6  A    between atoms: C_7  and  C_11
REMARK    7  A    between atoms: C_11  and  C_13
REMARK    8  A    between atoms: C_11  and  C_15
REMARK    9  A    between atoms: C_13  and  C_14
REMARK   10  A    between atoms: C_17  and  N_21
REMARK   11  A    between atoms: N_21  and  S_22
REMARK   12  A    between atoms: S_22  and  C_25
REMARK   13  A    between atoms: C_28  and  C_31
REMARK   14  A    between atoms: C_36  and  C_37
REMARK   15  A    between atoms: C_37  and  C_38
REMARK                            x       y       z     vdW  Elec       q    Type
REMARK                         _______ _______ _______ _____ _____    ______ ____
ROOT
ATOM      1  C   UNL     1       4.314  -4.373  28.021  0.00  0.00    +0.059 C 
ENDROOT
BRANCH   1   6
ATOM      2  C   UNL     1       4.772  -4.863  23.645  0.00  0.00    +0.121 C 
ATOM      3  O   UNL     1       5.790  -5.153  24.629  0.00  0.00    -0.454 OA
ATOM      4  C   UNL     1       5.658  -5.022  25.967  0.00  0.00    +0.339 C 
ATOM      5  O   UNL     1       6.616  -5.240  26.701  0.00  0.00    -0.245 OA
ATOM      6  C   UNL     1       4.337  -4.619  26.506  0.00  0.00    +0.081 C 
ATOM      7  C   UNL     1       3.277  -4.582  25.675  0.00  0.00    +0.108 C 
ATOM      8  C   UNL     1       3.354  -4.936  24.227  0.00  0.00    +0.122 C 
BRANCH   7   9
ATOM      9  O   UNL     1       2.030  -4.199  26.122  0.00  0.00    -0.510 OA
ATOM     10  H   UNL     1       2.105  -3.723  26.967  0.00  0.00    +0.292 HD
ENDBRANCH   7   9
BRANCH   2  11
ATOM     11  C   UNL     1       4.893  -5.997  22.585  0.00  0.00    +0.048 C 
BRANCH  11  13
ATOM     12  C   UNL     1       7.304  -6.125  21.873  0.00  0.00    +0.004 C 
ATOM     13  C   UNL     1       5.894  -5.738  21.452  0.00  0.00    +0.000 C 
ENDBRANCH  11  13
ENDBRANCH   2  11
BRANCH   2  14
ATOM     14  C   UNL     1       5.070  -3.490  22.992  0.00  0.00    +0.053 C 
BRANCH  14  15
ATOM     15  C   UNL     1       5.553  -2.384  23.940  0.00  0.00    +0.039 C 
BRANCH  15  16
ATOM     16  C   UNL     1       7.062  -2.307  23.925  0.00  0.00    -0.047 A 
ATOM     17  C   UNL     1       7.775  -2.160  25.121  0.00  0.00    +0.003 A 
ATOM     18  C   UNL     1       9.170  -2.183  25.119  0.00  0.00    +0.000 A 
ATOM     19  C   UNL     1       9.864  -2.350  23.922  0.00  0.00    +0.000 A 
ATOM     20  C   UNL     1       9.164  -2.481  22.724  0.00  0.00    +0.000 A 
ATOM     21  C   UNL     1       7.768  -2.458  22.723  0.00  0.00    +0.003 A 
ENDBRANCH  15  16
ENDBRANCH  14  15
ENDBRANCH   2  14
ENDBRANCH   1   6
BRANCH   1  22
ATOM     22  C   UNL     1       4.260  -2.887  28.371  0.00  0.00    -0.038 A 
ATOM     23  C   UNL     1       3.418  -2.451  29.412  0.00  0.00    +0.004 A 
ATOM     24  C   UNL     1       3.374  -1.106  29.786  0.00  0.00    +0.002 A 
ATOM     25  C   UNL     1       4.191  -0.177  29.143  0.00  0.00    +0.024 A 
ATOM     26  C   UNL     1       5.014  -0.589  28.097  0.00  0.00    +0.048 A 
ATOM     27  C   UNL     1       5.031  -1.926  27.697  0.00  0.00    +0.028 A 
BRANCH  26  28
ATOM     28  N   UNL     1       5.899   0.325  27.480  0.00  0.00    -0.215 N 
ATOM     29  H   UNL     1       6.812   0.516  27.887  0.00  0.00    +0.174 HD
BRANCH  28  30
ATOM     30  S   UNL     1       5.360   1.386  26.298  0.00  0.00    +0.090 S 
ATOM     31  O   UNL     1       5.307   2.715  26.879  0.00  0.00    -0.148 OA
ATOM     32  O   UNL     1       4.170   0.800  25.709  0.00  0.00    -0.148 OA
BRANCH  30  33
ATOM     33  C   UNL     1       6.655   1.386  25.053  0.00  0.00    +0.197 A 
ATOM     34  C   UNL     1       7.983   1.508  25.430  0.00  0.00    +0.050 A 
ATOM     35  C   UNL     1       8.945   1.440  24.427  0.00  0.00    +0.017 A 
ATOM     36  C   UNL     1       8.554   1.263  23.092  0.00  0.00    +0.073 A 
ATOM     37  C   UNL     1       7.193   1.181  22.820  0.00  0.00    +0.125 A 
ATOM     38  N   UNL     1       6.228   1.221  23.769  0.00  0.00    -0.235 NA
BRANCH  36  39
ATOM     39  C   UNL     1       9.572   1.134  21.998  0.00  0.00    +0.419 C 
ATOM     40  F   UNL     1      10.174   2.323  21.715  0.00  0.00    -0.166 F 
ATOM     41  F   UNL     1       9.030   0.703  20.826  0.00  0.00    -0.166 F 
ATOM     42  F   UNL     1      10.580   0.266  22.287  0.00  0.00    -0.166 F 
ENDBRANCH  36  39
ENDBRANCH  30  33
ENDBRANCH  28  30
ENDBRANCH  26  28
ENDBRANCH   1  22
BRANCH   1  43
ATOM     43  C   UNL     1       3.259  -5.201  28.796  0.00  0.00    +0.010 C 
ATOM     44  C   UNL     1       3.467  -6.707  28.697  0.00  0.00    +0.005 C 
ENDBRANCH   1  43
TORSDOF 13
ENDMDL
