MODEL 1
REMARK VINA RESULT:      -6.4      0.000      0.000
REMARK  Name = 
REMARK  5 active torsions:
REMARK  status: ('A' for Active; 'I' for Inactive)
REMARK    1  A    between atoms: C_1  and  C_2
REMARK    2  A    between atoms: N_4  and  C_10
REMARK    3  A    between atoms: C_14  and  O_21
REMARK    4  A    between atoms: C_16  and  C_19
REMARK    5  A    between atoms: C_19  and  O_20
REMARK                            x       y       z     vdW  Elec       q    Type
REMARK                         _______ _______ _______ _____ _____    ______ ____
ROOT
ATOM      1  C   UNL     1       9.003  -2.540  24.164  0.00  0.00    +0.260 C 
ATOM      2  O   UNL     1       8.559  -1.186  24.368  0.00  0.00    -0.345 OA
ATOM      3  C   UNL     1       8.519  -0.546  23.069  0.00  0.00    +0.178 C 
ATOM      4  C   UNL     1       8.762  -1.626  22.005  0.00  0.00    +0.184 C 
ATOM      5  C   UNL     1       8.550  -2.923  22.758  0.00  0.00    +0.246 C 
ATOM      6  F   UNL     1       7.222  -3.231  22.752  0.00  0.00    -0.238 F 
ENDROOT
BRANCH   1  15
ATOM      7  C   UNL     1       5.530  -3.797  27.507  0.00  0.00    +0.051 C 
ATOM      8  C   UNL     1       6.827  -4.006  26.800  0.00  0.00    +0.030 A 
ATOM      9  C   UNL     1       7.615  -5.212  27.146  0.00  0.00    +0.257 A 
ATOM     10  O   UNL     1       7.233  -6.019  27.985  0.00  0.00    -0.267 OA
ATOM     11  N   UNL     1       8.786  -5.374  26.464  0.00  0.00    -0.275 N 
ATOM     12  H   UNL     1       9.321  -6.203  26.670  0.00  0.00    +0.173 HD
ATOM     13  C   UNL     1       9.253  -4.565  25.465  0.00  0.00    +0.331 A 
ATOM     14  O   UNL     1      10.268  -4.869  24.839  0.00  0.00    -0.246 OA
ATOM     15  N   UNL     1       8.512  -3.421  25.218  0.00  0.00    -0.271 N 
ATOM     16  C   UNL     1       7.321  -3.178  25.871  0.00  0.00    +0.102 A 
ENDBRANCH   1  15
BRANCH   4  17
ATOM     17  O   UNL     1      10.121  -1.545  21.549  0.00  0.00    -0.386 OA
ATOM     18  H   UNL     1      10.698  -1.503  22.333  0.00  0.00    +0.210 HD
ENDBRANCH   4  17
BRANCH   3  19
ATOM     19  C   UNL     1       7.172   0.168  22.935  0.00  0.00    +0.190 C 
BRANCH  19  20
ATOM     20  O   UNL     1       6.148  -0.476  23.681  0.00  0.00    -0.392 OA
ATOM     21  H   UNL     1       6.586  -1.078  24.308  0.00  0.00    +0.210 HD
ENDBRANCH  19  20
ENDBRANCH   3  19
TORSDOF 4
ENDMDL
MODEL 2
REMARK VINA RESULT:      -5.9      2.921      3.276
REMARK  Name = 
REMARK  5 active torsions:
REMARK  status: ('A' for Active; 'I' for Inactive)
REMARK    1  A    between atoms: C_1  and  C_2
REMARK    2  A    between atoms: N_4  and  C_10
REMARK    3  A    between atoms: C_14  and  O_21
REMARK    4  A    between atoms: C_16  and  C_19
REMARK    5  A    between atoms: C_19  and  O_20
REMARK                            x       y       z     vdW  Elec       q    Type
REMARK                         _______ _______ _______ _____ _____    ______ ____
ROOT
ATOM      1  C   UNL     1       7.983  -3.982  22.842  0.00  0.00    +0.260 C 
ATOM      2  O   UNL     1       8.926  -3.697  23.893  0.00  0.00    -0.345 OA
ATOM      3  C   UNL     1       9.471  -2.379  23.635  0.00  0.00    +0.178 C 
ATOM      4  C   UNL     1       8.672  -1.758  22.480  0.00  0.00    +0.184 C 
ATOM      5  C   UNL     1       7.438  -2.631  22.388  0.00  0.00    +0.246 C 
ATOM      6  F   UNL     1       6.502  -2.175  23.268  0.00  0.00    -0.238 F 
ENDROOT
BRANCH   1  15
ATOM      7  C   UNL     1       5.158  -5.938  26.450  0.00  0.00    +0.051 C 
ATOM      8  C   UNL     1       5.616  -5.833  25.033  0.00  0.00    +0.030 A 
ATOM      9  C   UNL     1       4.944  -6.688  24.026  0.00  0.00    +0.257 A 
ATOM     10  O   UNL     1       4.045  -7.464  24.329  0.00  0.00    -0.267 OA
ATOM     11  N   UNL     1       5.381  -6.549  22.741  0.00  0.00    -0.275 N 
ATOM     12  H   UNL     1       4.917  -7.104  22.040  0.00  0.00    +0.173 HD
ATOM     13  C   UNL     1       6.325  -5.661  22.304  0.00  0.00    +0.331 A 
ATOM     14  O   UNL     1       6.562  -5.541  21.103  0.00  0.00    -0.246 OA
ATOM     15  N   UNL     1       6.964  -4.926  23.289  0.00  0.00    -0.271 N 
ATOM     16  C   UNL     1       6.588  -5.015  24.614  0.00  0.00    +0.102 A 
ENDBRANCH   1  15
BRANCH   4  17
ATOM     17  O   UNL     1       9.433  -1.862  21.268  0.00  0.00    -0.386 OA
ATOM     18  H   UNL     1       9.264  -1.060  20.738  0.00  0.00    +0.210 HD
ENDBRANCH   4  17
BRANCH   3  19
ATOM     19  C   UNL     1       9.408  -1.579  24.938  0.00  0.00    +0.190 C 
BRANCH  19  20
ATOM     20  O   UNL     1       8.563  -2.192  25.903  0.00  0.00    -0.392 OA
ATOM     21  H   UNL     1       7.730  -1.688  25.915  0.00  0.00    +0.210 HD
ENDBRANCH  19  20
ENDBRANCH   3  19
TORSDOF 4
ENDMDL
MODEL 3
REMARK VINA RESULT:      -5.8      2.460      3.387
REMARK  Name = 
REMARK  5 active torsions:
REMARK  status: ('A' for Active; 'I' for Inactive)
REMARK    1  A    between atoms: C_1  and  C_2
REMARK    2  A    between atoms: N_4  and  C_10
REMARK    3  A    between atoms: C_14  and  O_21
REMARK    4  A    between atoms: C_16  and  C_19
REMARK    5  A    between atoms: C_19  and  O_20
REMARK                            x       y       z     vdW  Elec       q    Type
REMARK                         _______ _______ _______ _____ _____    ______ ____
ROOT
ATOM      1  C   UNL     1       8.268  -1.503  24.309  0.00  0.00    +0.260 C 
ATOM      2  O   UNL     1       7.933  -0.520  23.312  0.00  0.00    -0.345 OA
ATOM      3  C   UNL     1       9.072   0.366  23.184  0.00  0.00    +0.178 C 
ATOM      4  C   UNL     1      10.226  -0.230  24.003  0.00  0.00    +0.184 C 
ATOM      5  C   UNL     1       9.785  -1.656  24.257  0.00  0.00    +0.246 C 
ATOM      6  F   UNL     1      10.150  -2.432  23.197  0.00  0.00    -0.238 F 
ENDROOT
BRANCH   1  15
ATOM      7  C   UNL     1       6.314  -4.928  21.263  0.00  0.00    +0.051 C 
ATOM      8  C   UNL     1       6.616  -4.373  22.615  0.00  0.00    +0.030 A 
ATOM      9  C   UNL     1       6.199  -5.166  23.795  0.00  0.00    +0.257 A 
ATOM     10  O   UNL     1       5.620  -6.241  23.684  0.00  0.00    -0.267 OA
ATOM     11  N   UNL     1       6.508  -4.631  25.011  0.00  0.00    -0.275 N 
ATOM     12  H   UNL     1       6.254  -5.171  25.824  0.00  0.00    +0.173 HD
ATOM     13  C   UNL     1       7.211  -3.478  25.227  0.00  0.00    +0.331 A 
ATOM     14  O   UNL     1       7.534  -3.147  26.368  0.00  0.00    -0.246 OA
ATOM     15  N   UNL     1       7.528  -2.743  24.097  0.00  0.00    -0.271 N 
ATOM     16  C   UNL     1       7.242  -3.210  22.830  0.00  0.00    +0.102 A 
ENDBRANCH   1  15
BRANCH   4  17
ATOM     17  O   UNL     1      10.336   0.475  25.249  0.00  0.00    -0.386 OA
ATOM     18  H   UNL     1      11.133   1.036  25.207  0.00  0.00    +0.210 HD
ENDBRANCH   4  17
BRANCH   3  19
ATOM     19  C   UNL     1       9.383   0.525  21.694  0.00  0.00    +0.190 C 
BRANCH  19  20
ATOM     20  O   UNL     1       9.717   1.865  21.356  0.00  0.00    -0.392 OA
ATOM     21  H   UNL     1       9.264   2.443  21.996  0.00  0.00    +0.210 HD
ENDBRANCH  19  20
ENDBRANCH   3  19
TORSDOF 4
ENDMDL
MODEL 4
REMARK VINA RESULT:      -5.8      2.336      5.258
REMARK  Name = 
REMARK  5 active torsions:
REMARK  status: ('A' for Active; 'I' for Inactive)
REMARK    1  A    between atoms: C_1  and  C_2
REMARK    2  A    between atoms: N_4  and  C_10
REMARK    3  A    between atoms: C_14  and  O_21
REMARK    4  A    between atoms: C_16  and  C_19
REMARK    5  A    between atoms: C_19  and  O_20
REMARK                            x       y       z     vdW  Elec       q    Type
REMARK                         _______ _______ _______ _____ _____    ______ ____
ROOT
ATOM      1  C   UNL     1       8.970  -3.100  25.186  0.00  0.00    +0.260 C 
ATOM      2  O   UNL     1       9.158  -3.951  24.039  0.00  0.00    -0.345 OA
ATOM      3  C   UNL     1       8.361  -5.142  24.254  0.00  0.00    +0.178 C 
ATOM      4  C   UNL     1       7.495  -4.910  25.500  0.00  0.00    +0.184 C 
ATOM      5  C   UNL     1       7.575  -3.414  25.719  0.00  0.00    +0.246 C 
ATOM      6  F   UNL     1       6.625  -2.801  24.957  0.00  0.00    -0.238 F 
ENDROOT
BRANCH   1  15
ATOM      7  C   UNL     1       9.582   0.498  21.794  0.00  0.00    +0.051 C 
ATOM      8  C   UNL     1       9.461   0.005  23.198  0.00  0.00    +0.030 A 
ATOM      9  C   UNL     1       9.492   1.008  24.287  0.00  0.00    +0.257 A 
ATOM     10  O   UNL     1       9.618   2.207  24.062  0.00  0.00    -0.267 OA
ATOM     11  N   UNL     1       9.362   0.517  25.553  0.00  0.00    -0.275 N 
ATOM     12  H   UNL     1       9.356   1.190  26.304  0.00  0.00    +0.173 HD
ATOM     13  C   UNL     1       9.148  -0.791  25.890  0.00  0.00    +0.331 A 
ATOM     14  O   UNL     1       8.931  -1.108  27.059  0.00  0.00    -0.246 OA
ATOM     15  N   UNL     1       9.184  -1.698  24.844  0.00  0.00    -0.271 N 
ATOM     16  C   UNL     1       9.322  -1.283  23.534  0.00  0.00    +0.102 A 
ENDBRANCH   1  15
BRANCH   4  17
ATOM     17  O   UNL     1       8.080  -5.597  26.617  0.00  0.00    -0.386 OA
ATOM     18  H   UNL     1       7.535  -6.384  26.804  0.00  0.00    +0.210 HD
ENDBRANCH   4  17
BRANCH   3  19
ATOM     19  C   UNL     1       7.558  -5.409  22.978  0.00  0.00    +0.190 C 
BRANCH  19  20
ATOM     20  O   UNL     1       7.377  -4.230  22.203  0.00  0.00    -0.392 OA
ATOM     21  H   UNL     1       6.658  -4.411  21.573  0.00  0.00    +0.210 HD
ENDBRANCH  19  20
ENDBRANCH   3  19
TORSDOF 4
ENDMDL
MODEL 5
REMARK VINA RESULT:      -5.7      2.278      3.131
REMARK  Name = 
REMARK  5 active torsions:
REMARK  status: ('A' for Active; 'I' for Inactive)
REMARK    1  A    between atoms: C_1  and  C_2
REMARK    2  A    between atoms: N_4  and  C_10
REMARK    3  A    between atoms: C_14  and  O_21
REMARK    4  A    between atoms: C_16  and  C_19
REMARK    5  A    between atoms: C_19  and  O_20
REMARK                            x       y       z     vdW  Elec       q    Type
REMARK                         _______ _______ _______ _____ _____    ______ ____
ROOT
ATOM      1  C   UNL     1       8.839  -1.390  22.705  0.00  0.00    +0.260 C 
ATOM      2  O   UNL     1      10.132  -1.003  23.205  0.00  0.00    -0.345 OA
ATOM      3  C   UNL     1      10.281   0.417  22.958  0.00  0.00    +0.178 C 
ATOM      4  C   UNL     1       8.929   0.952  22.463  0.00  0.00    +0.184 C 
ATOM      5  C   UNL     1       7.955  -0.151  22.820  0.00  0.00    +0.246 C 
ATOM      6  F   UNL     1       7.539   0.020  24.107  0.00  0.00    -0.238 F 
ENDROOT
BRANCH   1  15
ATOM      7  C   UNL     1       8.883  -4.457  26.631  0.00  0.00    +0.051 C 
ATOM      8  C   UNL     1       8.365  -4.005  25.306  0.00  0.00    +0.030 A 
ATOM      9  C   UNL     1       7.228  -4.753  24.719  0.00  0.00    +0.257 A 
ATOM     10  O   UNL     1       6.722  -5.715  25.285  0.00  0.00    -0.267 OA
ATOM     11  N   UNL     1       6.774  -4.297  23.516  0.00  0.00    -0.275 N 
ATOM     12  H   UNL     1       5.985  -4.779  23.116  0.00  0.00    +0.173 HD
ATOM     13  C   UNL     1       7.231  -3.193  22.850  0.00  0.00    +0.331 A 
ATOM     14  O   UNL     1       6.671  -2.805  21.825  0.00  0.00    -0.246 OA
ATOM     15  N   UNL     1       8.330  -2.562  23.409  0.00  0.00    -0.271 N 
ATOM     16  C   UNL     1       8.856  -2.967  24.619  0.00  0.00    +0.102 A 
ENDBRANCH   1  15
BRANCH   4  17
ATOM     17  O   UNL     1       8.978   1.115  21.037  0.00  0.00    -0.386 OA
ATOM     18  H   UNL     1       8.903   2.068  20.842  0.00  0.00    +0.210 HD
ENDBRANCH   4  17
BRANCH   3  19
ATOM     19  C   UNL     1      10.774   1.073  24.250  0.00  0.00    +0.190 C 
BRANCH  19  20
ATOM     20  O   UNL     1      10.386   0.339  25.405  0.00  0.00    -0.392 OA
ATOM     21  H   UNL     1      10.078  -0.533  25.100  0.00  0.00    +0.210 HD
ENDBRANCH  19  20
ENDBRANCH   3  19
TORSDOF 4
ENDMDL
MODEL 6
REMARK VINA RESULT:      -5.6      2.323      5.355
REMARK  Name = 
REMARK  5 active torsions:
REMARK  status: ('A' for Active; 'I' for Inactive)
REMARK    1  A    between atoms: C_1  and  C_2
REMARK    2  A    between atoms: N_4  and  C_10
REMARK    3  A    between atoms: C_14  and  O_21
REMARK    4  A    between atoms: C_16  and  C_19
REMARK    5  A    between atoms: C_19  and  O_20
REMARK                            x       y       z     vdW  Elec       q    Type
REMARK                         _______ _______ _______ _____ _____    ______ ____
ROOT
ATOM      1  C   UNL     1       8.715  -3.077  23.347  0.00  0.00    +0.260 C 
ATOM      2  O   UNL     1       7.400  -3.664  23.339  0.00  0.00    -0.345 OA
ATOM      3  C   UNL     1       7.408  -4.747  24.301  0.00  0.00    +0.178 C 
ATOM      4  C   UNL     1       8.735  -4.684  25.070  0.00  0.00    +0.184 C 
ATOM      5  C   UNL     1       9.268  -3.303  24.751  0.00  0.00    +0.246 C 
ATOM      6  F   UNL     1       8.731  -2.405  25.626  0.00  0.00    -0.238 F 
ENDROOT
BRANCH   1  15
ATOM      7  C   UNL     1       6.400   1.331  23.173  0.00  0.00    +0.051 C 
ATOM      8  C   UNL     1       7.546   0.422  22.878  0.00  0.00    +0.030 A 
ATOM      9  C   UNL     1       8.724   1.000  22.189  0.00  0.00    +0.257 A 
ATOM     10  O   UNL     1       8.771   2.180  21.861  0.00  0.00    -0.267 OA
ATOM     11  N   UNL     1       9.756   0.139  21.952  0.00  0.00    -0.275 N 
ATOM     12  H   UNL     1      10.575   0.522  21.507  0.00  0.00    +0.173 HD
ATOM     13  C   UNL     1       9.818  -1.169  22.345  0.00  0.00    +0.331 A 
ATOM     14  O   UNL     1      10.847  -1.824  22.179  0.00  0.00    -0.246 OA
ATOM     15  N   UNL     1       8.672  -1.678  22.933  0.00  0.00    -0.271 N 
ATOM     16  C   UNL     1       7.581  -0.876  23.198  0.00  0.00    +0.102 A 
ENDBRANCH   1  15
BRANCH   4  17
ATOM     17  O   UNL     1       9.630  -5.682  24.554  0.00  0.00    -0.386 OA
ATOM     18  H   UNL     1       9.233  -6.556  24.722  0.00  0.00    +0.210 HD
ENDBRANCH   4  17
BRANCH   3  19
ATOM     19  C   UNL     1       6.168  -4.602  25.186  0.00  0.00    +0.190 C 
BRANCH  19  20
ATOM     20  O   UNL     1       6.057  -5.660  26.130  0.00  0.00    -0.392 OA
ATOM     21  H   UNL     1       6.844  -6.223  26.023  0.00  0.00    +0.210 HD
ENDBRANCH  19  20
ENDBRANCH   3  19
TORSDOF 4
ENDMDL
MODEL 7
REMARK VINA RESULT:      -5.6      3.091      5.824
REMARK  Name = 
REMARK  5 active torsions:
REMARK  status: ('A' for Active; 'I' for Inactive)
REMARK    1  A    between atoms: C_1  and  C_2
REMARK    2  A    between atoms: N_4  and  C_10
REMARK    3  A    between atoms: C_14  and  O_21
REMARK    4  A    between atoms: C_16  and  C_19
REMARK    5  A    between atoms: C_19  and  O_20
REMARK                            x       y       z     vdW  Elec       q    Type
REMARK                         _______ _______ _______ _____ _____    ______ ____
ROOT
ATOM      1  C   UNL     1       9.379  -0.976  23.377  0.00  0.00    +0.260 C 
ATOM      2  O   UNL     1       8.582  -1.583  22.342  0.00  0.00    -0.345 OA
ATOM      3  C   UNL     1       8.230  -2.913  22.797  0.00  0.00    +0.178 C 
ATOM      4  C   UNL     1       8.671  -3.042  24.262  0.00  0.00    +0.184 C 
ATOM      5  C   UNL     1       8.921  -1.610  24.687  0.00  0.00    +0.246 C 
ATOM      6  F   UNL     1       7.746  -1.055  25.100  0.00  0.00    -0.238 F 
ENDROOT
BRANCH   1  15
ATOM      7  C   UNL     1       6.898   3.167  22.153  0.00  0.00    +0.051 C 
ATOM      8  C   UNL     1       8.056   2.444  22.755  0.00  0.00    +0.030 A 
ATOM      9  C   UNL     1       9.112   3.253  23.406  0.00  0.00    +0.257 A 
ATOM     10  O   UNL     1       9.056   4.477  23.455  0.00  0.00    -0.267 OA
ATOM     11  N   UNL     1      10.144   2.552  23.958  0.00  0.00    -0.275 N 
ATOM     12  H   UNL     1      10.858   3.087  24.428  0.00  0.00    +0.173 HD
ATOM     13  C   UNL     1      10.252   1.190  24.013  0.00  0.00    +0.331 A 
ATOM     14  O   UNL     1      11.172   0.660  24.636  0.00  0.00    -0.246 OA
ATOM     15  N   UNL     1       9.272   0.479  23.340  0.00  0.00    -0.271 N 
ATOM     16  C   UNL     1       8.200   1.113  22.748  0.00  0.00    +0.102 A 
ENDBRANCH   1  15
BRANCH   4  17
ATOM     17  O   UNL     1       9.895  -3.789  24.325  0.00  0.00    -0.386 OA
ATOM     18  H   UNL     1      10.606  -3.230  23.961  0.00  0.00    +0.210 HD
ENDBRANCH   4  17
BRANCH   3  19
ATOM     19  C   UNL     1       6.727  -3.104  22.579  0.00  0.00    +0.190 C 
BRANCH  19  20
ATOM     20  O   UNL     1       6.023  -1.869  22.594  0.00  0.00    -0.392 OA
ATOM     21  H   UNL     1       6.665  -1.171  22.375  0.00  0.00    +0.210 HD
ENDBRANCH  19  20
ENDBRANCH   3  19
TORSDOF 4
ENDMDL
MODEL 8
REMARK VINA RESULT:      -5.6      2.155      5.683
REMARK  Name = 
REMARK  5 active torsions:
REMARK  status: ('A' for Active; 'I' for Inactive)
REMARK    1  A    between atoms: C_1  and  C_2
REMARK    2  A    between atoms: N_4  and  C_10
REMARK    3  A    between atoms: C_14  and  O_21
REMARK    4  A    between atoms: C_16  and  C_19
REMARK    5  A    between atoms: C_19  and  O_20
REMARK                            x       y       z     vdW  Elec       q    Type
REMARK                         _______ _______ _______ _____ _____    ______ ____
ROOT
ATOM      1  C   UNL     1       7.313  -2.725  25.259  0.00  0.00    +0.260 C 
ATOM      2  O   UNL     1       8.616  -3.009  25.802  0.00  0.00    -0.345 OA
ATOM      3  C   UNL     1       8.654  -4.426  26.105  0.00  0.00    +0.178 C 
ATOM      4  C   UNL     1       7.381  -5.064  25.531  0.00  0.00    +0.184 C 
ATOM      5  C   UNL     1       6.850  -4.011  24.581  0.00  0.00    +0.246 C 
ATOM      6  F   UNL     1       7.456  -4.157  23.369  0.00  0.00    -0.238 F 
ENDROOT
BRANCH   1  15
ATOM      7  C   UNL     1       9.607   0.041  21.808  0.00  0.00    +0.051 C 
ATOM      8  C   UNL     1       8.466  -0.263  22.720  0.00  0.00    +0.030 A 
ATOM      9  C   UNL     1       7.287   0.632  22.672  0.00  0.00    +0.257 A 
ATOM     10  O   UNL     1       7.234   1.598  21.919  0.00  0.00    -0.267 OA
ATOM     11  N   UNL     1       6.259   0.308  23.510  0.00  0.00    -0.275 N 
ATOM     12  H   UNL     1       5.439   0.893  23.470  0.00  0.00    +0.173 HD
ATOM     13  C   UNL     1       6.203  -0.786  24.328  0.00  0.00    +0.331 A 
ATOM     14  O   UNL     1       5.178  -1.044  24.958  0.00  0.00    -0.246 OA
ATOM     15  N   UNL     1       7.350  -1.560  24.381  0.00  0.00    -0.271 N 
ATOM     16  C   UNL     1       8.437  -1.294  23.573  0.00  0.00    +0.102 A 
ENDBRANCH   1  15
BRANCH   4  17
ATOM     17  O   UNL     1       6.440  -5.281  26.594  0.00  0.00    -0.386 OA
ATOM     18  H   UNL     1       6.781  -4.835  27.391  0.00  0.00    +0.210 HD
ENDBRANCH   4  17
BRANCH   3  19
ATOM     19  C   UNL     1       9.952  -4.997  25.527  0.00  0.00    +0.190 C 
BRANCH  19  20
ATOM     20  O   UNL     1       9.707  -6.005  24.554  0.00  0.00    -0.392 OA
ATOM     21  H   UNL     1       9.625  -5.558  23.694  0.00  0.00    +0.210 HD
ENDBRANCH  19  20
ENDBRANCH   3  19
TORSDOF 4
ENDMDL
MODEL 9
REMARK VINA RESULT:      -5.5      4.548      7.524
REMARK  Name = 
REMARK  5 active torsions:
REMARK  status: ('A' for Active; 'I' for Inactive)
REMARK    1  A    between atoms: C_1  and  C_2
REMARK    2  A    between atoms: N_4  and  C_10
REMARK    3  A    between atoms: C_14  and  O_21
REMARK    4  A    between atoms: C_16  and  C_19
REMARK    5  A    between atoms: C_19  and  O_20
REMARK                            x       y       z     vdW  Elec       q    Type
REMARK                         _______ _______ _______ _____ _____    ______ ____
ROOT
ATOM      1  C   UNL     1       8.409   1.455  23.736  0.00  0.00    +0.260 C 
ATOM      2  O   UNL     1       9.362   0.446  24.121  0.00  0.00    -0.345 OA
ATOM      3  C   UNL     1       8.996  -0.775  23.430  0.00  0.00    +0.178 C 
ATOM      4  C   UNL     1       7.885  -0.433  22.428  0.00  0.00    +0.184 C 
ATOM      5  C   UNL     1       7.939   1.077  22.335  0.00  0.00    +0.246 C 
ATOM      6  F   UNL     1       8.872   1.434  21.407  0.00  0.00    -0.238 F 
ENDROOT
BRANCH   1  15
ATOM      7  C   UNL     1      12.262   4.574  23.247  0.00  0.00    +0.051 C 
ATOM      8  C   UNL     1      10.842   4.263  23.584  0.00  0.00    +0.030 A 
ATOM      9  C   UNL     1       9.964   5.389  23.977  0.00  0.00    +0.257 A 
ATOM     10  O   UNL     1      10.373   6.543  24.035  0.00  0.00    -0.267 OA
ATOM     11  N   UNL     1       8.670   5.064  24.262  0.00  0.00    -0.275 N 
ATOM     12  H   UNL     1       8.053   5.822  24.506  0.00  0.00    +0.173 HD
ATOM     13  C   UNL     1       8.112   3.820  24.156  0.00  0.00    +0.331 A 
ATOM     14  O   UNL     1       6.904   3.660  24.328  0.00  0.00    -0.246 OA
ATOM     15  N   UNL     1       8.984   2.791  23.841  0.00  0.00    -0.271 N 
ATOM     16  C   UNL     1      10.311   3.035  23.549  0.00  0.00    +0.102 A 
ENDBRANCH   1  15
BRANCH   4  17
ATOM     17  O   UNL     1       6.619  -0.843  22.966  0.00  0.00    -0.386 OA
ATOM     18  H   UNL     1       5.982  -0.119  22.818  0.00  0.00    +0.210 HD
ENDBRANCH   4  17
BRANCH   3  19
ATOM     19  C   UNL     1      10.260  -1.351  22.787  0.00  0.00    +0.190 C 
BRANCH  19  20
ATOM     20  O   UNL     1      10.102  -1.560  21.390  0.00  0.00    -0.392 OA
ATOM     21  H   UNL     1       9.991  -0.684  20.980  0.00  0.00    +0.210 HD
ENDBRANCH  19  20
ENDBRANCH   3  19
TORSDOF 4
ENDMDL
