MODEL 1
REMARK VINA RESULT:      -7.6      0.000      0.000
REMARK  Name = 
REMARK  17 active torsions:
REMARK  status: ('A' for Active; 'I' for Inactive)
REMARK    1  A    between atoms: C_1  and  C_2
REMARK    2  A    between atoms: C_2  and  C_3
REMARK    3  A    between atoms: C_2  and  C_4
REMARK    4  A    between atoms: C_2  and  N_5
REMARK    5  A    between atoms: C_6  and  C_8
REMARK    6  A    between atoms: N_11  and  C_43
REMARK    7  A    between atoms: N_14  and  C_15
REMARK    8  A    between atoms: C_15  and  C_16
REMARK    9  A    between atoms: C_16  and  C_18
REMARK   10  A    between atoms: C_16  and  O_42
REMARK   11  A    between atoms: C_18  and  C_19
REMARK   12  A    between atoms: C_19  and  C_21
REMARK   13  A    between atoms: C_19  and  C_28
REMARK   14  A    between atoms: C_21  and  C_22
REMARK   15  A    between atoms: N_30  and  C_31
REMARK   16  A    between atoms: C_32  and  O_41
REMARK   17  A    between atoms: C_43  and  C_44
REMARK                            x       y       z     vdW  Elec       q    Type
REMARK                         _______ _______ _______ _____ _____    ______ ____
ROOT
ATOM      1  C   UNL     1       9.145  -0.869  23.580  0.00  0.00    +0.129 C 
ENDROOT
BRANCH   1   2
ATOM      2  O   UNL     1      10.166  -1.310  24.487  0.00  0.00    -0.391 OA
ATOM      3  H   UNL     1      11.015  -1.261  24.011  0.00  0.00    +0.210 HD
ENDBRANCH   1   2
BRANCH   1   4
ATOM      4  C   UNL     1       7.978  -1.914  23.594  0.00  0.00    +0.116 C 
BRANCH   4   6
ATOM      5  C   UNL     1       5.719  -1.996  24.606  0.00  0.00    +0.157 C 
ATOM      6  N   UNL     1       6.528  -1.624  23.366  0.00  0.00    -0.287 NA
ATOM      7  C   UNL     1       5.882  -2.408  22.283  0.00  0.00    +0.100 C 
ATOM      8  C   UNL     1       5.707  -3.933  22.539  0.00  0.00    +0.100 C 
ATOM      9  N   UNL     1       5.032  -4.292  23.817  0.00  0.00    -0.295 NA
ATOM     10  C   UNL     1       5.630  -3.520  24.931  0.00  0.00    +0.113 C 
BRANCH   5  13
ATOM     11  N   UNL     1       5.405  -0.043  25.994  0.00  0.00    -0.309 N 
ATOM     12  H   UNL     1       4.763   0.165  25.235  0.00  0.00    +0.149 HD
ATOM     13  C   UNL     1       6.172  -1.182  25.822  0.00  0.00    +0.232 C 
ATOM     14  O   UNL     1       7.082  -1.530  26.565  0.00  0.00    -0.274 OA
BRANCH  11  16
ATOM     15  C   UNL     1       4.466   1.989  27.034  0.00  0.00    +0.031 C 
ATOM     16  C   UNL     1       5.532   0.888  27.117  0.00  0.00    +0.026 C 
ATOM     17  C   UNL     1       5.326   0.112  28.429  0.00  0.00    +0.031 C 
ATOM     18  C   UNL     1       6.947   1.491  27.128  0.00  0.00    +0.031 C 
ENDBRANCH  11  16
ENDBRANCH   5  13
BRANCH   9  19
ATOM     19  C   UNL     1       5.132  -5.755  24.019  0.00  0.00    +0.121 C 
BRANCH  19  20
ATOM     20  C   UNL     1       3.850  -6.556  23.983  0.00  0.00    -0.015 A 
ATOM     21  C   UNL     1       2.849  -6.343  23.031  0.00  0.00    +0.008 A 
ATOM     22  C   UNL     1       1.752  -7.205  22.969  0.00  0.00    +0.020 A 
ATOM     23  C   UNL     1       1.687  -8.257  23.867  0.00  0.00    +0.111 A 
ATOM     24  N   UNL     1       2.624  -8.494  24.806  0.00  0.00    -0.263 NA
ATOM     25  C   UNL     1       3.677  -7.642  24.841  0.00  0.00    +0.115 A 
ENDBRANCH  19  20
ENDBRANCH   9  19
ENDBRANCH   4   6
ENDBRANCH   1   4
BRANCH   1  26
ATOM     26  C   UNL     1       9.821  -0.425  22.268  0.00  0.00    +0.045 C 
BRANCH  26  27
ATOM     27  C   UNL     1       9.887   1.076  21.894  0.00  0.00    +0.082 C 
BRANCH  27  28
ATOM     28  C   UNL     1      10.480   1.898  23.051  0.00  0.00    +0.217 C 
ATOM     29  N   UNL     1      10.833   3.194  22.728  0.00  0.00    -0.306 N 
ATOM     30  H   UNL     1      10.461   3.613  21.886  0.00  0.00    +0.149 HD
ATOM     31  O   UNL     1      10.623   1.462  24.188  0.00  0.00    -0.275 OA
BRANCH  29  32
ATOM     32  C   UNL     1      11.386   4.068  23.741  0.00  0.00    +0.128 C 
ATOM     33  C   UNL     1      10.321   4.904  24.372  0.00  0.00    -0.044 C 
ATOM     34  C   UNL     1       8.959   4.415  24.748  0.00  0.00    +0.037 C 
ATOM     35  C   UNL     1       8.084   5.475  25.456  0.00  0.00    +0.031 C 
ATOM     36  C   UNL     1       8.735   6.810  25.726  0.00  0.00    -0.026 C 
ATOM     37  C   UNL     1       9.983   7.108  25.330  0.00  0.00    -0.001 C 
ATOM     38  C   UNL     1      10.769   6.140  24.634  0.00  0.00    -0.044 C 
ATOM     39  C   UNL     1      12.166   6.349  24.147  0.00  0.00    +0.068 C 
ATOM     40  C   UNL     1      12.345   5.155  23.191  0.00  0.00    +0.143 C 
BRANCH  40  41
ATOM     41  O   UNL     1      13.705   4.729  23.146  0.00  0.00    -0.389 OA
ATOM     42  H   UNL     1      13.940   4.565  22.216  0.00  0.00    +0.210 HD
ENDBRANCH  40  41
ENDBRANCH  29  32
ENDBRANCH  27  28
BRANCH  27  43
ATOM     43  C   UNL     1       8.609   1.761  21.312  0.00  0.00    +0.048 C 
BRANCH  43  44
ATOM     44  C   UNL     1       7.473   2.406  22.102  0.00  0.00    -0.047 A 
ATOM     45  C   UNL     1       7.201   3.773  21.853  0.00  0.00    +0.003 A 
ATOM     46  C   UNL     1       6.199   4.470  22.537  0.00  0.00    +0.000 A 
ATOM     47  C   UNL     1       5.427   3.812  23.490  0.00  0.00    +0.000 A 
ATOM     48  C   UNL     1       5.678   2.464  23.747  0.00  0.00    +0.000 A 
ATOM     49  C   UNL     1       6.682   1.762  23.055  0.00  0.00    +0.003 A 
ENDBRANCH  43  44
ENDBRANCH  27  43
ENDBRANCH  26  27
ENDBRANCH   1  26
TORSDOF 14
ENDMDL
MODEL 2
REMARK VINA RESULT:      -7.5      2.689      9.085
REMARK  Name = 
REMARK  17 active torsions:
REMARK  status: ('A' for Active; 'I' for Inactive)
REMARK    1  A    between atoms: C_1  and  C_2
REMARK    2  A    between atoms: C_2  and  C_3
REMARK    3  A    between atoms: C_2  and  C_4
REMARK    4  A    between atoms: C_2  and  N_5
REMARK    5  A    between atoms: C_6  and  C_8
REMARK    6  A    between atoms: N_11  and  C_43
REMARK    7  A    between atoms: N_14  and  C_15
REMARK    8  A    between atoms: C_15  and  C_16
REMARK    9  A    between atoms: C_16  and  C_18
REMARK   10  A    between atoms: C_16  and  O_42
REMARK   11  A    between atoms: C_18  and  C_19
REMARK   12  A    between atoms: C_19  and  C_21
REMARK   13  A    between atoms: C_19  and  C_28
REMARK   14  A    between atoms: C_21  and  C_22
REMARK   15  A    between atoms: N_30  and  C_31
REMARK   16  A    between atoms: C_32  and  O_41
REMARK   17  A    between atoms: C_43  and  C_44
REMARK                            x       y       z     vdW  Elec       q    Type
REMARK                         _______ _______ _______ _____ _____    ______ ____
ROOT
ATOM      1  C   UNL     1       7.910  -0.140  27.526  0.00  0.00    +0.129 C 
ENDROOT
BRANCH   1   2
ATOM      2  O   UNL     1       8.477   0.377  28.738  0.00  0.00    -0.391 OA
ATOM      3  H   UNL     1       7.972  -0.006  29.478  0.00  0.00    +0.210 HD
ENDBRANCH   1   2
BRANCH   1   4
ATOM      4  C   UNL     1       6.391  -0.437  27.770  0.00  0.00    +0.116 C 
BRANCH   4   6
ATOM      5  C   UNL     1       4.703   0.176  26.064  0.00  0.00    +0.157 C 
ATOM      6  N   UNL     1       5.249   0.479  27.457  0.00  0.00    -0.287 NA
ATOM      7  C   UNL     1       5.588   1.922  27.390  0.00  0.00    +0.100 C 
ATOM      8  C   UNL     1       6.488   2.371  26.203  0.00  0.00    +0.100 C 
ATOM      9  N   UNL     1       6.015   1.957  24.852  0.00  0.00    -0.295 NA
ATOM     10  C   UNL     1       5.647   0.522  24.871  0.00  0.00    +0.113 C 
BRANCH   5  13
ATOM     11  N   UNL     1       3.128  -1.483  26.845  0.00  0.00    -0.309 N 
ATOM     12  H   UNL     1       2.941  -0.729  27.499  0.00  0.00    +0.149 HD
ATOM     13  C   UNL     1       4.185  -1.263  25.978  0.00  0.00    +0.232 C 
ATOM     14  O   UNL     1       4.637  -2.097  25.203  0.00  0.00    -0.274 OA
BRANCH  11  16
ATOM     15  C   UNL     1       2.162  -3.337  25.534  0.00  0.00    +0.031 C 
ATOM     16  C   UNL     1       2.362  -2.727  26.928  0.00  0.00    +0.026 C 
ATOM     17  C   UNL     1       3.144  -3.734  27.789  0.00  0.00    +0.031 C 
ATOM     18  C   UNL     1       1.010  -2.456  27.610  0.00  0.00    +0.031 C 
ENDBRANCH  11  16
ENDBRANCH   5  13
BRANCH   9  19
ATOM     19  C   UNL     1       7.070   2.262  23.859  0.00  0.00    +0.121 C 
BRANCH  19  20
ATOM     20  C   UNL     1       7.357   3.718  23.568  0.00  0.00    -0.015 A 
ATOM     21  C   UNL     1       8.436   4.406  24.130  0.00  0.00    +0.008 A 
ATOM     22  C   UNL     1       8.722   5.709  23.715  0.00  0.00    +0.020 A 
ATOM     23  C   UNL     1       7.917   6.288  22.749  0.00  0.00    +0.111 A 
ATOM     24  N   UNL     1       6.861   5.664  22.187  0.00  0.00    -0.263 NA
ATOM     25  C   UNL     1       6.609   4.401  22.609  0.00  0.00    +0.115 A 
ENDBRANCH  19  20
ENDBRANCH   9  19
ENDBRANCH   4   6
ENDBRANCH   1   4
BRANCH   1  26
ATOM     26  C   UNL     1       8.865  -1.210  26.961  0.00  0.00    +0.045 C 
BRANCH  26  27
ATOM     27  C   UNL     1       8.494  -1.986  25.674  0.00  0.00    +0.082 C 
BRANCH  27  28
ATOM     28  C   UNL     1       8.241  -3.470  25.988  0.00  0.00    +0.217 C 
ATOM     29  N   UNL     1       7.001  -3.945  25.609  0.00  0.00    -0.306 N 
ATOM     30  H   UNL     1       6.452  -3.420  24.941  0.00  0.00    +0.149 HD
ATOM     31  O   UNL     1       9.070  -4.200  26.519  0.00  0.00    -0.275 OA
BRANCH  29  32
ATOM     32  C   UNL     1       6.656  -5.332  25.839  0.00  0.00    +0.128 C 
ATOM     33  C   UNL     1       5.420  -5.712  25.091  0.00  0.00    -0.044 C 
ATOM     34  C   UNL     1       5.101  -5.288  23.693  0.00  0.00    +0.037 C 
ATOM     35  C   UNL     1       3.789  -5.890  23.137  0.00  0.00    +0.031 C 
ATOM     36  C   UNL     1       3.061  -6.857  24.039  0.00  0.00    -0.026 C 
ATOM     37  C   UNL     1       3.474  -7.149  25.283  0.00  0.00    -0.001 C 
ATOM     38  C   UNL     1       4.661  -6.552  25.807  0.00  0.00    -0.044 C 
ATOM     39  C   UNL     1       5.223  -6.799  27.170  0.00  0.00    +0.068 C 
ATOM     40  C   UNL     1       6.242  -5.653  27.300  0.00  0.00    +0.143 C 
BRANCH  40  41
ATOM     41  O   UNL     1       7.345  -6.031  28.121  0.00  0.00    -0.389 OA
ATOM     42  H   UNL     1       8.130  -6.115  27.553  0.00  0.00    +0.210 HD
ENDBRANCH  40  41
ENDBRANCH  29  32
ENDBRANCH  27  28
BRANCH  27  43
ATOM     43  C   UNL     1       9.403  -1.822  24.413  0.00  0.00    +0.048 C 
BRANCH  43  44
ATOM     44  C   UNL     1       9.707  -0.527  23.664  0.00  0.00    -0.047 A 
ATOM     45  C   UNL     1       9.214  -0.408  22.342  0.00  0.00    +0.003 A 
ATOM     46  C   UNL     1       9.455   0.725  21.557  0.00  0.00    +0.000 A 
ATOM     47  C   UNL     1      10.192   1.784  22.078  0.00  0.00    +0.000 A 
ATOM     48  C   UNL     1      10.683   1.687  23.380  0.00  0.00    +0.000 A 
ATOM     49  C   UNL     1      10.437   0.550  24.171  0.00  0.00    +0.003 A 
ENDBRANCH  43  44
ENDBRANCH  27  43
ENDBRANCH  26  27
ENDBRANCH   1  26
TORSDOF 14
ENDMDL
MODEL 3
REMARK VINA RESULT:      -7.1      2.846      6.608
REMARK  Name = 
REMARK  17 active torsions:
REMARK  status: ('A' for Active; 'I' for Inactive)
REMARK    1  A    between atoms: C_1  and  C_2
REMARK    2  A    between atoms: C_2  and  C_3
REMARK    3  A    between atoms: C_2  and  C_4
REMARK    4  A    between atoms: C_2  and  N_5
REMARK    5  A    between atoms: C_6  and  C_8
REMARK    6  A    between atoms: N_11  and  C_43
REMARK    7  A    between atoms: N_14  and  C_15
REMARK    8  A    between atoms: C_15  and  C_16
REMARK    9  A    between atoms: C_16  and  C_18
REMARK   10  A    between atoms: C_16  and  O_42
REMARK   11  A    between atoms: C_18  and  C_19
REMARK   12  A    between atoms: C_19  and  C_21
REMARK   13  A    between atoms: C_19  and  C_28
REMARK   14  A    between atoms: C_21  and  C_22
REMARK   15  A    between atoms: N_30  and  C_31
REMARK   16  A    between atoms: C_32  and  O_41
REMARK   17  A    between atoms: C_43  and  C_44
REMARK                            x       y       z     vdW  Elec       q    Type
REMARK                         _______ _______ _______ _____ _____    ______ ____
ROOT
ATOM      1  C   UNL     1       7.057  -4.687  27.058  0.00  0.00    +0.129 C 
ENDROOT
BRANCH   1   2
ATOM      2  O   UNL     1       8.322  -5.359  27.134  0.00  0.00    -0.391 OA
ATOM      3  H   UNL     1       8.797  -4.994  27.902  0.00  0.00    +0.210 HD
ENDBRANCH   1   2
BRANCH   1   4
ATOM      4  C   UNL     1       5.982  -5.702  26.540  0.00  0.00    +0.116 C 
BRANCH   4   6
ATOM      5  C   UNL     1       3.823  -6.772  27.114  0.00  0.00    +0.157 C 
ATOM      6  N   UNL     1       5.333  -6.788  27.339  0.00  0.00    -0.287 NA
ATOM      7  C   UNL     1       5.465  -6.663  28.812  0.00  0.00    +0.100 C 
ATOM      8  C   UNL     1       4.698  -5.487  29.482  0.00  0.00    +0.100 C 
ATOM      9  N   UNL     1       3.248  -5.400  29.152  0.00  0.00    -0.295 NA
ATOM     10  C   UNL     1       3.061  -5.537  27.689  0.00  0.00    +0.113 C 
BRANCH   5  13
ATOM     11  N   UNL     1       2.324  -6.356  25.265  0.00  0.00    -0.309 N 
ATOM     12  H   UNL     1       1.797  -5.940  26.026  0.00  0.00    +0.149 HD
ATOM     13  C   UNL     1       3.484  -7.012  25.640  0.00  0.00    +0.232 C 
ATOM     14  O   UNL     1       4.186  -7.675  24.886  0.00  0.00    -0.274 OA
BRANCH  11  16
ATOM     15  C   UNL     1       0.494  -5.499  23.849  0.00  0.00    +0.031 C 
ATOM     16  C   UNL     1       1.791  -6.317  23.902  0.00  0.00    +0.026 C 
ATOM     17  C   UNL     1       2.826  -5.644  22.984  0.00  0.00    +0.031 C 
ATOM     18  C   UNL     1       1.558  -7.751  23.398  0.00  0.00    +0.031 C 
ENDBRANCH  11  16
ENDBRANCH   5  13
BRANCH   9  19
ATOM     19  C   UNL     1       2.711  -4.125  29.679  0.00  0.00    +0.121 C 
BRANCH  19  20
ATOM     20  C   UNL     1       2.956  -2.874  28.866  0.00  0.00    -0.015 A 
ATOM     21  C   UNL     1       4.200  -2.239  28.806  0.00  0.00    +0.008 A 
ATOM     22  C   UNL     1       4.393  -1.168  27.932  0.00  0.00    +0.020 A 
ATOM     23  C   UNL     1       3.332  -0.759  27.142  0.00  0.00    +0.111 A 
ATOM     24  N   UNL     1       2.114  -1.336  27.174  0.00  0.00    -0.263 NA
ATOM     25  C   UNL     1       1.957  -2.373  28.031  0.00  0.00    +0.115 A 
ENDBRANCH  19  20
ENDBRANCH   9  19
ENDBRANCH   4   6
ENDBRANCH   1   4
BRANCH   1  26
ATOM     26  C   UNL     1       7.274  -3.320  26.380  0.00  0.00    +0.045 C 
BRANCH  26  27
ATOM     27  C   UNL     1       8.629  -2.989  25.708  0.00  0.00    +0.082 C 
BRANCH  27  28
ATOM     28  C   UNL     1       8.915  -1.480  25.776  0.00  0.00    +0.217 C 
ATOM     29  N   UNL     1       9.018  -0.847  24.553  0.00  0.00    -0.306 N 
ATOM     30  H   UNL     1       8.654  -1.303  23.727  0.00  0.00    +0.149 HD
ATOM     31  O   UNL     1       9.032  -0.860  26.828  0.00  0.00    -0.275 OA
BRANCH  29  32
ATOM     32  C   UNL     1       9.270   0.577  24.494  0.00  0.00    +0.128 C 
ATOM     33  C   UNL     1       8.198   1.283  23.728  0.00  0.00    -0.044 C 
ATOM     34  C   UNL     1       6.737   0.984  23.827  0.00  0.00    +0.037 C 
ATOM     35  C   UNL     1       5.845   1.921  22.980  0.00  0.00    +0.031 C 
ATOM     36  C   UNL     1       6.552   3.028  22.237  0.00  0.00    -0.026 C 
ATOM     37  C   UNL     1       7.886   3.178  22.245  0.00  0.00    -0.001 C 
ATOM     38  C   UNL     1       8.707   2.280  22.992  0.00  0.00    -0.044 C 
ATOM     39  C   UNL     1      10.198   2.345  23.083  0.00  0.00    +0.068 C 
ATOM     40  C   UNL     1      10.534   0.968  23.684  0.00  0.00    +0.143 C 
BRANCH  40  41
ATOM     41  O   UNL     1      11.712   1.028  24.485  0.00  0.00    -0.389 OA
ATOM     42  H   UNL     1      11.454   1.301  25.382  0.00  0.00    +0.210 HD
ENDBRANCH  40  41
ENDBRANCH  29  32
ENDBRANCH  27  28
BRANCH  27  43
ATOM     43  C   UNL     1       8.913  -3.554  24.278  0.00  0.00    +0.048 C 
BRANCH  43  44
ATOM     44  C   UNL     1       7.883  -4.055  23.269  0.00  0.00    -0.047 A 
ATOM     45  C   UNL     1       7.842  -5.448  23.017  0.00  0.00    +0.003 A 
ATOM     46  C   UNL     1       6.955  -6.012  22.094  0.00  0.00    +0.000 A 
ATOM     47  C   UNL     1       6.069  -5.194  21.398  0.00  0.00    +0.000 A 
ATOM     48  C   UNL     1       6.092  -3.820  21.634  0.00  0.00    +0.000 A 
ATOM     49  C   UNL     1       6.981  -3.253  22.567  0.00  0.00    +0.003 A 
ENDBRANCH  43  44
ENDBRANCH  27  43
ENDBRANCH  26  27
ENDBRANCH   1  26
TORSDOF 14
ENDMDL
MODEL 4
REMARK VINA RESULT:      -7.1      2.883      8.410
REMARK  Name = 
REMARK  17 active torsions:
REMARK  status: ('A' for Active; 'I' for Inactive)
REMARK    1  A    between atoms: C_1  and  C_2
REMARK    2  A    between atoms: C_2  and  C_3
REMARK    3  A    between atoms: C_2  and  C_4
REMARK    4  A    between atoms: C_2  and  N_5
REMARK    5  A    between atoms: C_6  and  C_8
REMARK    6  A    between atoms: N_11  and  C_43
REMARK    7  A    between atoms: N_14  and  C_15
REMARK    8  A    between atoms: C_15  and  C_16
REMARK    9  A    between atoms: C_16  and  C_18
REMARK   10  A    between atoms: C_16  and  O_42
REMARK   11  A    between atoms: C_18  and  C_19
REMARK   12  A    between atoms: C_19  and  C_21
REMARK   13  A    between atoms: C_19  and  C_28
REMARK   14  A    between atoms: C_21  and  C_22
REMARK   15  A    between atoms: N_30  and  C_31
REMARK   16  A    between atoms: C_32  and  O_41
REMARK   17  A    between atoms: C_43  and  C_44
REMARK                            x       y       z     vdW  Elec       q    Type
REMARK                         _______ _______ _______ _____ _____    ______ ____
ROOT
ATOM      1  C   UNL     1       7.088  -0.699  24.006  0.00  0.00    +0.129 C 
ENDROOT
BRANCH   1   2
ATOM      2  O   UNL     1       6.682  -1.325  25.232  0.00  0.00    -0.391 OA
ATOM      3  H   UNL     1       7.485  -1.463  25.765  0.00  0.00    +0.210 HD
ENDBRANCH   1   2
BRANCH   1   4
ATOM      4  C   UNL     1       6.196   0.568  23.772  0.00  0.00    +0.116 C 
BRANCH   4   6
ATOM      5  C   UNL     1       5.833   2.641  25.077  0.00  0.00    +0.157 C 
ATOM      6  N   UNL     1       6.621   1.993  23.942  0.00  0.00    -0.287 NA
ATOM      7  C   UNL     1       6.354   2.881  22.783  0.00  0.00    +0.100 C 
ATOM      8  C   UNL     1       4.861   3.191  22.474  0.00  0.00    +0.100 C 
ATOM      9  N   UNL     1       4.064   3.701  23.624  0.00  0.00    -0.295 NA
ATOM     10  C   UNL     1       4.310   2.855  24.815  0.00  0.00    +0.113 C 
BRANCH   5  13
ATOM     11  N   UNL     1       4.928   1.806  27.156  0.00  0.00    -0.309 N 
ATOM     12  H   UNL     1       4.130   2.326  26.803  0.00  0.00    +0.149 HD
ATOM     13  C   UNL     1       6.084   1.918  26.404  0.00  0.00    +0.232 C 
ATOM     14  O   UNL     1       7.176   1.466  26.729  0.00  0.00    -0.274 OA
BRANCH  11  16
ATOM     15  C   UNL     1       5.874   1.596  29.425  0.00  0.00    +0.031 C 
ATOM     16  C   UNL     1       4.826   1.086  28.427  0.00  0.00    +0.026 C 
ATOM     17  C   UNL     1       3.429   1.331  29.024  0.00  0.00    +0.031 C 
ATOM     18  C   UNL     1       4.989  -0.423  28.180  0.00  0.00    +0.031 C 
ENDBRANCH  11  16
ENDBRANCH   5  13
BRANCH   9  19
ATOM     19  C   UNL     1       2.635   3.741  23.237  0.00  0.00    +0.121 C 
BRANCH  19  20
ATOM     20  C   UNL     1       2.312   3.853  21.765  0.00  0.00    -0.015 A 
ATOM     21  C   UNL     1       1.910   2.760  20.991  0.00  0.00    +0.008 A 
ATOM     22  C   UNL     1       1.497   2.956  19.672  0.00  0.00    +0.020 A 
ATOM     23  C   UNL     1       1.499   4.244  19.162  0.00  0.00    +0.111 A 
ATOM     24  N   UNL     1       1.887   5.324  19.869  0.00  0.00    -0.263 NA
ATOM     25  C   UNL     1       2.281   5.103  21.146  0.00  0.00    +0.115 A 
ENDBRANCH  19  20
ENDBRANCH   9  19
ENDBRANCH   4   6
ENDBRANCH   1   4
BRANCH   1  26
ATOM     26  C   UNL     1       7.242  -1.792  22.931  0.00  0.00    +0.045 C 
BRANCH  26  27
ATOM     27  C   UNL     1       8.570  -2.577  22.801  0.00  0.00    +0.082 C 
BRANCH  27  28
ATOM     28  C   UNL     1       8.667  -3.663  23.885  0.00  0.00    +0.217 C 
ATOM     29  N   UNL     1       7.455  -4.148  24.338  0.00  0.00    -0.306 N 
ATOM     30  H   UNL     1       6.622  -3.988  23.789  0.00  0.00    +0.149 HD
ATOM     31  O   UNL     1       9.729  -4.095  24.318  0.00  0.00    -0.275 OA
BRANCH  29  32
ATOM     32  C   UNL     1       7.422  -5.186  25.347  0.00  0.00    +0.128 C 
ATOM     33  C   UNL     1       6.048  -5.753  25.493  0.00  0.00    -0.044 C 
ATOM     34  C   UNL     1       5.122  -6.056  24.358  0.00  0.00    +0.037 C 
ATOM     35  C   UNL     1       3.789  -6.710  24.792  0.00  0.00    +0.031 C 
ATOM     36  C   UNL     1       3.637  -7.008  26.264  0.00  0.00    -0.026 C 
ATOM     37  C   UNL     1       4.566  -6.680  27.176  0.00  0.00    -0.001 C 
ATOM     38  C   UNL     1       5.774  -6.033  26.774  0.00  0.00    -0.044 C 
ATOM     39  C   UNL     1       6.880  -5.623  27.691  0.00  0.00    +0.068 C 
ATOM     40  C   UNL     1       7.702  -4.683  26.788  0.00  0.00    +0.143 C 
BRANCH  40  41
ATOM     41  O   UNL     1       9.085  -4.716  27.131  0.00  0.00    -0.389 OA
ATOM     42  H   UNL     1       9.422  -3.803  27.115  0.00  0.00    +0.210 HD
ENDBRANCH  40  41
ENDBRANCH  29  32
ENDBRANCH  27  28
BRANCH  27  43
ATOM     43  C   UNL     1       9.906  -1.775  22.685  0.00  0.00    +0.048 C 
BRANCH  43  44
ATOM     44  C   UNL     1      10.079  -0.262  22.791  0.00  0.00    -0.047 A 
ATOM     45  C   UNL     1      10.575   0.253  24.014  0.00  0.00    +0.003 A 
ATOM     46  C   UNL     1      10.750   1.625  24.228  0.00  0.00    +0.000 A 
ATOM     47  C   UNL     1      10.442   2.527  23.215  0.00  0.00    +0.000 A 
ATOM     48  C   UNL     1       9.955   2.040  22.002  0.00  0.00    +0.000 A 
ATOM     49  C   UNL     1       9.784   0.660  21.785  0.00  0.00    +0.003 A 
ENDBRANCH  43  44
ENDBRANCH  27  43
ENDBRANCH  26  27
ENDBRANCH   1  26
TORSDOF 14
ENDMDL
MODEL 5
REMARK VINA RESULT:      -7.1      2.251      4.327
REMARK  Name = 
REMARK  17 active torsions:
REMARK  status: ('A' for Active; 'I' for Inactive)
REMARK    1  A    between atoms: C_1  and  C_2
REMARK    2  A    between atoms: C_2  and  C_3
REMARK    3  A    between atoms: C_2  and  C_4
REMARK    4  A    between atoms: C_2  and  N_5
REMARK    5  A    between atoms: C_6  and  C_8
REMARK    6  A    between atoms: N_11  and  C_43
REMARK    7  A    between atoms: N_14  and  C_15
REMARK    8  A    between atoms: C_15  and  C_16
REMARK    9  A    between atoms: C_16  and  C_18
REMARK   10  A    between atoms: C_16  and  O_42
REMARK   11  A    between atoms: C_18  and  C_19
REMARK   12  A    between atoms: C_19  and  C_21
REMARK   13  A    between atoms: C_19  and  C_28
REMARK   14  A    between atoms: C_21  and  C_22
REMARK   15  A    between atoms: N_30  and  C_31
REMARK   16  A    between atoms: C_32  and  O_41
REMARK   17  A    between atoms: C_43  and  C_44
REMARK                            x       y       z     vdW  Elec       q    Type
REMARK                         _______ _______ _______ _____ _____    ______ ____
ROOT
ATOM      1  C   UNL     1       8.430  -0.366  26.582  0.00  0.00    +0.129 C 
ENDROOT
BRANCH   1   2
ATOM      2  O   UNL     1       9.132  -0.377  27.834  0.00  0.00    -0.391 OA
ATOM      3  H   UNL     1       8.492  -0.127  28.525  0.00  0.00    +0.210 HD
ENDBRANCH   1   2
BRANCH   1   4
ATOM      4  C   UNL     1       6.893  -0.286  26.871  0.00  0.00    +0.116 C 
BRANCH   4   6
ATOM      5  C   UNL     1       4.481   0.198  26.581  0.00  0.00    +0.157 C 
ATOM      6  N   UNL     1       5.819   0.007  25.870  0.00  0.00    -0.287 NA
ATOM      7  C   UNL     1       5.541  -1.077  24.894  0.00  0.00    +0.100 C 
ATOM      8  C   UNL     1       4.890  -2.371  25.460  0.00  0.00    +0.100 C 
ATOM      9  N   UNL     1       3.654  -2.165  26.264  0.00  0.00    -0.295 NA
ATOM     10  C   UNL     1       3.874  -1.077  27.246  0.00  0.00    +0.113 C 
BRANCH   5  13
ATOM     11  N   UNL     1       4.547   2.592  26.901  0.00  0.00    -0.309 N 
ATOM     12  H   UNL     1       4.652   2.538  25.892  0.00  0.00    +0.149 HD
ATOM     13  C   UNL     1       4.541   1.374  27.559  0.00  0.00    +0.232 C 
ATOM     14  O   UNL     1       4.545   1.238  28.777  0.00  0.00    -0.274 OA
BRANCH  11  16
ATOM     15  C   UNL     1       5.808   4.156  28.334  0.00  0.00    +0.031 C 
ATOM     16  C   UNL     1       4.507   3.898  27.562  0.00  0.00    +0.026 C 
ATOM     17  C   UNL     1       4.355   4.991  26.490  0.00  0.00    +0.031 C 
ATOM     18  C   UNL     1       3.289   3.966  28.498  0.00  0.00    +0.031 C 
ENDBRANCH  11  16
ENDBRANCH   5  13
BRANCH   9  19
ATOM     19  C   UNL     1       3.279  -3.445  26.907  0.00  0.00    +0.121 C 
BRANCH  19  20
ATOM     20  C   UNL     1       3.459  -4.711  26.100  0.00  0.00    -0.015 A 
ATOM     21  C   UNL     1       4.359  -5.718  26.459  0.00  0.00    +0.008 A 
ATOM     22  C   UNL     1       4.380  -6.920  25.747  0.00  0.00    +0.020 A 
ATOM     23  C   UNL     1       3.497  -7.078  24.692  0.00  0.00    +0.111 A 
ATOM     24  N   UNL     1       2.619  -6.131  24.306  0.00  0.00    -0.263 NA
ATOM     25  C   UNL     1       2.622  -4.977  25.016  0.00  0.00    +0.115 A 
ENDBRANCH  19  20
ENDBRANCH   9  19
ENDBRANCH   4   6
ENDBRANCH   1   4
BRANCH   1  26
ATOM     26  C   UNL     1       9.031  -1.462  25.680  0.00  0.00    +0.045 C 
BRANCH  26  27
ATOM     27  C   UNL     1       9.399  -1.148  24.210  0.00  0.00    +0.082 C 
BRANCH  27  28
ATOM     28  C   UNL     1       8.755   0.174  23.760  0.00  0.00    +0.217 C 
ATOM     29  N   UNL     1       9.334   1.315  24.281  0.00  0.00    -0.306 N 
ATOM     30  H   UNL     1      10.260   1.260  24.684  0.00  0.00    +0.149 HD
ATOM     31  O   UNL     1       7.808   0.236  22.984  0.00  0.00    -0.275 OA
BRANCH  29  32
ATOM     32  C   UNL     1       8.822   2.619  23.914  0.00  0.00    +0.128 C 
ATOM     33  C   UNL     1       9.918   3.632  23.860  0.00  0.00    -0.044 C 
ATOM     34  C   UNL     1      11.278   3.392  23.288  0.00  0.00    +0.037 C 
ATOM     35  C   UNL     1      12.191   4.641  23.290  0.00  0.00    +0.031 C 
ATOM     36  C   UNL     1      11.573   5.921  23.797  0.00  0.00    -0.026 C 
ATOM     37  C   UNL     1      10.322   5.988  24.282  0.00  0.00    -0.001 C 
ATOM     38  C   UNL     1       9.501   4.820  24.320  0.00  0.00    -0.044 C 
ATOM     39  C   UNL     1       8.098   4.767  24.830  0.00  0.00    +0.068 C 
ATOM     40  C   UNL     1       7.872   3.249  24.966  0.00  0.00    +0.143 C 
BRANCH  40  41
ATOM     41  O   UNL     1       6.504   2.909  24.756  0.00  0.00    -0.389 OA
ATOM     42  H   UNL     1       6.116   3.571  24.159  0.00  0.00    +0.210 HD
ENDBRANCH  40  41
ENDBRANCH  29  32
ENDBRANCH  27  28
BRANCH  27  43
ATOM     43  C   UNL     1       9.207  -2.265  23.134  0.00  0.00    +0.048 C 
BRANCH  43  44
ATOM     44  C   UNL     1       8.040  -3.242  23.024  0.00  0.00    -0.047 A 
ATOM     45  C   UNL     1       7.003  -2.918  22.115  0.00  0.00    +0.003 A 
ATOM     46  C   UNL     1       5.875  -3.731  21.952  0.00  0.00    +0.000 A 
ATOM     47  C   UNL     1       5.755  -4.903  22.692  0.00  0.00    +0.000 A 
ATOM     48  C   UNL     1       6.767  -5.241  23.590  0.00  0.00    +0.000 A 
ATOM     49  C   UNL     1       7.904  -4.427  23.750  0.00  0.00    +0.003 A 
ENDBRANCH  43  44
ENDBRANCH  27  43
ENDBRANCH  26  27
ENDBRANCH   1  26
TORSDOF 14
ENDMDL
MODEL 6
REMARK VINA RESULT:      -7.0      2.765      9.280
REMARK  Name = 
REMARK  17 active torsions:
REMARK  status: ('A' for Active; 'I' for Inactive)
REMARK    1  A    between atoms: C_1  and  C_2
REMARK    2  A    between atoms: C_2  and  C_3
REMARK    3  A    between atoms: C_2  and  C_4
REMARK    4  A    between atoms: C_2  and  N_5
REMARK    5  A    between atoms: C_6  and  C_8
REMARK    6  A    between atoms: N_11  and  C_43
REMARK    7  A    between atoms: N_14  and  C_15
REMARK    8  A    between atoms: C_15  and  C_16
REMARK    9  A    between atoms: C_16  and  C_18
REMARK   10  A    between atoms: C_16  and  O_42
REMARK   11  A    between atoms: C_18  and  C_19
REMARK   12  A    between atoms: C_19  and  C_21
REMARK   13  A    between atoms: C_19  and  C_28
REMARK   14  A    between atoms: C_21  and  C_22
REMARK   15  A    between atoms: N_30  and  C_31
REMARK   16  A    between atoms: C_32  and  O_41
REMARK   17  A    between atoms: C_43  and  C_44
REMARK                            x       y       z     vdW  Elec       q    Type
REMARK                         _______ _______ _______ _____ _____    ______ ____
ROOT
ATOM      1  C   UNL     1       6.276  -1.671  24.125  0.00  0.00    +0.129 C 
ENDROOT
BRANCH   1   2
ATOM      2  O   UNL     1       4.937  -2.163  23.973  0.00  0.00    -0.391 OA
ATOM      3  H   UNL     1       4.943  -2.787  23.225  0.00  0.00    +0.210 HD
ENDBRANCH   1   2
BRANCH   1   4
ATOM      4  C   UNL     1       6.213  -0.223  24.720  0.00  0.00    +0.116 C 
BRANCH   4   6
ATOM      5  C   UNL     1       5.447   0.929  26.774  0.00  0.00    +0.157 C 
ATOM      6  N   UNL     1       6.599   0.181  26.108  0.00  0.00    -0.287 NA
ATOM      7  C   UNL     1       7.733   1.135  26.204  0.00  0.00    +0.100 C 
ATOM      8  C   UNL     1       7.474   2.576  25.679  0.00  0.00    +0.100 C 
ATOM      9  N   UNL     1       6.270   3.252  26.237  0.00  0.00    -0.295 NA
ATOM     10  C   UNL     1       5.110   2.332  26.180  0.00  0.00    +0.113 C 
BRANCH   5  13
ATOM     11  N   UNL     1       4.471  -1.152  27.522  0.00  0.00    -0.309 N 
ATOM     12  H   UNL     1       5.454  -1.333  27.705  0.00  0.00    +0.149 HD
ATOM     13  C   UNL     1       4.202   0.042  26.876  0.00  0.00    +0.232 C 
ATOM     14  O   UNL     1       3.099   0.380  26.463  0.00  0.00    -0.274 OA
BRANCH  11  16
ATOM     15  C   UNL     1       2.299  -1.543  28.626  0.00  0.00    +0.031 C 
ATOM     16  C   UNL     1       3.469  -2.166  27.852  0.00  0.00    +0.026 C 
ATOM     17  C   UNL     1       2.920  -2.765  26.546  0.00  0.00    +0.031 C 
ATOM     18  C   UNL     1       4.126  -3.295  28.664  0.00  0.00    +0.031 C 
ENDBRANCH  11  16
ENDBRANCH   5  13
BRANCH   9  19
ATOM     19  C   UNL     1       6.037   4.511  25.493  0.00  0.00    +0.121 C 
BRANCH  19  20
ATOM     20  C   UNL     1       7.250   5.277  25.018  0.00  0.00    -0.015 A 
ATOM     21  C   UNL     1       8.274   5.686  25.877  0.00  0.00    +0.008 A 
ATOM     22  C   UNL     1       9.429   6.271  25.355  0.00  0.00    +0.020 A 
ATOM     23  C   UNL     1       9.527   6.433  23.983  0.00  0.00    +0.111 A 
ATOM     24  N   UNL     1       8.561   6.062  23.119  0.00  0.00    -0.263 NA
ATOM     25  C   UNL     1       7.452   5.496  23.655  0.00  0.00    +0.115 A 
ENDBRANCH  19  20
ENDBRANCH   9  19
ENDBRANCH   4   6
ENDBRANCH   1   4
BRANCH   1  26
ATOM     26  C   UNL     1       7.058  -1.984  22.834  0.00  0.00    +0.045 C 
BRANCH  26  27
ATOM     27  C   UNL     1       8.354  -2.829  22.892  0.00  0.00    +0.082 C 
BRANCH  27  28
ATOM     28  C   UNL     1       8.143  -4.090  23.746  0.00  0.00    +0.217 C 
ATOM     29  N   UNL     1       6.823  -4.415  23.993  0.00  0.00    -0.306 N 
ATOM     30  H   UNL     1       6.097  -4.009  23.419  0.00  0.00    +0.149 HD
ATOM     31  O   UNL     1       9.062  -4.780  24.173  0.00  0.00    -0.275 OA
BRANCH  29  32
ATOM     32  C   UNL     1       6.502  -5.592  24.773  0.00  0.00    +0.128 C 
ATOM     33  C   UNL     1       5.061  -5.957  24.629  0.00  0.00    -0.044 C 
ATOM     34  C   UNL     1       4.291  -5.916  23.348  0.00  0.00    +0.037 C 
ATOM     35  C   UNL     1       2.835  -6.422  23.473  0.00  0.00    +0.031 C 
ATOM     36  C   UNL     1       2.420  -6.940  24.829  0.00  0.00    -0.026 C 
ATOM     37  C   UNL     1       3.230  -6.918  25.899  0.00  0.00    -0.001 C 
ATOM     38  C   UNL     1       4.558  -6.406  25.787  0.00  0.00    -0.044 C 
ATOM     39  C   UNL     1       5.552  -6.333  26.900  0.00  0.00    +0.068 C 
ATOM     40  C   UNL     1       6.617  -5.392  26.307  0.00  0.00    +0.143 C 
BRANCH  40  41
ATOM     41  O   UNL     1       7.915  -5.694  26.813  0.00  0.00    -0.389 OA
ATOM     42  H   UNL     1       8.192  -6.549  26.442  0.00  0.00    +0.210 HD
ENDBRANCH  40  41
ENDBRANCH  29  32
ENDBRANCH  27  28
BRANCH  27  43
ATOM     43  C   UNL     1       9.696  -2.116  23.258  0.00  0.00    +0.048 C 
BRANCH  43  44
ATOM     44  C   UNL     1       9.972  -0.615  23.240  0.00  0.00    -0.047 A 
ATOM     45  C   UNL     1       9.669   0.089  22.049  0.00  0.00    +0.003 A 
ATOM     46  C   UNL     1       9.905   1.462  21.916  0.00  0.00    +0.000 A 
ATOM     47  C   UNL     1      10.444   2.178  22.981  0.00  0.00    +0.000 A 
ATOM     48  C   UNL     1      10.745   1.503  24.163  0.00  0.00    +0.000 A 
ATOM     49  C   UNL     1      10.504   0.123  24.299  0.00  0.00    +0.003 A 
ENDBRANCH  43  44
ENDBRANCH  27  43
ENDBRANCH  26  27
ENDBRANCH   1  26
TORSDOF 14
ENDMDL
MODEL 7
REMARK VINA RESULT:      -7.0      2.519      4.952
REMARK  Name = 
REMARK  17 active torsions:
REMARK  status: ('A' for Active; 'I' for Inactive)
REMARK    1  A    between atoms: C_1  and  C_2
REMARK    2  A    between atoms: C_2  and  C_3
REMARK    3  A    between atoms: C_2  and  C_4
REMARK    4  A    between atoms: C_2  and  N_5
REMARK    5  A    between atoms: C_6  and  C_8
REMARK    6  A    between atoms: N_11  and  C_43
REMARK    7  A    between atoms: N_14  and  C_15
REMARK    8  A    between atoms: C_15  and  C_16
REMARK    9  A    between atoms: C_16  and  C_18
REMARK   10  A    between atoms: C_16  and  O_42
REMARK   11  A    between atoms: C_18  and  C_19
REMARK   12  A    between atoms: C_19  and  C_21
REMARK   13  A    between atoms: C_19  and  C_28
REMARK   14  A    between atoms: C_21  and  C_22
REMARK   15  A    between atoms: N_30  and  C_31
REMARK   16  A    between atoms: C_32  and  O_41
REMARK   17  A    between atoms: C_43  and  C_44
REMARK                            x       y       z     vdW  Elec       q    Type
REMARK                         _______ _______ _______ _____ _____    ______ ____
ROOT
ATOM      1  C   UNL     1       5.790  -1.841  26.295  0.00  0.00    +0.129 C 
ENDROOT
BRANCH   1   2
ATOM      2  O   UNL     1       4.921  -1.296  25.292  0.00  0.00    -0.391 OA
ATOM      3  H   UNL     1       5.447  -1.198  24.478  0.00  0.00    +0.210 HD
ENDBRANCH   1   2
BRANCH   1   4
ATOM      4  C   UNL     1       5.097  -3.093  26.932  0.00  0.00    +0.116 C 
BRANCH   4   6
ATOM      5  C   UNL     1       5.775  -5.451  26.594  0.00  0.00    +0.157 C 
ATOM      6  N   UNL     1       5.787  -4.266  27.555  0.00  0.00    -0.287 NA
ATOM      7  C   UNL     1       5.146  -4.807  28.780  0.00  0.00    +0.100 C 
ATOM      8  C   UNL     1       3.770  -5.507  28.593  0.00  0.00    +0.100 C 
ATOM      9  N   UNL     1       3.733  -6.577  27.557  0.00  0.00    -0.295 NA
ATOM     10  C   UNL     1       4.379  -6.090  26.316  0.00  0.00    +0.113 C 
BRANCH   5  13
ATOM     11  N   UNL     1       5.746  -5.397  24.178  0.00  0.00    -0.309 N 
ATOM     12  H   UNL     1       4.887  -5.908  24.361  0.00  0.00    +0.149 HD
ATOM     13  C   UNL     1       6.513  -5.112  25.295  0.00  0.00    +0.232 C 
ATOM     14  O   UNL     1       7.632  -4.614  25.265  0.00  0.00    -0.274 OA
BRANCH  11  16
ATOM     15  C   UNL     1       7.663  -5.162  22.641  0.00  0.00    +0.031 C 
ATOM     16  C   UNL     1       6.137  -5.099  22.799  0.00  0.00    +0.026 C 
ATOM     17  C   UNL     1       5.511  -6.152  21.868  0.00  0.00    +0.031 C 
ATOM     18  C   UNL     1       5.598  -3.716  22.397  0.00  0.00    +0.031 C 
ENDBRANCH  11  16
ENDBRANCH   5  13
BRANCH   9  19
ATOM     19  C   UNL     1       2.328  -6.992  27.344  0.00  0.00    +0.121 C 
BRANCH  19  20
ATOM     20  C   UNL     1       1.871  -7.210  25.920  0.00  0.00    -0.015 A 
ATOM     21  C   UNL     1       1.161  -6.249  25.195  0.00  0.00    +0.008 A 
ATOM     22  C   UNL     1       0.887  -6.459  23.842  0.00  0.00    +0.020 A 
ATOM     23  C   UNL     1       1.332  -7.630  23.252  0.00  0.00    +0.111 A 
ATOM     24  N   UNL     1       2.012  -8.587  23.914  0.00  0.00    -0.263 NA
ATOM     25  C   UNL     1       2.264  -8.354  25.225  0.00  0.00    +0.115 A 
ENDBRANCH  19  20
ENDBRANCH   9  19
ENDBRANCH   4   6
ENDBRANCH   1   4
BRANCH   1  26
ATOM     26  C   UNL     1       6.321  -0.681  27.159  0.00  0.00    +0.045 C 
BRANCH  26  27
ATOM     27  C   UNL     1       7.588   0.097  26.727  0.00  0.00    +0.082 C 
BRANCH  27  28
ATOM     28  C   UNL     1       7.209   1.341  25.907  0.00  0.00    +0.217 C 
ATOM     29  N   UNL     1       8.226   2.258  25.729  0.00  0.00    -0.306 N 
ATOM     30  H   UNL     1       9.183   1.973  25.890  0.00  0.00    +0.149 HD
ATOM     31  O   UNL     1       6.096   1.519  25.424  0.00  0.00    -0.275 OA
BRANCH  29  32
ATOM     32  C   UNL     1       7.990   3.461  24.959  0.00  0.00    +0.128 C 
ATOM     33  C   UNL     1       9.270   4.027  24.437  0.00  0.00    -0.044 C 
ATOM     34  C   UNL     1      10.395   3.221  23.871  0.00  0.00    +0.037 C 
ATOM     35  C   UNL     1      11.569   4.072  23.333  0.00  0.00    +0.031 C 
ATOM     36  C   UNL     1      11.393   5.570  23.390  0.00  0.00    -0.026 C 
ATOM     37  C   UNL     1      10.313   6.159  23.929  0.00  0.00    -0.001 C 
ATOM     38  C   UNL     1       9.253   5.367  24.466  0.00  0.00    -0.044 C 
ATOM     39  C   UNL     1       8.004   5.902  25.086  0.00  0.00    +0.068 C 
ATOM     40  C   UNL     1       7.442   4.652  25.789  0.00  0.00    +0.143 C 
BRANCH  40  41
ATOM     41  O   UNL     1       6.018   4.685  25.844  0.00  0.00    -0.389 OA
ATOM     42  H   UNL     1       5.691   3.776  25.735  0.00  0.00    +0.210 HD
ENDBRANCH  40  41
ENDBRANCH  29  32
ENDBRANCH  27  28
BRANCH  27  43
ATOM     43  C   UNL     1       8.757  -0.690  26.052  0.00  0.00    +0.048 C 
BRANCH  43  44
ATOM     44  C   UNL     1       9.013  -0.846  24.555  0.00  0.00    -0.047 A 
ATOM     45  C   UNL     1      10.191  -0.258  24.032  0.00  0.00    +0.003 A 
ATOM     46  C   UNL     1      10.512  -0.319  22.671  0.00  0.00    +0.000 A 
ATOM     47  C   UNL     1       9.664  -0.983  21.790  0.00  0.00    +0.000 A 
ATOM     48  C   UNL     1       8.501  -1.570  22.286  0.00  0.00    +0.000 A 
ATOM     49  C   UNL     1       8.180  -1.513  23.655  0.00  0.00    +0.003 A 
ENDBRANCH  43  44
ENDBRANCH  27  43
ENDBRANCH  26  27
ENDBRANCH   1  26
TORSDOF 14
ENDMDL
MODEL 8
REMARK VINA RESULT:      -7.0      2.217      6.323
REMARK  Name = 
REMARK  17 active torsions:
REMARK  status: ('A' for Active; 'I' for Inactive)
REMARK    1  A    between atoms: C_1  and  C_2
REMARK    2  A    between atoms: C_2  and  C_3
REMARK    3  A    between atoms: C_2  and  C_4
REMARK    4  A    between atoms: C_2  and  N_5
REMARK    5  A    between atoms: C_6  and  C_8
REMARK    6  A    between atoms: N_11  and  C_43
REMARK    7  A    between atoms: N_14  and  C_15
REMARK    8  A    between atoms: C_15  and  C_16
REMARK    9  A    between atoms: C_16  and  C_18
REMARK   10  A    between atoms: C_16  and  O_42
REMARK   11  A    between atoms: C_18  and  C_19
REMARK   12  A    between atoms: C_19  and  C_21
REMARK   13  A    between atoms: C_19  and  C_28
REMARK   14  A    between atoms: C_21  and  C_22
REMARK   15  A    between atoms: N_30  and  C_31
REMARK   16  A    between atoms: C_32  and  O_41
REMARK   17  A    between atoms: C_43  and  C_44
REMARK                            x       y       z     vdW  Elec       q    Type
REMARK                         _______ _______ _______ _____ _____    ______ ____
ROOT
ATOM      1  C   UNL     1       8.845  -0.392  26.137  0.00  0.00    +0.129 C 
ENDROOT
BRANCH   1   2
ATOM      2  O   UNL     1       9.423  -0.552  27.441  0.00  0.00    -0.391 OA
ATOM      3  H   UNL     1       9.066   0.158  28.004  0.00  0.00    +0.210 HD
ENDBRANCH   1   2
BRANCH   1   4
ATOM      4  C   UNL     1       9.937   0.180  25.172  0.00  0.00    +0.116 C 
BRANCH   4   6
ATOM      5  C   UNL     1       9.348   0.238  22.766  0.00  0.00    +0.157 C 
ATOM      6  N   UNL     1      10.286  -0.352  23.816  0.00  0.00    -0.287 NA
ATOM      7  C   UNL     1      10.123  -1.817  23.644  0.00  0.00    +0.100 C 
ATOM      8  C   UNL     1       8.666  -2.361  23.663  0.00  0.00    +0.100 C 
ATOM      9  N   UNL     1       7.722  -1.691  22.726  0.00  0.00    -0.295 NA
ATOM     10  C   UNL     1       7.858  -0.221  22.848  0.00  0.00    +0.113 C 
BRANCH   5  13
ATOM     11  N   UNL     1       8.492   2.384  23.473  0.00  0.00    -0.309 N 
ATOM     12  H   UNL     1       7.766   1.770  23.830  0.00  0.00    +0.149 HD
ATOM     13  C   UNL     1       9.470   1.763  22.715  0.00  0.00    +0.232 C 
ATOM     14  O   UNL     1      10.355   2.349  22.102  0.00  0.00    -0.274 OA
BRANCH  11  16
ATOM     15  C   UNL     1       7.654   4.510  22.541  0.00  0.00    +0.031 C 
ATOM     16  C   UNL     1       8.400   3.828  23.696  0.00  0.00    +0.026 C 
ATOM     17  C   UNL     1       7.614   4.080  24.995  0.00  0.00    +0.031 C 
ATOM     18  C   UNL     1       9.812   4.415  23.863  0.00  0.00    +0.031 C 
ENDBRANCH  11  16
ENDBRANCH   5  13
BRANCH   9  19
ATOM     19  C   UNL     1       6.347  -2.162  23.011  0.00  0.00    +0.121 C 
BRANCH  19  20
ATOM     20  C   UNL     1       6.000  -3.582  22.626  0.00  0.00    -0.015 A 
ATOM     21  C   UNL     1       6.953  -4.501  22.177  0.00  0.00    +0.008 A 
ATOM     22  C   UNL     1       6.590  -5.833  21.967  0.00  0.00    +0.020 A 
ATOM     23  C   UNL     1       5.280  -6.208  22.212  0.00  0.00    +0.111 A 
ATOM     24  N   UNL     1       4.327  -5.354  22.636  0.00  0.00    -0.263 NA
ATOM     25  C   UNL     1       4.709  -4.069  22.832  0.00  0.00    +0.115 A 
ENDBRANCH  19  20
ENDBRANCH   9  19
ENDBRANCH   4   6
ENDBRANCH   1   4
BRANCH   1  26
ATOM     26  C   UNL     1       7.469   0.284  26.298  0.00  0.00    +0.045 C 
BRANCH  26  27
ATOM     27  C   UNL     1       6.171  -0.552  26.188  0.00  0.00    +0.082 C 
BRANCH  27  28
ATOM     28  C   UNL     1       4.932   0.356  26.254  0.00  0.00    +0.217 C 
ATOM     29  N   UNL     1       5.192   1.709  26.147  0.00  0.00    -0.306 N 
ATOM     30  H   UNL     1       6.082   2.014  25.778  0.00  0.00    +0.149 HD
ATOM     31  O   UNL     1       3.788  -0.067  26.376  0.00  0.00    -0.275 OA
BRANCH  29  32
ATOM     32  C   UNL     1       4.101   2.660  26.180  0.00  0.00    +0.128 C 
ATOM     33  C   UNL     1       4.034   3.447  24.911  0.00  0.00    -0.044 C 
ATOM     34  C   UNL     1       4.233   2.881  23.542  0.00  0.00    +0.037 C 
ATOM     35  C   UNL     1       4.030   3.908  22.402  0.00  0.00    +0.031 C 
ATOM     36  C   UNL     1       3.602   5.294  22.818  0.00  0.00    -0.026 C 
ATOM     37  C   UNL     1       3.456   5.660  24.101  0.00  0.00    -0.001 C 
ATOM     38  C   UNL     1       3.691   4.720  25.150  0.00  0.00    -0.044 C 
ATOM     39  C   UNL     1       3.559   5.005  26.611  0.00  0.00    +0.068 C 
ATOM     40  C   UNL     1       4.269   3.788  27.232  0.00  0.00    +0.143 C 
BRANCH  40  41
ATOM     41  O   UNL     1       3.710   3.454  28.501  0.00  0.00    -0.389 OA
ATOM     42  H   UNL     1       2.864   2.999  28.347  0.00  0.00    +0.210 HD
ENDBRANCH  40  41
ENDBRANCH  29  32
ENDBRANCH  27  28
BRANCH  27  43
ATOM     43  C   UNL     1       6.005  -1.802  27.111  0.00  0.00    +0.048 C 
BRANCH  43  44
ATOM     44  C   UNL     1       5.968  -3.265  26.677  0.00  0.00    -0.047 A 
ATOM     45  C   UNL     1       4.704  -3.904  26.650  0.00  0.00    +0.003 A 
ATOM     46  C   UNL     1       4.558  -5.248  26.290  0.00  0.00    +0.000 A 
ATOM     47  C   UNL     1       5.677  -5.995  25.935  0.00  0.00    +0.000 A 
ATOM     48  C   UNL     1       6.929  -5.383  25.952  0.00  0.00    +0.000 A 
ATOM     49  C   UNL     1       7.077  -4.029  26.309  0.00  0.00    +0.003 A 
ENDBRANCH  43  44
ENDBRANCH  27  43
ENDBRANCH  26  27
ENDBRANCH   1  26
TORSDOF 14
ENDMDL
MODEL 9
REMARK VINA RESULT:      -6.9      2.462      5.759
REMARK  Name = 
REMARK  17 active torsions:
REMARK  status: ('A' for Active; 'I' for Inactive)
REMARK    1  A    between atoms: C_1  and  C_2
REMARK    2  A    between atoms: C_2  and  C_3
REMARK    3  A    between atoms: C_2  and  C_4
REMARK    4  A    between atoms: C_2  and  N_5
REMARK    5  A    between atoms: C_6  and  C_8
REMARK    6  A    between atoms: N_11  and  C_43
REMARK    7  A    between atoms: N_14  and  C_15
REMARK    8  A    between atoms: C_15  and  C_16
REMARK    9  A    between atoms: C_16  and  C_18
REMARK   10  A    between atoms: C_16  and  O_42
REMARK   11  A    between atoms: C_18  and  C_19
REMARK   12  A    between atoms: C_19  and  C_21
REMARK   13  A    between atoms: C_19  and  C_28
REMARK   14  A    between atoms: C_21  and  C_22
REMARK   15  A    between atoms: N_30  and  C_31
REMARK   16  A    between atoms: C_32  and  O_41
REMARK   17  A    between atoms: C_43  and  C_44
REMARK                            x       y       z     vdW  Elec       q    Type
REMARK                         _______ _______ _______ _____ _____    ______ ____
ROOT
ATOM      1  C   UNL     1       8.665  -1.098  26.737  0.00  0.00    +0.129 C 
ENDROOT
BRANCH   1   2
ATOM      2  O   UNL     1       9.542  -0.028  26.357  0.00  0.00    -0.391 OA
ATOM      3  H   UNL     1       9.852  -0.217  25.453  0.00  0.00    +0.210 HD
ENDBRANCH   1   2
BRANCH   1   4
ATOM      4  C   UNL     1       8.356  -1.966  25.470  0.00  0.00    +0.116 C 
BRANCH   4   6
ATOM      5  C   UNL     1       9.353  -2.266  23.222  0.00  0.00    +0.157 C 
ATOM      6  N   UNL     1       9.349  -2.750  24.670  0.00  0.00    -0.287 NA
ATOM      7  C   UNL     1       9.067  -4.202  24.549  0.00  0.00    +0.100 C 
ATOM      8  C   UNL     1       7.823  -4.601  23.704  0.00  0.00    +0.100 C 
ATOM      9  N   UNL     1       7.769  -4.018  22.335  0.00  0.00    -0.295 NA
ATOM     10  C   UNL     1       8.061  -2.567  22.399  0.00  0.00    +0.113 C 
BRANCH   5  13
ATOM     11  N   UNL     1       8.758  -0.024  22.544  0.00  0.00    -0.309 N 
ATOM     12  H   UNL     1       7.995  -0.551  22.130  0.00  0.00    +0.149 HD
ATOM     13  C   UNL     1       9.748  -0.789  23.137  0.00  0.00    +0.232 C 
ATOM     14  O   UNL     1      10.801  -0.346  23.581  0.00  0.00    -0.274 OA
BRANCH  11  16
ATOM     15  C   UNL     1       7.673   1.923  21.485  0.00  0.00    +0.031 C 
ATOM     16  C   UNL     1       8.801   1.432  22.402  0.00  0.00    +0.026 C 
ATOM     17  C   UNL     1       8.609   2.070  23.789  0.00  0.00    +0.031 C 
ATOM     18  C   UNL     1      10.176   1.858  21.860  0.00  0.00    +0.031 C 
ENDBRANCH  11  16
ENDBRANCH   5  13
BRANCH   9  19
ATOM     19  C   UNL     1       6.443  -4.307  21.742  0.00  0.00    +0.121 C 
BRANCH  19  20
ATOM     20  C   UNL     1       5.322  -4.684  22.684  0.00  0.00    -0.015 A 
ATOM     21  C   UNL     1       4.668  -3.753  23.496  0.00  0.00    +0.008 A 
ATOM     22  C   UNL     1       3.554  -4.142  24.242  0.00  0.00    +0.020 A 
ATOM     23  C   UNL     1       3.126  -5.456  24.156  0.00  0.00    +0.111 A 
ATOM     24  N   UNL     1       3.732  -6.389  23.393  0.00  0.00    -0.263 NA
ATOM     25  C   UNL     1       4.809  -5.981  22.680  0.00  0.00    +0.115 A 
ENDBRANCH  19  20
ENDBRANCH   9  19
ENDBRANCH   4   6
ENDBRANCH   1   4
BRANCH   1  26
ATOM     26  C   UNL     1       7.540  -0.515  27.615  0.00  0.00    +0.045 C 
BRANCH  26  27
ATOM     27  C   UNL     1       6.078  -0.508  27.107  0.00  0.00    +0.082 C 
BRANCH  27  28
ATOM     28  C   UNL     1       5.524   0.926  27.069  0.00  0.00    +0.217 C 
ATOM     29  N   UNL     1       6.401   1.880  26.591  0.00  0.00    -0.306 N 
ATOM     30  H   UNL     1       7.213   1.587  26.064  0.00  0.00    +0.149 HD
ATOM     31  O   UNL     1       4.386   1.221  27.416  0.00  0.00    -0.275 OA
BRANCH  29  32
ATOM     32  C   UNL     1       5.984   3.263  26.494  0.00  0.00    +0.128 C 
ATOM     33  C   UNL     1       5.613   3.616  25.090  0.00  0.00    -0.044 C 
ATOM     34  C   UNL     1       4.835   2.738  24.163  0.00  0.00    +0.037 C 
ATOM     35  C   UNL     1       4.526   3.387  22.794  0.00  0.00    +0.031 C 
ATOM     36  C   UNL     1       4.984   4.813  22.610  0.00  0.00    -0.026 C 
ATOM     37  C   UNL     1       5.676   5.485  23.544  0.00  0.00    -0.001 C 
ATOM     38  C   UNL     1       5.999   4.863  24.788  0.00  0.00    -0.044 C 
ATOM     39  C   UNL     1       6.758   5.505  25.903  0.00  0.00    +0.068 C 
ATOM     40  C   UNL     1       7.110   4.290  26.782  0.00  0.00    +0.143 C 
BRANCH  40  41
ATOM     41  O   UNL     1       7.193   4.654  28.158  0.00  0.00    -0.389 OA
ATOM     42  H   UNL     1       6.327   5.003  28.432  0.00  0.00    +0.210 HD
ENDBRANCH  40  41
ENDBRANCH  29  32
ENDBRANCH  27  28
BRANCH  27  43
ATOM     43  C   UNL     1       5.054  -1.493  27.758  0.00  0.00    +0.048 C 
BRANCH  43  44
ATOM     44  C   UNL     1       5.007  -3.009  27.591  0.00  0.00    -0.047 A 
ATOM     45  C   UNL     1       3.815  -3.670  27.979  0.00  0.00    +0.003 A 
ATOM     46  C   UNL     1       3.672  -5.059  27.891  0.00  0.00    +0.000 A 
ATOM     47  C   UNL     1       4.720  -5.833  27.400  0.00  0.00    +0.000 A 
ATOM     48  C   UNL     1       5.900  -5.200  27.011  0.00  0.00    +0.000 A 
ATOM     49  C   UNL     1       6.042  -3.802  27.094  0.00  0.00    +0.003 A 
ENDBRANCH  43  44
ENDBRANCH  27  43
ENDBRANCH  26  27
ENDBRANCH   1  26
TORSDOF 14
ENDMDL
