MODEL 1
REMARK VINA RESULT:      -5.9      0.000      0.000
REMARK  Name = 
REMARK  5 active torsions:
REMARK  status: ('A' for Active; 'I' for Inactive)
REMARK    1  A    between atoms: C3*_2  and  O3*_22
REMARK    2  A    between atoms: C4*_4  and  C5*_20
REMARK    3  A    between atoms: C1*_7  and  N_9
REMARK    4  A    between atoms: C_11  and  C_17
REMARK    5  A    between atoms: C5*_20  and  O5*_21
REMARK                            x       y       z     vdW  Elec       q    Type
REMARK                         _______ _______ _______ _____ _____    ______ ____
ROOT
ATOM      1  N   UNL     1       6.512  -5.015  23.292  0.00  0.00    -0.273 N 
ATOM      2  C   UNL     1       5.714  -5.666  22.362  0.00  0.00    +0.331 A 
ATOM      3  O   UNL     1       5.782  -5.482  21.148  0.00  0.00    -0.246 OA
ATOM      4  N   UNL     1       4.813  -6.555  22.873  0.00  0.00    -0.274 N 
ATOM      5  H   UNL     1       4.252  -7.067  22.210  0.00  0.00    +0.173 HD
ATOM      6  C   UNL     1       4.626  -6.846  24.195  0.00  0.00    +0.261 A 
ATOM      7  O   UNL     1       3.825  -7.703  24.554  0.00  0.00    -0.267 OA
ATOM      8  C   UNL     1       5.446  -6.062  25.167  0.00  0.00    +0.056 A 
ATOM      9  C   UNL     1       6.349  -5.216  24.650  0.00  0.00    +0.106 A 
ENDROOT
BRANCH   1  11
ATOM     10  C2* UNL     1       6.911  -2.640  22.666  0.00  0.00    +0.088 C 
ATOM     11  C1* UNL     1       7.477  -4.050  22.768  0.00  0.00    +0.226 C 
ATOM     12  O4* UNL     1       8.648  -4.005  23.611  0.00  0.00    -0.348 OA
ATOM     13  C4* UNL     1       8.839  -2.649  24.068  0.00  0.00    +0.175 C 
ATOM     14  C3* UNL     1       7.486  -1.963  23.887  0.00  0.00    +0.150 C 
BRANCH  14  15
ATOM     15  O3* UNL     1       7.539  -0.555  23.770  0.00  0.00    -0.389 OA
ATOM     16  H3* UNL     1       7.610  -0.331  22.824  0.00  0.00    +0.210 HD
ENDBRANCH  14  15
BRANCH  13  17
ATOM     17  C5* UNL     1      10.013  -2.024  23.306  0.00  0.00    +0.190 C 
BRANCH  17  18
ATOM     18  O5* UNL     1      10.352  -0.742  23.826  0.00  0.00    -0.392 OA
ATOM     19  H5* UNL     1      10.379  -0.842  24.798  0.00  0.00    +0.210 HD
ENDBRANCH  17  18
ENDBRANCH  13  17
ENDBRANCH   1  11
BRANCH   8  20
ATOM     20  C   UNL     1       5.291  -6.317  26.589  0.00  0.00    +0.022 C 
ATOM     21  C   UNL     1       5.911  -5.657  27.576  0.00  0.00    +0.052 C 
ATOM     22 BR   UNL     1       5.672  -6.031  29.378  0.00  0.00    -0.059 Br
ENDBRANCH   8  20
TORSDOF 5
ENDMDL
MODEL 2
REMARK VINA RESULT:      -5.8      2.795      3.042
REMARK  Name = 
REMARK  5 active torsions:
REMARK  status: ('A' for Active; 'I' for Inactive)
REMARK    1  A    between atoms: C3*_2  and  O3*_22
REMARK    2  A    between atoms: C4*_4  and  C5*_20
REMARK    3  A    between atoms: C1*_7  and  N_9
REMARK    4  A    between atoms: C_11  and  C_17
REMARK    5  A    between atoms: C5*_20  and  O5*_21
REMARK                            x       y       z     vdW  Elec       q    Type
REMARK                         _______ _______ _______ _____ _____    ______ ____
ROOT
ATOM      1  N   UNL     1       7.864  -4.055  24.853  0.00  0.00    -0.273 N 
ATOM      2  C   UNL     1       8.805  -4.981  25.281  0.00  0.00    +0.331 A 
ATOM      3  O   UNL     1       9.860  -5.211  24.694  0.00  0.00    -0.246 OA
ATOM      4  N   UNL     1       8.496  -5.652  26.430  0.00  0.00    -0.274 N 
ATOM      5  H   UNL     1       9.186  -6.299  26.778  0.00  0.00    +0.173 HD
ATOM      6  C   UNL     1       7.359  -5.501  27.173  0.00  0.00    +0.261 A 
ATOM      7  O   UNL     1       7.197  -6.114  28.223  0.00  0.00    -0.267 OA
ATOM      8  C   UNL     1       6.336  -4.557  26.632  0.00  0.00    +0.056 A 
ATOM      9  C   UNL     1       6.665  -3.881  25.521  0.00  0.00    +0.106 A 
ENDROOT
BRANCH   1  11
ATOM     10  C2* UNL     1       6.969  -2.571  23.068  0.00  0.00    +0.088 C 
ATOM     11  C1* UNL     1       8.168  -3.331  23.621  0.00  0.00    +0.226 C 
ATOM     12  O4* UNL     1       9.236  -2.386  23.844  0.00  0.00    -0.348 OA
ATOM     13  C4* UNL     1       8.770  -1.067  23.488  0.00  0.00    +0.175 C 
ATOM     14  C3* UNL     1       7.245  -1.153  23.507  0.00  0.00    +0.150 C 
BRANCH  14  15
ATOM     15  O3* UNL     1       6.580  -0.186  22.719  0.00  0.00    -0.389 OA
ATOM     16  H3* UNL     1       5.789   0.111  23.206  0.00  0.00    +0.210 HD
ENDBRANCH  14  15
BRANCH  13  17
ATOM     17  C5* UNL     1       9.400  -0.658  22.152  0.00  0.00    +0.190 C 
BRANCH  17  18
ATOM     18  O5* UNL     1      10.348  -1.622  21.702  0.00  0.00    -0.392 OA
ATOM     19  H5* UNL     1      10.210  -2.416  22.255  0.00  0.00    +0.210 HD
ENDBRANCH  17  18
ENDBRANCH  13  17
ENDBRANCH   1  11
BRANCH   8  20
ATOM     20  C   UNL     1       5.100  -4.356  27.370  0.00  0.00    +0.022 C 
ATOM     21  C   UNL     1       3.953  -5.019  27.174  0.00  0.00    +0.052 C 
ATOM     22 BR   UNL     1       2.405  -4.715  28.151  0.00  0.00    -0.059 Br
ENDBRANCH   8  20
TORSDOF 5
ENDMDL
MODEL 3
REMARK VINA RESULT:      -5.7      3.706      5.426
REMARK  Name = 
REMARK  5 active torsions:
REMARK  status: ('A' for Active; 'I' for Inactive)
REMARK    1  A    between atoms: C3*_2  and  O3*_22
REMARK    2  A    between atoms: C4*_4  and  C5*_20
REMARK    3  A    between atoms: C1*_7  and  N_9
REMARK    4  A    between atoms: C_11  and  C_17
REMARK    5  A    between atoms: C5*_20  and  O5*_21
REMARK                            x       y       z     vdW  Elec       q    Type
REMARK                         _______ _______ _______ _____ _____    ______ ____
ROOT
ATOM      1  N   UNL     1       9.017  -1.123  24.957  0.00  0.00    -0.273 N 
ATOM      2  C   UNL     1       8.702  -1.423  26.274  0.00  0.00    +0.331 A 
ATOM      3  O   UNL     1       8.958  -0.690  27.227  0.00  0.00    -0.246 OA
ATOM      4  N   UNL     1       8.067  -2.616  26.474  0.00  0.00    -0.274 N 
ATOM      5  H   UNL     1       7.794  -2.833  27.420  0.00  0.00    +0.173 HD
ATOM      6  C   UNL     1       7.734  -3.525  25.511  0.00  0.00    +0.261 A 
ATOM      7  O   UNL     1       7.116  -4.549  25.785  0.00  0.00    -0.267 OA
ATOM      8  C   UNL     1       8.167  -3.202  24.118  0.00  0.00    +0.056 A 
ATOM      9  C   UNL     1       8.760  -2.013  23.931  0.00  0.00    +0.106 A 
ENDROOT
BRANCH   1  11
ATOM     10  C2* UNL     1      10.279   0.253  23.312  0.00  0.00    +0.088 C 
ATOM     11  C1* UNL     1       9.705   0.145  24.719  0.00  0.00    +0.226 C 
ATOM     12  O4* UNL     1       8.802   1.252  24.923  0.00  0.00    -0.348 OA
ATOM     13  C4* UNL     1       8.753   2.040  23.715  0.00  0.00    +0.175 C 
ATOM     14  C3* UNL     1       9.264   1.120  22.607  0.00  0.00    +0.150 C 
BRANCH  14  15
ATOM     15  O3* UNL     1       9.789   1.783  21.473  0.00  0.00    -0.389 OA
ATOM     16  H3* UNL     1      10.335   1.145  20.975  0.00  0.00    +0.210 HD
ENDBRANCH  14  15
BRANCH  13  17
ATOM     17  C5* UNL     1       9.545   3.334  23.928  0.00  0.00    +0.190 C 
BRANCH  17  18
ATOM     18  O5* UNL     1       9.177   4.336  22.984  0.00  0.00    -0.392 OA
ATOM     19  H5* UNL     1       9.826   5.059  23.089  0.00  0.00    +0.210 HD
ENDBRANCH  17  18
ENDBRANCH  13  17
ENDBRANCH   1  11
BRANCH   8  20
ATOM     20  C   UNL     1       7.850  -4.131  23.046  0.00  0.00    +0.022 C 
ATOM     21  C   UNL     1       6.640  -4.316  22.502  0.00  0.00    +0.052 C 
ATOM     22 BR   UNL     1       6.297  -5.521  21.133  0.00  0.00    -0.059 Br
ENDBRANCH   8  20
TORSDOF 5
ENDMDL
MODEL 4
REMARK VINA RESULT:      -5.7      4.001      6.994
REMARK  Name = 
REMARK  5 active torsions:
REMARK  status: ('A' for Active; 'I' for Inactive)
REMARK    1  A    between atoms: C3*_2  and  O3*_22
REMARK    2  A    between atoms: C4*_4  and  C5*_20
REMARK    3  A    between atoms: C1*_7  and  N_9
REMARK    4  A    between atoms: C_11  and  C_17
REMARK    5  A    between atoms: C5*_20  and  O5*_21
REMARK                            x       y       z     vdW  Elec       q    Type
REMARK                         _______ _______ _______ _____ _____    ______ ____
ROOT
ATOM      1  N   UNL     1       8.427  -1.632  22.936  0.00  0.00    -0.273 N 
ATOM      2  C   UNL     1       9.807  -1.551  22.815  0.00  0.00    +0.331 A 
ATOM      3  O   UNL     1      10.571  -2.495  23.007  0.00  0.00    -0.246 OA
ATOM      4  N   UNL     1      10.300  -0.329  22.459  0.00  0.00    -0.274 N 
ATOM      5  H   UNL     1      11.297  -0.261  22.327  0.00  0.00    +0.173 HD
ATOM      6  C   UNL     1       9.567   0.801  22.227  0.00  0.00    +0.261 A 
ATOM      7  O   UNL     1      10.100   1.843  21.858  0.00  0.00    -0.267 OA
ATOM      8  C   UNL     1       8.095   0.692  22.450  0.00  0.00    +0.056 A 
ATOM      9  C   UNL     1       7.620  -0.522  22.768  0.00  0.00    +0.106 A 
ENDROOT
BRANCH   1  11
ATOM     10  C2* UNL     1       6.410  -2.854  23.729  0.00  0.00    +0.088 C 
ATOM     11  C1* UNL     1       7.877  -2.929  23.326  0.00  0.00    +0.226 C 
ATOM     12  O4* UNL     1       7.998  -3.872  22.241  0.00  0.00    -0.348 OA
ATOM     13  C4* UNL     1       6.685  -4.378  21.917  0.00  0.00    +0.175 C 
ATOM     14  C3* UNL     1       5.702  -3.363  22.497  0.00  0.00    +0.150 C 
BRANCH  14  15
ATOM     15  O3* UNL     1       4.408  -3.867  22.766  0.00  0.00    -0.389 OA
ATOM     16  H3* UNL     1       3.914  -3.899  21.925  0.00  0.00    +0.210 HD
ENDBRANCH  14  15
BRANCH  13  17
ATOM     17  C5* UNL     1       6.557  -5.811  22.447  0.00  0.00    +0.190 C 
BRANCH  17  18
ATOM     18  O5* UNL     1       5.384  -6.450  21.950  0.00  0.00    -0.392 OA
ATOM     19  H5* UNL     1       5.626  -6.824  21.081  0.00  0.00    +0.210 HD
ENDBRANCH  17  18
ENDBRANCH  13  17
ENDBRANCH   1  11
BRANCH   8  20
ATOM     20  C   UNL     1       7.258   1.859  22.228  0.00  0.00    +0.022 C 
ATOM     21  C   UNL     1       6.911   2.763  23.154  0.00  0.00    +0.052 C 
ATOM     22 BR   UNL     1       5.836   4.236  22.808  0.00  0.00    -0.059 Br
ENDBRANCH   8  20
TORSDOF 5
ENDMDL
MODEL 5
REMARK VINA RESULT:      -5.6      4.024      5.475
REMARK  Name = 
REMARK  5 active torsions:
REMARK  status: ('A' for Active; 'I' for Inactive)
REMARK    1  A    between atoms: C3*_2  and  O3*_22
REMARK    2  A    between atoms: C4*_4  and  C5*_20
REMARK    3  A    between atoms: C1*_7  and  N_9
REMARK    4  A    between atoms: C_11  and  C_17
REMARK    5  A    between atoms: C5*_20  and  O5*_21
REMARK                            x       y       z     vdW  Elec       q    Type
REMARK                         _______ _______ _______ _____ _____    ______ ____
ROOT
ATOM      1  N   UNL     1       9.715  -0.584  23.884  0.00  0.00    -0.273 N 
ATOM      2  C   UNL     1      10.001  -1.825  23.333  0.00  0.00    +0.331 A 
ATOM      3  O   UNL     1      10.764  -1.998  22.385  0.00  0.00    -0.246 OA
ATOM      4  N   UNL     1       9.375  -2.890  23.915  0.00  0.00    -0.274 N 
ATOM      5  H   UNL     1       9.602  -3.804  23.554  0.00  0.00    +0.173 HD
ATOM      6  C   UNL     1       8.500  -2.839  24.963  0.00  0.00    +0.261 A 
ATOM      7  O   UNL     1       8.027  -3.860  25.451  0.00  0.00    -0.267 OA
ATOM      8  C   UNL     1       8.154  -1.477  25.470  0.00  0.00    +0.056 A 
ATOM      9  C   UNL     1       8.801  -0.443  24.912  0.00  0.00    +0.106 A 
ENDROOT
BRANCH   1  11
ATOM     10  C2* UNL     1       9.520   1.225  22.186  0.00  0.00    +0.088 C 
ATOM     11  C1* UNL     1      10.367   0.572  23.272  0.00  0.00    +0.226 C 
ATOM     12  O4* UNL     1      10.663   1.569  24.272  0.00  0.00    -0.348 OA
ATOM     13  C4* UNL     1      10.028   2.809  23.893  0.00  0.00    +0.175 C 
ATOM     14  C3* UNL     1       8.937   2.422  22.897  0.00  0.00    +0.150 C 
BRANCH  14  15
ATOM     15  O3* UNL     1       8.536   3.453  22.016  0.00  0.00    -0.389 OA
ATOM     16  H3* UNL     1       9.157   4.198  22.119  0.00  0.00    +0.210 HD
ENDBRANCH  14  15
BRANCH  13  17
ATOM     17  C5* UNL     1      11.096   3.778  23.372  0.00  0.00    +0.190 C 
BRANCH  17  18
ATOM     18  O5* UNL     1      10.586   5.104  23.252  0.00  0.00    -0.392 OA
ATOM     19  H5* UNL     1      11.300   5.633  22.846  0.00  0.00    +0.210 HD
ENDBRANCH  17  18
ENDBRANCH  13  17
ENDBRANCH   1  11
BRANCH   8  20
ATOM     20  C   UNL     1       7.224  -1.351  26.579  0.00  0.00    +0.022 C 
ATOM     21  C   UNL     1       5.908  -1.124  26.476  0.00  0.00    +0.052 C 
ATOM     22 BR   UNL     1       4.769  -0.972  27.934  0.00  0.00    -0.059 Br
ENDBRANCH   8  20
TORSDOF 5
ENDMDL
MODEL 6
REMARK VINA RESULT:      -5.4      3.598      6.586
REMARK  Name = 
REMARK  5 active torsions:
REMARK  status: ('A' for Active; 'I' for Inactive)
REMARK    1  A    between atoms: C3*_2  and  O3*_22
REMARK    2  A    between atoms: C4*_4  and  C5*_20
REMARK    3  A    between atoms: C1*_7  and  N_9
REMARK    4  A    between atoms: C_11  and  C_17
REMARK    5  A    between atoms: C5*_20  and  O5*_21
REMARK                            x       y       z     vdW  Elec       q    Type
REMARK                         _______ _______ _______ _____ _____    ______ ____
ROOT
ATOM      1  N   UNL     1       8.895  -1.753  24.124  0.00  0.00    -0.273 N 
ATOM      2  C   UNL     1      10.036  -1.472  23.386  0.00  0.00    +0.331 A 
ATOM      3  O   UNL     1      10.673  -2.314  22.756  0.00  0.00    -0.246 OA
ATOM      4  N   UNL     1      10.437  -0.167  23.390  0.00  0.00    -0.274 N 
ATOM      5  H   UNL     1      11.241   0.064  22.827  0.00  0.00    +0.173 HD
ATOM      6  C   UNL     1       9.830   0.863  24.052  0.00  0.00    +0.261 A 
ATOM      7  O   UNL     1      10.237   2.016  23.950  0.00  0.00    -0.267 OA
ATOM      8  C   UNL     1       8.656   0.503  24.901  0.00  0.00    +0.056 A 
ATOM      9  C   UNL     1       8.253  -0.776  24.863  0.00  0.00    +0.106 A 
ENDROOT
BRANCH   1  11
ATOM     10  C2* UNL     1       9.262  -4.013  25.097  0.00  0.00    +0.088 C 
ATOM     11  C1* UNL     1       8.452  -3.146  24.142  0.00  0.00    +0.226 C 
ATOM     12  O4* UNL     1       7.064  -3.225  24.530  0.00  0.00    -0.348 OA
ATOM     13  C4* UNL     1       6.955  -4.074  25.693  0.00  0.00    +0.175 C 
ATOM     14  C3* UNL     1       8.356  -4.117  26.300  0.00  0.00    +0.150 C 
BRANCH  14  15
ATOM     15  O3* UNL     1       8.627  -5.248  27.105  0.00  0.00    -0.389 OA
ATOM     16  H3* UNL     1       7.845  -5.832  27.080  0.00  0.00    +0.210 HD
ENDBRANCH  14  15
BRANCH  13  17
ATOM     17  C5* UNL     1       6.367  -5.426  25.272  0.00  0.00    +0.190 C 
BRANCH  17  18
ATOM     18  O5* UNL     1       6.078  -6.245  26.402  0.00  0.00    -0.392 OA
ATOM     19  H5* UNL     1       6.839  -6.851  26.500  0.00  0.00    +0.210 HD
ENDBRANCH  17  18
ENDBRANCH  13  17
ENDBRANCH   1  11
BRANCH   8  20
ATOM     20  C   UNL     1       7.968   1.550  25.638  0.00  0.00    +0.022 C 
ATOM     21  C   UNL     1       7.214   1.374  26.730  0.00  0.00    +0.052 C 
ATOM     22 BR   UNL     1       6.359   2.755  27.628  0.00  0.00    -0.059 Br
ENDBRANCH   8  20
TORSDOF 5
ENDMDL
MODEL 7
REMARK VINA RESULT:      -5.4      3.364      6.458
REMARK  Name = 
REMARK  5 active torsions:
REMARK  status: ('A' for Active; 'I' for Inactive)
REMARK    1  A    between atoms: C3*_2  and  O3*_22
REMARK    2  A    between atoms: C4*_4  and  C5*_20
REMARK    3  A    between atoms: C1*_7  and  N_9
REMARK    4  A    between atoms: C_11  and  C_17
REMARK    5  A    between atoms: C5*_20  and  O5*_21
REMARK                            x       y       z     vdW  Elec       q    Type
REMARK                         _______ _______ _______ _____ _____    ______ ____
ROOT
ATOM      1  N   UNL     1       7.678  -3.076  24.076  0.00  0.00    -0.273 N 
ATOM      2  C   UNL     1       9.003  -3.471  24.194  0.00  0.00    +0.331 A 
ATOM      3  O   UNL     1       9.364  -4.519  24.727  0.00  0.00    -0.246 OA
ATOM      4  N   UNL     1       9.926  -2.611  23.671  0.00  0.00    -0.274 N 
ATOM      5  H   UNL     1      10.891  -2.900  23.712  0.00  0.00    +0.173 HD
ATOM      6  C   UNL     1       9.663  -1.416  23.064  0.00  0.00    +0.261 A 
ATOM      7  O   UNL     1      10.561  -0.736  22.577  0.00  0.00    -0.267 OA
ATOM      8  C   UNL     1       8.232  -0.990  23.033  0.00  0.00    +0.056 A 
ATOM      9  C   UNL     1       7.333  -1.858  23.521  0.00  0.00    +0.106 A 
ENDROOT
BRANCH   1  11
ATOM     10  C2* UNL     1       5.246  -3.549  24.312  0.00  0.00    +0.088 C 
ATOM     11  C1* UNL     1       6.672  -3.976  24.637  0.00  0.00    +0.226 C 
ATOM     12  O4* UNL     1       6.865  -5.317  24.139  0.00  0.00    -0.348 OA
ATOM     13  C4* UNL     1       5.649  -5.752  23.494  0.00  0.00    +0.175 C 
ATOM     14  C3* UNL     1       4.875  -4.473  23.178  0.00  0.00    +0.150 C 
BRANCH  14  15
ATOM     15  O3* UNL     1       3.478  -4.639  23.029  0.00  0.00    -0.389 OA
ATOM     16  H3* UNL     1       3.100  -3.785  22.748  0.00  0.00    +0.210 HD
ENDBRANCH  14  15
BRANCH  13  17
ATOM     17  C5* UNL     1       4.933  -6.759  24.401  0.00  0.00    +0.190 C 
BRANCH  17  18
ATOM     18  O5* UNL     1       3.959  -7.511  23.683  0.00  0.00    -0.392 OA
ATOM     19  H5* UNL     1       3.311  -7.819  24.346  0.00  0.00    +0.210 HD
ENDBRANCH  17  18
ENDBRANCH  13  17
ENDBRANCH   1  11
BRANCH   8  20
ATOM     20  C   UNL     1       7.885   0.276  22.408  0.00  0.00    +0.022 C 
ATOM     21  C   UNL     1       7.430   1.364  23.042  0.00  0.00    +0.052 C 
ATOM     22 BR   UNL     1       7.002   2.954  22.186  0.00  0.00    -0.059 Br
ENDBRANCH   8  20
TORSDOF 5
ENDMDL
MODEL 8
REMARK VINA RESULT:      -5.3      2.773      3.577
REMARK  Name = 
REMARK  5 active torsions:
REMARK  status: ('A' for Active; 'I' for Inactive)
REMARK    1  A    between atoms: C3*_2  and  O3*_22
REMARK    2  A    between atoms: C4*_4  and  C5*_20
REMARK    3  A    between atoms: C1*_7  and  N_9
REMARK    4  A    between atoms: C_11  and  C_17
REMARK    5  A    between atoms: C5*_20  and  O5*_21
REMARK                            x       y       z     vdW  Elec       q    Type
REMARK                         _______ _______ _______ _____ _____    ______ ____
ROOT
ATOM      1  N   UNL     1       8.564  -3.035  24.679  0.00  0.00    -0.273 N 
ATOM      2  C   UNL     1       9.053  -4.314  24.907  0.00  0.00    +0.331 A 
ATOM      3  O   UNL     1      10.233  -4.632  24.773  0.00  0.00    -0.246 OA
ATOM      4  N   UNL     1       8.131  -5.239  25.303  0.00  0.00    -0.274 N 
ATOM      5  H   UNL     1       8.475  -6.164  25.512  0.00  0.00    +0.173 HD
ATOM      6  C   UNL     1       6.794  -5.023  25.481  0.00  0.00    +0.261 A 
ATOM      7  O   UNL     1       6.052  -5.910  25.892  0.00  0.00    -0.267 OA
ATOM      8  C   UNL     1       6.295  -3.656  25.144  0.00  0.00    +0.056 A 
ATOM      9  C   UNL     1       7.215  -2.748  24.787  0.00  0.00    +0.106 A 
ENDROOT
BRANCH   1  11
ATOM     10  C2* UNL     1       9.855  -2.121  22.759  0.00  0.00    +0.088 C 
ATOM     11  C1* UNL     1       9.531  -2.029  24.245  0.00  0.00    +0.226 C 
ATOM     12  O4* UNL     1       9.031  -0.703  24.515  0.00  0.00    -0.348 OA
ATOM     13  C4* UNL     1       8.996   0.041  23.279  0.00  0.00    +0.175 C 
ATOM     14  C3* UNL     1       9.022  -1.009  22.169  0.00  0.00    +0.150 C 
BRANCH  14  15
ATOM     15  O3* UNL     1       9.505  -0.551  20.922  0.00  0.00    -0.389 OA
ATOM     16  H3* UNL     1      10.466  -0.715  20.890  0.00  0.00    +0.210 HD
ENDBRANCH  14  15
BRANCH  13  17
ATOM     17  C5* UNL     1      10.149   1.051  23.270  0.00  0.00    +0.190 C 
BRANCH  17  18
ATOM     18  O5* UNL     1      10.169   1.813  22.066  0.00  0.00    -0.392 OA
ATOM     19  H5* UNL     1      10.891   2.463  22.168  0.00  0.00    +0.210 HD
ENDBRANCH  17  18
ENDBRANCH  13  17
ENDBRANCH   1  11
BRANCH   8  20
ATOM     20  C   UNL     1       4.881  -3.361  25.304  0.00  0.00    +0.022 C 
ATOM     21  C   UNL     1       4.289  -2.948  26.433  0.00  0.00    +0.052 C 
ATOM     22 BR   UNL     1       2.474  -2.588  26.574  0.00  0.00    -0.059 Br
ENDBRANCH   8  20
TORSDOF 5
ENDMDL
MODEL 9
REMARK VINA RESULT:      -5.3      3.242      6.271
REMARK  Name = 
REMARK  5 active torsions:
REMARK  status: ('A' for Active; 'I' for Inactive)
REMARK    1  A    between atoms: C3*_2  and  O3*_22
REMARK    2  A    between atoms: C4*_4  and  C5*_20
REMARK    3  A    between atoms: C1*_7  and  N_9
REMARK    4  A    between atoms: C_11  and  C_17
REMARK    5  A    between atoms: C5*_20  and  O5*_21
REMARK                            x       y       z     vdW  Elec       q    Type
REMARK                         _______ _______ _______ _____ _____    ______ ____
ROOT
ATOM      1  N   UNL     1       7.946  -3.303  24.377  0.00  0.00    -0.273 N 
ATOM      2  C   UNL     1       9.319  -3.147  24.246  0.00  0.00    +0.331 A 
ATOM      3  O   UNL     1      10.130  -4.064  24.361  0.00  0.00    -0.246 OA
ATOM      4  N   UNL     1       9.747  -1.879  23.973  0.00  0.00    -0.274 N 
ATOM      5  H   UNL     1      10.738  -1.754  23.835  0.00  0.00    +0.173 HD
ATOM      6  C   UNL     1       8.958  -0.773  23.831  0.00  0.00    +0.261 A 
ATOM      7  O   UNL     1       9.435   0.318  23.532  0.00  0.00    -0.267 OA
ATOM      8  C   UNL     1       7.496  -0.969  24.063  0.00  0.00    +0.056 A 
ATOM      9  C   UNL     1       7.085  -2.224  24.299  0.00  0.00    +0.106 A 
ENDROOT
BRANCH   1  11
ATOM     10  C2* UNL     1       8.204  -5.296  25.844  0.00  0.00    +0.088 C 
ATOM     11  C1* UNL     1       7.465  -4.650  24.680  0.00  0.00    +0.226 C 
ATOM     12  O4* UNL     1       6.058  -4.619  25.000  0.00  0.00    -0.348 OA
ATOM     13  C4* UNL     1       5.869  -5.187  26.314  0.00  0.00    +0.175 C 
ATOM     14  C3* UNL     1       7.238  -5.116  26.990  0.00  0.00    +0.150 C 
BRANCH  14  15
ATOM     15  O3* UNL     1       7.437  -6.044  28.038  0.00  0.00    -0.389 OA
ATOM     16  H3* UNL     1       7.227  -5.599  28.881  0.00  0.00    +0.210 HD
ENDBRANCH  14  15
BRANCH  13  17
ATOM     17  C5* UNL     1       5.266  -6.589  26.172  0.00  0.00    +0.190 C 
BRANCH  17  18
ATOM     18  O5* UNL     1       5.068  -7.205  27.441  0.00  0.00    -0.392 OA
ATOM     19  H5* UNL     1       5.065  -8.169  27.277  0.00  0.00    +0.210 HD
ENDBRANCH  17  18
ENDBRANCH  13  17
ENDBRANCH   1  11
BRANCH   8  20
ATOM     20  C   UNL     1       6.601   0.169  23.935  0.00  0.00    +0.022 C 
ATOM     21  C   UNL     1       6.034   0.838  24.947  0.00  0.00    +0.052 C 
ATOM     22 BR   UNL     1       4.897   2.287  24.718  0.00  0.00    -0.059 Br
ENDBRANCH   8  20
TORSDOF 5
ENDMDL
