MODEL 1
REMARK VINA RESULT:      -7.6      0.000      0.000
REMARK  Name = 
REMARK  17 active torsions:
REMARK  status: ('A' for Active; 'I' for Inactive)
REMARK    1  A    between atoms: C_1  and  C_2
REMARK    2  A    between atoms: C_2  and  C_3
REMARK    3  A    between atoms: C_2  and  C_4
REMARK    4  A    between atoms: C_2  and  N_5
REMARK    5  A    between atoms: C_6  and  C_8
REMARK    6  A    between atoms: N_20  and  C_21
REMARK    7  A    between atoms: C_21  and  C_22
REMARK    8  A    between atoms: C_22  and  C_24
REMARK    9  A    between atoms: C_22  and  O_54
REMARK   10  A    between atoms: C_24  and  C_26
REMARK   11  A    between atoms: C_24  and  N_33
REMARK   12  A    between atoms: C_26  and  C_27
REMARK   13  A    between atoms: C_34  and  C_36
REMARK   14  A    between atoms: C_36  and  C_37
REMARK   15  A    between atoms: C_36  and  N_41
REMARK   16  A    between atoms: C_37  and  C_38
REMARK   17  A    between atoms: C_42  and  C_44
REMARK                            x       y       z     vdW  Elec       q    Type
REMARK                         _______ _______ _______ _____ _____    ______ ____
ROOT
ATOM      1  C   UNL     1       5.621  -1.686  25.674  0.00  0.00    +0.107 C 
ENDROOT
BRANCH   1   2
ATOM      2  N   UNL     1       6.606  -2.582  25.038  0.00  0.00    -0.308 N 
ATOM      3  H   UNL     1       7.322  -3.005  25.619  0.00  0.00    +0.149 HD
ATOM      4  C   UNL     1       6.652  -2.823  23.692  0.00  0.00    +0.234 C 
ATOM      5  O   UNL     1       6.001  -2.168  22.866  0.00  0.00    -0.274 OA
BRANCH   4   6
ATOM      6  C   UNL     1       7.571  -3.986  23.268  0.00  0.00    +0.168 C 
BRANCH   6   7
ATOM      7  N   UNL     1       7.006  -4.607  22.062  0.00  0.00    -0.298 N 
ATOM      8  H   UNL     1       7.674  -4.785  21.317  0.00  0.00    +0.150 HD
ATOM      9  C   UNL     1       5.899  -5.420  21.891  0.00  0.00    +0.263 C 
ATOM     10  O   UNL     1       5.778  -5.948  20.785  0.00  0.00    -0.269 OA
BRANCH   9  11
ATOM     11  C   UNL     1       4.853  -5.699  22.945  0.00  0.00    +0.126 A 
ATOM     12  C   UNL     1       5.042  -6.818  23.766  0.00  0.00    +0.033 A 
ATOM     13  C   UNL     1       4.120  -7.097  24.770  0.00  0.00    +0.012 A 
ATOM     14  C   UNL     1       3.002  -6.282  24.917  0.00  0.00    +0.000 A 
ATOM     15  C   UNL     1       2.842  -5.218  24.004  0.00  0.00    +0.072 A 
ATOM     16  C   UNL     1       1.661  -4.501  24.080  0.00  0.00    +0.028 A 
ATOM     17  C   UNL     1       0.693  -4.755  25.066  0.00  0.00    +0.002 A 
ATOM     18  C   UNL     1       0.902  -5.741  26.016  0.00  0.00    +0.001 A 
ATOM     19  C   UNL     1       2.049  -6.525  25.928  0.00  0.00    +0.010 A 
ATOM     20  N   UNL     1       3.762  -4.899  23.061  0.00  0.00    -0.242 NA
ENDBRANCH   9  11
ENDBRANCH   6   7
BRANCH   6  21
ATOM     21  C   UNL     1       7.555  -4.906  24.502  0.00  0.00    +0.127 C 
BRANCH  21  22
ATOM     22  C   UNL     1       8.833  -5.109  25.261  0.00  0.00    +0.213 C 
ATOM     23  N   UNL     1       8.722  -5.334  26.597  0.00  0.00    -0.329 N 
ATOM     24  H   UNL     1       9.573  -5.385  27.140  0.00  0.00    +0.145 HD
ATOM     25  H   UNL     1       7.834  -5.503  27.057  0.00  0.00    +0.145 HD
ATOM     26  O   UNL     1       9.939  -4.960  24.751  0.00  0.00    -0.276 OA
ENDBRANCH  21  22
ENDBRANCH   6  21
ENDBRANCH   4   6
ENDBRANCH   1   2
BRANCH   1  27
ATOM     27  C   UNL     1       6.125  -1.111  27.037  0.00  0.00    +0.149 C 
BRANCH  27  28
ATOM     28  O   UNL     1       5.203  -0.126  27.525  0.00  0.00    -0.389 OA
ATOM     29  H   UNL     1       4.552  -0.007  26.807  0.00  0.00    +0.210 HD
ENDBRANCH  27  28
BRANCH  27  30
ATOM     30  C   UNL     1       7.538  -0.471  26.938  0.00  0.00    +0.118 C 
BRANCH  30  32
ATOM     31  C   UNL     1       7.969   1.560  25.598  0.00  0.00    +0.143 C 
ATOM     32  N   UNL     1       7.965   0.069  25.606  0.00  0.00    -0.289 NA
ATOM     33  C   UNL     1       9.274  -0.527  25.280  0.00  0.00    +0.089 C 
ATOM     34  C   UNL     1       9.875  -0.029  23.960  0.00  0.00    +0.006 C 
ATOM     35  C   UNL     1      10.157   1.473  24.074  0.00  0.00    -0.005 C 
ATOM     36  C   UNL     1      10.491   2.110  22.720  0.00  0.00    +0.004 C 
ATOM     37  C   UNL     1       9.443   1.779  21.669  0.00  0.00    +0.000 C 
ATOM     38  C   UNL     1       9.368   0.280  21.446  0.00  0.00    +0.000 C 
ATOM     39  C   UNL     1       9.070  -0.487  22.730  0.00  0.00    +0.005 C 
ATOM     40  C   UNL     1       9.101   2.289  24.840  0.00  0.00    +0.032 C 
BRANCH  31  43
ATOM     41  N   UNL     1       6.807   3.008  23.984  0.00  0.00    -0.309 N 
ATOM     42  H   UNL     1       7.774   3.113  23.697  0.00  0.00    +0.149 HD
ATOM     43  C   UNL     1       6.631   2.080  24.985  0.00  0.00    +0.231 C 
ATOM     44  O   UNL     1       5.534   1.765  25.438  0.00  0.00    -0.274 OA
BRANCH  41  46
ATOM     45  C   UNL     1       5.134   4.752  24.505  0.00  0.00    +0.031 C 
ATOM     46  C   UNL     1       5.788   3.895  23.410  0.00  0.00    +0.026 C 
ATOM     47  C   UNL     1       6.486   4.820  22.395  0.00  0.00    +0.031 C 
ATOM     48  C   UNL     1       4.706   3.102  22.666  0.00  0.00    +0.031 C 
ENDBRANCH  41  46
ENDBRANCH  31  43
ENDBRANCH  30  32
ENDBRANCH  27  30
ENDBRANCH   1  27
BRANCH   1  49
ATOM     49  C   UNL     1       4.264  -2.418  25.803  0.00  0.00    +0.060 C 
BRANCH  49  50
ATOM     50  C   UNL     1       4.142  -3.403  26.953  0.00  0.00    -0.046 A 
ATOM     51  C   UNL     1       5.061  -4.440  27.153  0.00  0.00    +0.004 A 
ATOM     52  C   UNL     1       4.897  -5.345  28.214  0.00  0.00    +0.000 A 
ATOM     53  C   UNL     1       3.818  -5.217  29.085  0.00  0.00    +0.000 A 
ATOM     54  C   UNL     1       2.887  -4.216  28.871  0.00  0.00    +0.000 A 
ATOM     55  C   UNL     1       3.036  -3.331  27.801  0.00  0.00    +0.004 A 
ENDBRANCH  49  50
ENDBRANCH   1  49
TORSDOF 14
ENDMDL
MODEL 2
REMARK VINA RESULT:      -7.1      2.458      4.737
REMARK  Name = 
REMARK  17 active torsions:
REMARK  status: ('A' for Active; 'I' for Inactive)
REMARK    1  A    between atoms: C_1  and  C_2
REMARK    2  A    between atoms: C_2  and  C_3
REMARK    3  A    between atoms: C_2  and  C_4
REMARK    4  A    between atoms: C_2  and  N_5
REMARK    5  A    between atoms: C_6  and  C_8
REMARK    6  A    between atoms: N_20  and  C_21
REMARK    7  A    between atoms: C_21  and  C_22
REMARK    8  A    between atoms: C_22  and  C_24
REMARK    9  A    between atoms: C_22  and  O_54
REMARK   10  A    between atoms: C_24  and  C_26
REMARK   11  A    between atoms: C_24  and  N_33
REMARK   12  A    between atoms: C_26  and  C_27
REMARK   13  A    between atoms: C_34  and  C_36
REMARK   14  A    between atoms: C_36  and  C_37
REMARK   15  A    between atoms: C_36  and  N_41
REMARK   16  A    between atoms: C_37  and  C_38
REMARK   17  A    between atoms: C_42  and  C_44
REMARK                            x       y       z     vdW  Elec       q    Type
REMARK                         _______ _______ _______ _____ _____    ______ ____
ROOT
ATOM      1  C   UNL     1       6.996  -4.541  26.029  0.00  0.00    +0.107 C 
ENDROOT
BRANCH   1   2
ATOM      2  N   UNL     1       6.352  -4.371  27.346  0.00  0.00    -0.308 N 
ATOM      3  H   UNL     1       5.954  -3.466  27.577  0.00  0.00    +0.149 HD
ATOM      4  C   UNL     1       6.321  -5.345  28.305  0.00  0.00    +0.234 C 
ATOM      5  O   UNL     1       6.991  -6.384  28.235  0.00  0.00    -0.274 OA
BRANCH   4   6
ATOM      6  C   UNL     1       5.376  -5.064  29.490  0.00  0.00    +0.168 C 
BRANCH   6   7
ATOM      7  N   UNL     1       4.650  -6.301  29.808  0.00  0.00    -0.298 N 
ATOM      8  H   UNL     1       4.671  -6.574  30.787  0.00  0.00    +0.150 HD
ATOM      9  C   UNL     1       3.573  -6.910  29.186  0.00  0.00    +0.263 C 
ATOM     10  O   UNL     1       3.055  -7.848  29.791  0.00  0.00    -0.269 OA
BRANCH   9  11
ATOM     11  C   UNL     1       3.004  -6.510  27.845  0.00  0.00    +0.126 A 
ATOM     12  C   UNL     1       1.741  -5.904  27.830  0.00  0.00    +0.033 A 
ATOM     13  C   UNL     1       1.190  -5.493  26.621  0.00  0.00    +0.012 A 
ATOM     14  C   UNL     1       1.886  -5.726  25.438  0.00  0.00    +0.000 A 
ATOM     15  C   UNL     1       3.117  -6.410  25.526  0.00  0.00    +0.072 A 
ATOM     16  C   UNL     1       3.730  -6.751  24.333  0.00  0.00    +0.028 A 
ATOM     17  C   UNL     1       3.205  -6.371  23.087  0.00  0.00    +0.002 A 
ATOM     18  C   UNL     1       2.043  -5.619  23.015  0.00  0.00    +0.001 A 
ATOM     19  C   UNL     1       1.367  -5.316  24.193  0.00  0.00    +0.010 A 
ATOM     20  N   UNL     1       3.694  -6.761  26.702  0.00  0.00    -0.242 NA
ENDBRANCH   9  11
ENDBRANCH   6   7
BRANCH   6  21
ATOM     21  C   UNL     1       4.473  -3.939  28.953  0.00  0.00    +0.127 C 
BRANCH  21  22
ATOM     22  C   UNL     1       3.525  -3.265  29.900  0.00  0.00    +0.213 C 
ATOM     23  N   UNL     1       3.784  -1.965  30.203  0.00  0.00    -0.329 N 
ATOM     24  H   UNL     1       3.210  -1.521  30.907  0.00  0.00    +0.145 HD
ATOM     25  H   UNL     1       4.486  -1.415  29.722  0.00  0.00    +0.145 HD
ATOM     26  O   UNL     1       2.630  -3.867  30.483  0.00  0.00    -0.276 OA
ENDBRANCH  21  22
ENDBRANCH   6  21
ENDBRANCH   4   6
ENDBRANCH   1   2
BRANCH   1  27
ATOM     27  C   UNL     1       8.494  -4.098  26.030  0.00  0.00    +0.149 C 
BRANCH  27  28
ATOM     28  O   UNL     1       9.241  -4.894  26.961  0.00  0.00    -0.389 OA
ATOM     29  H   UNL     1       8.598  -5.532  27.326  0.00  0.00    +0.210 HD
ENDBRANCH  27  28
BRANCH  27  30
ATOM     30  C   UNL     1       8.680  -2.597  26.391  0.00  0.00    +0.118 C 
BRANCH  30  32
ATOM     31  C   UNL     1       9.085  -0.245  25.748  0.00  0.00    +0.143 C 
ATOM     32  N   UNL     1       8.752  -1.615  25.261  0.00  0.00    -0.289 NA
ATOM     33  C   UNL     1       9.711  -2.139  24.271  0.00  0.00    +0.089 C 
ATOM     34  C   UNL     1       9.936  -1.214  23.070  0.00  0.00    +0.006 C 
ATOM     35  C   UNL     1      10.568   0.094  23.557  0.00  0.00    -0.005 C 
ATOM     36  C   UNL     1      10.569   1.182  22.477  0.00  0.00    +0.004 C 
ATOM     37  C   UNL     1       9.186   1.376  21.874  0.00  0.00    +0.000 C 
ATOM     38  C   UNL     1       8.709   0.097  21.213  0.00  0.00    +0.000 C 
ATOM     39  C   UNL     1       8.690  -1.086  22.176  0.00  0.00    +0.005 C 
ATOM     40  C   UNL     1      10.035   0.627  24.898  0.00  0.00    +0.032 C 
BRANCH  31  43
ATOM     41  N   UNL     1       7.287   1.094  24.738  0.00  0.00    -0.309 N 
ATOM     42  H   UNL     1       7.771   0.747  23.917  0.00  0.00    +0.149 HD
ATOM     43  C   UNL     1       7.772   0.580  25.919  0.00  0.00    +0.231 C 
ATOM     44  O   UNL     1       7.290   0.831  27.019  0.00  0.00    -0.274 OA
BRANCH  41  46
ATOM     45  C   UNL     1       6.752   3.471  25.158  0.00  0.00    +0.031 C 
ATOM     46  C   UNL     1       6.263   2.134  24.579  0.00  0.00    +0.026 C 
ATOM     47  C   UNL     1       5.995   2.305  23.071  0.00  0.00    +0.031 C 
ATOM     48  C   UNL     1       4.945   1.734  25.255  0.00  0.00    +0.031 C 
ENDBRANCH  41  46
ENDBRANCH  31  43
ENDBRANCH  30  32
ENDBRANCH  27  30
ENDBRANCH   1  27
BRANCH   1  49
ATOM     49  C   UNL     1       6.161  -3.815  24.948  0.00  0.00    +0.060 C 
BRANCH  49  50
ATOM     50  C   UNL     1       6.258  -4.375  23.540  0.00  0.00    -0.046 A 
ATOM     51  C   UNL     1       6.953  -5.555  23.247  0.00  0.00    +0.004 A 
ATOM     52  C   UNL     1       7.039  -6.025  21.927  0.00  0.00    +0.000 A 
ATOM     53  C   UNL     1       6.427  -5.324  20.891  0.00  0.00    +0.000 A 
ATOM     54  C   UNL     1       5.769  -4.139  21.169  0.00  0.00    +0.000 A 
ATOM     55  C   UNL     1       5.705  -3.658  22.478  0.00  0.00    +0.004 A 
ENDBRANCH  49  50
ENDBRANCH   1  49
TORSDOF 14
ENDMDL
MODEL 3
REMARK VINA RESULT:      -6.9      2.236      4.388
REMARK  Name = 
REMARK  17 active torsions:
REMARK  status: ('A' for Active; 'I' for Inactive)
REMARK    1  A    between atoms: C_1  and  C_2
REMARK    2  A    between atoms: C_2  and  C_3
REMARK    3  A    between atoms: C_2  and  C_4
REMARK    4  A    between atoms: C_2  and  N_5
REMARK    5  A    between atoms: C_6  and  C_8
REMARK    6  A    between atoms: N_20  and  C_21
REMARK    7  A    between atoms: C_21  and  C_22
REMARK    8  A    between atoms: C_22  and  C_24
REMARK    9  A    between atoms: C_22  and  O_54
REMARK   10  A    between atoms: C_24  and  C_26
REMARK   11  A    between atoms: C_24  and  N_33
REMARK   12  A    between atoms: C_26  and  C_27
REMARK   13  A    between atoms: C_34  and  C_36
REMARK   14  A    between atoms: C_36  and  C_37
REMARK   15  A    between atoms: C_36  and  N_41
REMARK   16  A    between atoms: C_37  and  C_38
REMARK   17  A    between atoms: C_42  and  C_44
REMARK                            x       y       z     vdW  Elec       q    Type
REMARK                         _______ _______ _______ _____ _____    ______ ____
ROOT
ATOM      1  C   UNL     1       7.029  -0.292  25.519  0.00  0.00    +0.107 C 
ENDROOT
BRANCH   1   2
ATOM      2  N   UNL     1       7.941  -0.761  24.458  0.00  0.00    -0.308 N 
ATOM      3  H   UNL     1       8.911  -0.938  24.696  0.00  0.00    +0.149 HD
ATOM      4  C   UNL     1       7.570  -0.904  23.149  0.00  0.00    +0.234 C 
ATOM      5  O   UNL     1       6.499  -0.474  22.700  0.00  0.00    -0.274 OA
BRANCH   4   6
ATOM      6  C   UNL     1       8.582  -1.656  22.262  0.00  0.00    +0.168 C 
BRANCH   6   7
ATOM      7  N   UNL     1       9.513  -2.384  23.135  0.00  0.00    -0.298 N 
ATOM      8  H   UNL     1      10.310  -1.843  23.461  0.00  0.00    +0.150 HD
ATOM      9  C   UNL     1       9.314  -3.463  23.979  0.00  0.00    +0.263 C 
ATOM     10  O   UNL     1      10.245  -3.742  24.733  0.00  0.00    -0.269 OA
BRANCH   9  11
ATOM     11  C   UNL     1       8.059  -4.301  24.037  0.00  0.00    +0.126 A 
ATOM     12  C   UNL     1       7.386  -4.545  22.833  0.00  0.00    +0.033 A 
ATOM     13  C   UNL     1       6.241  -5.337  22.834  0.00  0.00    +0.012 A 
ATOM     14  C   UNL     1       5.760  -5.841  24.038  0.00  0.00    +0.000 A 
ATOM     15  C   UNL     1       6.449  -5.489  25.218  0.00  0.00    +0.072 A 
ATOM     16  C   UNL     1       5.882  -5.888  26.415  0.00  0.00    +0.028 A 
ATOM     17  C   UNL     1       4.720  -6.675  26.469  0.00  0.00    +0.002 A 
ATOM     18  C   UNL     1       4.103  -7.093  25.301  0.00  0.00    +0.001 A 
ATOM     19  C   UNL     1       4.609  -6.656  24.081  0.00  0.00    +0.010 A 
ATOM     20  N   UNL     1       7.598  -4.771  25.225  0.00  0.00    -0.242 NA
ENDBRANCH   9  11
ENDBRANCH   6   7
BRANCH   6  21
ATOM     21  C   UNL     1       9.246  -0.523  21.457  0.00  0.00    +0.127 C 
BRANCH  21  22
ATOM     22  C   UNL     1       9.944   0.573  22.205  0.00  0.00    +0.213 C 
ATOM     23  N   UNL     1       9.912   1.812  21.645  0.00  0.00    -0.329 N 
ATOM     24  H   UNL     1      10.450   2.544  22.087  0.00  0.00    +0.145 HD
ATOM     25  H   UNL     1       9.336   2.041  20.843  0.00  0.00    +0.145 HD
ATOM     26  O   UNL     1      10.622   0.368  23.206  0.00  0.00    -0.276 OA
ENDBRANCH  21  22
ENDBRANCH   6  21
ENDBRANCH   4   6
ENDBRANCH   1   2
BRANCH   1  27
ATOM     27  C   UNL     1       7.538   1.011  26.216  0.00  0.00    +0.149 C 
BRANCH  27  28
ATOM     28  O   UNL     1       6.427   1.753  26.739  0.00  0.00    -0.389 OA
ATOM     29  H   UNL     1       5.820   1.874  25.983  0.00  0.00    +0.210 HD
ENDBRANCH  27  28
BRANCH  27  30
ATOM     30  C   UNL     1       8.350   1.930  25.261  0.00  0.00    +0.118 C 
BRANCH  30  32
ATOM     31  C   UNL     1       8.537   4.357  24.831  0.00  0.00    +0.143 C 
ATOM     32  N   UNL     1       7.667   3.151  24.722  0.00  0.00    -0.289 NA
ATOM     33  C   UNL     1       7.240   2.852  23.342  0.00  0.00    +0.089 C 
ATOM     34  C   UNL     1       6.566   4.029  22.629  0.00  0.00    +0.006 C 
ATOM     35  C   UNL     1       7.579   5.169  22.477  0.00  0.00    -0.005 C 
ATOM     36  C   UNL     1       6.922   6.481  22.033  0.00  0.00    +0.004 C 
ATOM     37  C   UNL     1       5.742   6.847  22.922  0.00  0.00    +0.000 C 
ATOM     38  C   UNL     1       4.673   5.773  22.856  0.00  0.00    +0.000 C 
ATOM     39  C   UNL     1       5.204   4.397  23.245  0.00  0.00    +0.005 C 
ATOM     40  C   UNL     1       8.520   5.382  23.675  0.00  0.00    +0.032 C 
BRANCH  31  43
ATOM     41  N   UNL     1       6.916   4.854  26.612  0.00  0.00    -0.309 N 
ATOM     42  H   UNL     1       6.476   4.066  26.147  0.00  0.00    +0.149 HD
ATOM     43  C   UNL     1       8.167   5.151  26.122  0.00  0.00    +0.231 C 
ATOM     44  O   UNL     1       8.887   6.031  26.581  0.00  0.00    -0.274 OA
BRANCH  41  46
ATOM     45  C   UNL     1       5.883   7.041  27.124  0.00  0.00    +0.031 C 
ATOM     46  C   UNL     1       6.155   5.610  27.614  0.00  0.00    +0.026 C 
ATOM     47  C   UNL     1       4.811   4.887  27.830  0.00  0.00    +0.031 C 
ATOM     48  C   UNL     1       6.891   5.660  28.959  0.00  0.00    +0.031 C 
ENDBRANCH  41  46
ENDBRANCH  31  43
ENDBRANCH  30  32
ENDBRANCH  27  30
ENDBRANCH   1  27
BRANCH   1  49
ATOM     49  C   UNL     1       6.770  -1.440  26.522  0.00  0.00    +0.060 C 
BRANCH  49  50
ATOM     50  C   UNL     1       5.388  -2.069  26.476  0.00  0.00    -0.046 A 
ATOM     51  C   UNL     1       4.837  -2.586  25.297  0.00  0.00    +0.004 A 
ATOM     52  C   UNL     1       3.545  -3.136  25.293  0.00  0.00    +0.000 A 
ATOM     53  C   UNL     1       2.798  -3.179  26.467  0.00  0.00    +0.000 A 
ATOM     54  C   UNL     1       3.323  -2.639  27.627  0.00  0.00    +0.000 A 
ATOM     55  C   UNL     1       4.598  -2.068  27.626  0.00  0.00    +0.004 A 
ENDBRANCH  49  50
ENDBRANCH   1  49
TORSDOF 14
ENDMDL
MODEL 4
REMARK VINA RESULT:      -6.9      2.096      9.178
REMARK  Name = 
REMARK  17 active torsions:
REMARK  status: ('A' for Active; 'I' for Inactive)
REMARK    1  A    between atoms: C_1  and  C_2
REMARK    2  A    between atoms: C_2  and  C_3
REMARK    3  A    between atoms: C_2  and  C_4
REMARK    4  A    between atoms: C_2  and  N_5
REMARK    5  A    between atoms: C_6  and  C_8
REMARK    6  A    between atoms: N_20  and  C_21
REMARK    7  A    between atoms: C_21  and  C_22
REMARK    8  A    between atoms: C_22  and  C_24
REMARK    9  A    between atoms: C_22  and  O_54
REMARK   10  A    between atoms: C_24  and  C_26
REMARK   11  A    between atoms: C_24  and  N_33
REMARK   12  A    between atoms: C_26  and  C_27
REMARK   13  A    between atoms: C_34  and  C_36
REMARK   14  A    between atoms: C_36  and  C_37
REMARK   15  A    between atoms: C_36  and  N_41
REMARK   16  A    between atoms: C_37  and  C_38
REMARK   17  A    between atoms: C_42  and  C_44
REMARK                            x       y       z     vdW  Elec       q    Type
REMARK                         _______ _______ _______ _____ _____    ______ ____
ROOT
ATOM      1  C   UNL     1       8.647  -2.411  23.443  0.00  0.00    +0.107 C 
ENDROOT
BRANCH   1   2
ATOM      2  N   UNL     1       7.919  -1.300  24.085  0.00  0.00    -0.308 N 
ATOM      3  H   UNL     1       8.334  -0.853  24.896  0.00  0.00    +0.149 HD
ATOM      4  C   UNL     1       6.678  -0.880  23.691  0.00  0.00    +0.234 C 
ATOM      5  O   UNL     1       5.973  -1.511  22.891  0.00  0.00    -0.274 OA
BRANCH   4   6
ATOM      6  C   UNL     1       6.215   0.456  24.307  0.00  0.00    +0.168 C 
BRANCH   6   7
ATOM      7  N   UNL     1       5.715   1.317  23.227  0.00  0.00    -0.298 N 
ATOM      8  H   UNL     1       4.975   0.912  22.661  0.00  0.00    +0.150 HD
ATOM      9  C   UNL     1       5.687   2.696  23.103  0.00  0.00    +0.263 C 
ATOM     10  O   UNL     1       5.032   3.143  22.162  0.00  0.00    -0.269 OA
BRANCH   9  11
ATOM     11  C   UNL     1       6.389   3.666  24.023  0.00  0.00    +0.126 A 
ATOM     12  C   UNL     1       5.693   4.105  25.157  0.00  0.00    +0.033 A 
ATOM     13  C   UNL     1       6.311   4.977  26.047  0.00  0.00    +0.012 A 
ATOM     14  C   UNL     1       7.599   5.431  25.777  0.00  0.00    +0.000 A 
ATOM     15  C   UNL     1       8.206   5.005  24.577  0.00  0.00    +0.072 A 
ATOM     16  C   UNL     1       9.428   5.570  24.260  0.00  0.00    +0.028 A 
ATOM     17  C   UNL     1      10.085   6.465  25.120  0.00  0.00    +0.002 A 
ATOM     18  C   UNL     1       9.522   6.806  26.339  0.00  0.00    +0.001 A 
ATOM     19  C   UNL     1       8.264   6.307  26.660  0.00  0.00    +0.010 A 
ATOM     20  N   UNL     1       7.640   4.109  23.732  0.00  0.00    -0.242 NA
ENDBRANCH   9  11
ENDBRANCH   6   7
BRANCH   6  21
ATOM     21  C   UNL     1       7.493   0.987  24.982  0.00  0.00    +0.127 C 
BRANCH  21  22
ATOM     22  C   UNL     1       7.655   0.798  26.460  0.00  0.00    +0.213 C 
ATOM     23  N   UNL     1       7.568   1.914  27.233  0.00  0.00    -0.329 N 
ATOM     24  H   UNL     1       7.763   1.821  28.220  0.00  0.00    +0.145 HD
ATOM     25  H   UNL     1       7.269   2.813  26.872  0.00  0.00    +0.145 HD
ATOM     26  O   UNL     1       7.976  -0.274  26.962  0.00  0.00    -0.276 OA
ENDBRANCH  21  22
ENDBRANCH   6  21
ENDBRANCH   4   6
ENDBRANCH   1   2
BRANCH   1  27
ATOM     27  C   UNL     1       8.809  -3.647  24.386  0.00  0.00    +0.149 C 
BRANCH  27  28
ATOM     28  O   UNL     1      10.194  -4.009  24.486  0.00  0.00    -0.389 OA
ATOM     29  H   UNL     1      10.464  -4.243  23.578  0.00  0.00    +0.210 HD
ENDBRANCH  27  28
BRANCH  27  30
ATOM     30  C   UNL     1       8.000  -4.884  23.906  0.00  0.00    +0.118 C 
BRANCH  30  32
ATOM     31  C   UNL     1       6.333  -4.124  25.564  0.00  0.00    +0.143 C 
ATOM     32  N   UNL     1       6.601  -5.042  24.420  0.00  0.00    -0.289 NA
ATOM     33  C   UNL     1       5.682  -4.852  23.283  0.00  0.00    +0.089 C 
ATOM     34  C   UNL     1       4.198  -4.931  23.660  0.00  0.00    +0.006 C 
ATOM     35  C   UNL     1       3.863  -3.782  24.616  0.00  0.00    -0.005 C 
ATOM     36  C   UNL     1       2.483  -3.944  25.265  0.00  0.00    +0.004 C 
ATOM     37  C   UNL     1       2.318  -5.316  25.901  0.00  0.00    +0.000 C 
ATOM     38  C   UNL     1       2.445  -6.406  24.854  0.00  0.00    +0.000 C 
ATOM     39  C   UNL     1       3.771  -6.343  24.102  0.00  0.00    +0.005 C 
ATOM     40  C   UNL     1       4.945  -3.453  25.659  0.00  0.00    +0.032 C 
BRANCH  31  43
ATOM     41  N   UNL     1       5.374  -5.410  27.428  0.00  0.00    -0.309 N 
ATOM     42  H   UNL     1       4.582  -5.338  26.799  0.00  0.00    +0.149 HD
ATOM     43  C   UNL     1       6.538  -4.892  26.907  0.00  0.00    +0.231 C 
ATOM     44  O   UNL     1       7.619  -4.928  27.485  0.00  0.00    -0.274 OA
BRANCH  41  46
ATOM     45  C   UNL     1       4.930  -4.766  29.774  0.00  0.00    +0.031 C 
ATOM     46  C   UNL     1       5.165  -5.922  28.788  0.00  0.00    +0.026 C 
ATOM     47  C   UNL     1       3.916  -6.825  28.764  0.00  0.00    +0.031 C 
ATOM     48  C   UNL     1       6.355  -6.766  29.262  0.00  0.00    +0.031 C 
ENDBRANCH  41  46
ENDBRANCH  31  43
ENDBRANCH  30  32
ENDBRANCH  27  30
ENDBRANCH   1  27
BRANCH   1  49
ATOM     49  C   UNL     1      10.000  -1.896  22.899  0.00  0.00    +0.060 C 
BRANCH  49  50
ATOM     50  C   UNL     1      10.219  -0.395  22.963  0.00  0.00    -0.046 A 
ATOM     51  C   UNL     1      10.781   0.236  24.080  0.00  0.00    +0.004 A 
ATOM     52  C   UNL     1      10.942   1.630  24.107  0.00  0.00    +0.000 A 
ATOM     53  C   UNL     1      10.549   2.403  23.018  0.00  0.00    +0.000 A 
ATOM     54  C   UNL     1       9.961   1.790  21.925  0.00  0.00    +0.000 A 
ATOM     55  C   UNL     1       9.777   0.406  21.909  0.00  0.00    +0.004 A 
ENDBRANCH  49  50
ENDBRANCH   1  49
TORSDOF 14
ENDMDL
MODEL 5
REMARK VINA RESULT:      -6.8      1.865      8.356
REMARK  Name = 
REMARK  17 active torsions:
REMARK  status: ('A' for Active; 'I' for Inactive)
REMARK    1  A    between atoms: C_1  and  C_2
REMARK    2  A    between atoms: C_2  and  C_3
REMARK    3  A    between atoms: C_2  and  C_4
REMARK    4  A    between atoms: C_2  and  N_5
REMARK    5  A    between atoms: C_6  and  C_8
REMARK    6  A    between atoms: N_20  and  C_21
REMARK    7  A    between atoms: C_21  and  C_22
REMARK    8  A    between atoms: C_22  and  C_24
REMARK    9  A    between atoms: C_22  and  O_54
REMARK   10  A    between atoms: C_24  and  C_26
REMARK   11  A    between atoms: C_24  and  N_33
REMARK   12  A    between atoms: C_26  and  C_27
REMARK   13  A    between atoms: C_34  and  C_36
REMARK   14  A    between atoms: C_36  and  C_37
REMARK   15  A    between atoms: C_36  and  N_41
REMARK   16  A    between atoms: C_37  and  C_38
REMARK   17  A    between atoms: C_42  and  C_44
REMARK                            x       y       z     vdW  Elec       q    Type
REMARK                         _______ _______ _______ _____ _____    ______ ____
ROOT
ATOM      1  C   UNL     1       5.942  -0.248  26.003  0.00  0.00    +0.107 C 
ENDROOT
BRANCH   1   2
ATOM      2  N   UNL     1       7.306  -0.796  25.888  0.00  0.00    -0.308 N 
ATOM      3  H   UNL     1       8.055  -0.344  26.402  0.00  0.00    +0.149 HD
ATOM      4  C   UNL     1       7.636  -1.842  25.070  0.00  0.00    +0.234 C 
ATOM      5  O   UNL     1       6.866  -2.298  24.213  0.00  0.00    -0.274 OA
BRANCH   4   6
ATOM      6  C   UNL     1       9.042  -2.431  25.297  0.00  0.00    +0.168 C 
BRANCH   6   7
ATOM      7  N   UNL     1       9.741  -2.478  24.006  0.00  0.00    -0.298 N 
ATOM      8  H   UNL     1       9.780  -3.396  23.570  0.00  0.00    +0.150 HD
ATOM      9  C   UNL     1       9.936  -1.504  23.042  0.00  0.00    +0.263 C 
ATOM     10  O   UNL     1      10.402  -1.887  21.969  0.00  0.00    -0.269 OA
BRANCH   9  11
ATOM     11  C   UNL     1       9.624  -0.036  23.213  0.00  0.00    +0.126 A 
ATOM     12  C   UNL     1      10.309   0.660  24.218  0.00  0.00    +0.033 A 
ATOM     13  C   UNL     1      10.075   2.021  24.393  0.00  0.00    +0.012 A 
ATOM     14  C   UNL     1       9.134   2.661  23.592  0.00  0.00    +0.000 A 
ATOM     15  C   UNL     1       8.430   1.877  22.653  0.00  0.00    +0.072 A 
ATOM     16  C   UNL     1       7.408   2.500  21.961  0.00  0.00    +0.028 A 
ATOM     17  C   UNL     1       7.123   3.867  22.114  0.00  0.00    +0.002 A 
ATOM     18  C   UNL     1       7.882   4.649  22.970  0.00  0.00    +0.001 A 
ATOM     19  C   UNL     1       8.875   4.040  23.731  0.00  0.00    +0.010 A 
ATOM     20  N   UNL     1       8.691   0.566  22.431  0.00  0.00    -0.242 NA
ENDBRANCH   9  11
ENDBRANCH   6   7
BRANCH   6  21
ATOM     21  C   UNL     1       8.743  -3.820  25.890  0.00  0.00    +0.127 C 
BRANCH  21  22
ATOM     22  C   UNL     1       9.035  -5.033  25.057  0.00  0.00    +0.213 C 
ATOM     23  N   UNL     1       9.901  -5.941  25.580  0.00  0.00    -0.329 N 
ATOM     24  H   UNL     1      10.179  -6.719  24.998  0.00  0.00    +0.145 HD
ATOM     25  H   UNL     1      10.236  -5.897  26.536  0.00  0.00    +0.145 HD
ATOM     26  O   UNL     1       8.626  -5.163  23.908  0.00  0.00    -0.276 OA
ENDBRANCH  21  22
ENDBRANCH   6  21
ENDBRANCH   4   6
ENDBRANCH   1   2
BRANCH   1  27
ATOM     27  C   UNL     1       4.872  -1.351  26.283  0.00  0.00    +0.149 C 
BRANCH  27  28
ATOM     28  O   UNL     1       3.572  -0.755  26.401  0.00  0.00    -0.389 OA
ATOM     29  H   UNL     1       3.137  -1.230  27.136  0.00  0.00    +0.210 HD
ENDBRANCH  27  28
BRANCH  27  30
ATOM     30  C   UNL     1       5.168  -2.168  27.572  0.00  0.00    +0.118 C 
BRANCH  30  32
ATOM     31  C   UNL     1       5.122  -4.632  27.394  0.00  0.00    +0.143 C 
ATOM     32  N   UNL     1       4.367  -3.414  27.805  0.00  0.00    -0.289 NA
ATOM     33  C   UNL     1       3.957  -3.423  29.222  0.00  0.00    +0.089 C 
ATOM     34  C   UNL     1       3.167  -4.671  29.634  0.00  0.00    +0.006 C 
ATOM     35  C   UNL     1       4.067  -5.902  29.490  0.00  0.00    -0.005 C 
ATOM     36  C   UNL     1       3.285  -7.216  29.608  0.00  0.00    +0.004 C 
ATOM     37  C   UNL     1       2.086  -7.241  28.672  0.00  0.00    +0.000 C 
ATOM     38  C   UNL     1       1.122  -6.121  29.013  0.00  0.00    +0.000 C 
ATOM     39  C   UNL     1       1.783  -4.747  28.965  0.00  0.00    +0.005 C 
ATOM     40  C   UNL     1       4.997  -5.903  28.264  0.00  0.00    +0.032 C 
BRANCH  31  43
ATOM     41  N   UNL     1       3.350  -5.330  25.838  0.00  0.00    -0.309 N 
ATOM     42  H   UNL     1       2.815  -5.094  26.666  0.00  0.00    +0.149 HD
ATOM     43  C   UNL     1       4.692  -5.048  25.953  0.00  0.00    +0.231 C 
ATOM     44  O   UNL     1       5.503  -5.210  25.046  0.00  0.00    -0.274 OA
BRANCH  41  46
ATOM     45  C   UNL     1       3.252  -7.431  24.538  0.00  0.00    +0.031 C 
ATOM     46  C   UNL     1       2.682  -6.016  24.725  0.00  0.00    +0.026 C 
ATOM     47  C   UNL     1       1.183  -6.118  25.066  0.00  0.00    +0.031 C 
ATOM     48  C   UNL     1       2.821  -5.231  23.414  0.00  0.00    +0.031 C 
ENDBRANCH  41  46
ENDBRANCH  31  43
ENDBRANCH  30  32
ENDBRANCH  27  30
ENDBRANCH   1  27
BRANCH   1  49
ATOM     49  C   UNL     1       5.614   0.591  24.745  0.00  0.00    +0.060 C 
BRANCH  49  50
ATOM     50  C   UNL     1       5.423   2.082  24.966  0.00  0.00    -0.046 A 
ATOM     51  C   UNL     1       6.170   2.804  25.905  0.00  0.00    +0.004 A 
ATOM     52  C   UNL     1       5.943   4.176  26.096  0.00  0.00    +0.000 A 
ATOM     53  C   UNL     1       4.972   4.837  25.348  0.00  0.00    +0.000 A 
ATOM     54  C   UNL     1       4.206   4.122  24.444  0.00  0.00    +0.000 A 
ATOM     55  C   UNL     1       4.414   2.752  24.272  0.00  0.00    +0.004 A 
ENDBRANCH  49  50
ENDBRANCH   1  49
TORSDOF 14
ENDMDL
MODEL 6
REMARK VINA RESULT:      -6.7      2.294      4.651
REMARK  Name = 
REMARK  17 active torsions:
REMARK  status: ('A' for Active; 'I' for Inactive)
REMARK    1  A    between atoms: C_1  and  C_2
REMARK    2  A    between atoms: C_2  and  C_3
REMARK    3  A    between atoms: C_2  and  C_4
REMARK    4  A    between atoms: C_2  and  N_5
REMARK    5  A    between atoms: C_6  and  C_8
REMARK    6  A    between atoms: N_20  and  C_21
REMARK    7  A    between atoms: C_21  and  C_22
REMARK    8  A    between atoms: C_22  and  C_24
REMARK    9  A    between atoms: C_22  and  O_54
REMARK   10  A    between atoms: C_24  and  C_26
REMARK   11  A    between atoms: C_24  and  N_33
REMARK   12  A    between atoms: C_26  and  C_27
REMARK   13  A    between atoms: C_34  and  C_36
REMARK   14  A    between atoms: C_36  and  C_37
REMARK   15  A    between atoms: C_36  and  N_41
REMARK   16  A    between atoms: C_37  and  C_38
REMARK   17  A    between atoms: C_42  and  C_44
REMARK                            x       y       z     vdW  Elec       q    Type
REMARK                         _______ _______ _______ _____ _____    ______ ____
ROOT
ATOM      1  C   UNL     1       8.506  -2.554  26.154  0.00  0.00    +0.107 C 
ENDROOT
BRANCH   1   2
ATOM      2  N   UNL     1       7.186  -3.135  26.464  0.00  0.00    -0.308 N 
ATOM      3  H   UNL     1       6.360  -2.561  26.332  0.00  0.00    +0.149 HD
ATOM      4  C   UNL     1       7.014  -4.387  26.989  0.00  0.00    +0.234 C 
ATOM      5  O   UNL     1       7.950  -5.069  27.428  0.00  0.00    -0.274 OA
BRANCH   4   6
ATOM      6  C   UNL     1       5.561  -4.903  26.984  0.00  0.00    +0.168 C 
BRANCH   6   7
ATOM      7  N   UNL     1       4.694  -3.843  26.452  0.00  0.00    -0.298 N 
ATOM      8  H   UNL     1       5.112  -2.918  26.425  0.00  0.00    +0.150 HD
ATOM      9  C   UNL     1       3.636  -3.896  25.560  0.00  0.00    +0.263 C 
ATOM     10  O   UNL     1       3.215  -2.814  25.152  0.00  0.00    -0.269 OA
BRANCH   9  11
ATOM     11  C   UNL     1       2.979  -5.163  25.064  0.00  0.00    +0.126 A 
ATOM     12  C   UNL     1       2.858  -5.331  23.679  0.00  0.00    +0.033 A 
ATOM     13  C   UNL     1       2.286  -6.495  23.176  0.00  0.00    +0.012 A 
ATOM     14  C   UNL     1       1.806  -7.458  24.059  0.00  0.00    +0.000 A 
ATOM     15  C   UNL     1       1.895  -7.183  25.440  0.00  0.00    +0.072 A 
ATOM     16  C   UNL     1       1.294  -8.087  26.297  0.00  0.00    +0.028 A 
ATOM     17  C   UNL     1       0.691  -9.269  25.836  0.00  0.00    +0.002 A 
ATOM     18  C   UNL     1       0.691  -9.575  24.485  0.00  0.00    +0.001 A 
ATOM     19  C   UNL     1       1.229  -8.656  23.589  0.00  0.00    +0.010 A 
ATOM     20  N   UNL     1       2.504  -6.082  25.944  0.00  0.00    -0.242 NA
ENDBRANCH   9  11
ENDBRANCH   6   7
BRANCH   6  21
ATOM     21  C   UNL     1       5.305  -5.225  28.468  0.00  0.00    +0.127 C 
BRANCH  21  22
ATOM     22  C   UNL     1       5.251  -6.663  28.890  0.00  0.00    +0.213 C 
ATOM     23  N   UNL     1       6.441  -7.312  29.007  0.00  0.00    -0.329 N 
ATOM     24  H   UNL     1       6.421  -8.303  29.203  0.00  0.00    +0.145 HD
ATOM     25  H   UNL     1       7.335  -6.837  28.956  0.00  0.00    +0.145 HD
ATOM     26  O   UNL     1       4.199  -7.282  29.009  0.00  0.00    -0.276 OA
ENDBRANCH  21  22
ENDBRANCH   6  21
ENDBRANCH   4   6
ENDBRANCH   1   2
BRANCH   1  27
ATOM     27  C   UNL     1       8.537  -1.002  26.337  0.00  0.00    +0.149 C 
BRANCH  27  28
ATOM     28  O   UNL     1       9.157  -0.668  27.587  0.00  0.00    -0.389 OA
ATOM     29  H   UNL     1       8.431  -0.659  28.239  0.00  0.00    +0.210 HD
ENDBRANCH  27  28
BRANCH  27  30
ATOM     30  C   UNL     1       7.123  -0.359  26.290  0.00  0.00    +0.118 C 
BRANCH  30  32
ATOM     31  C   UNL     1       6.165   1.055  24.504  0.00  0.00    +0.143 C 
ATOM     32  N   UNL     1       7.008   1.029  25.733  0.00  0.00    -0.289 NA
ATOM     33  C   UNL     1       6.510   1.903  26.811  0.00  0.00    +0.089 C 
ATOM     34  C   UNL     1       6.287   3.358  26.381  0.00  0.00    +0.006 C 
ATOM     35  C   UNL     1       5.187   3.401  25.315  0.00  0.00    -0.005 C 
ATOM     36  C   UNL     1       5.094   4.768  24.626  0.00  0.00    +0.004 C 
ATOM     37  C   UNL     1       6.447   5.229  24.105  0.00  0.00    +0.000 C 
ATOM     38  C   UNL     1       7.434   5.376  25.248  0.00  0.00    +0.000 C 
ATOM     39  C   UNL     1       7.601   4.087  26.045  0.00  0.00    +0.005 C 
ATOM     40  C   UNL     1       5.210   2.251  24.293  0.00  0.00    +0.032 C 
BRANCH  31  43
ATOM     41  N   UNL     1       8.336   0.496  23.494  0.00  0.00    -0.309 N 
ATOM     42  H   UNL     1       8.434   0.103  24.423  0.00  0.00    +0.149 HD
ATOM     43  C   UNL     1       7.082   1.004  23.243  0.00  0.00    +0.231 C 
ATOM     44  O   UNL     1       6.742   1.476  22.162  0.00  0.00    -0.274 OA
BRANCH  41  46
ATOM     45  C   UNL     1       9.747   2.023  22.155  0.00  0.00    +0.031 C 
ATOM     46  C   UNL     1       9.515   0.577  22.622  0.00  0.00    +0.026 C 
ATOM     47  C   UNL     1      10.736   0.109  23.437  0.00  0.00    +0.031 C 
ATOM     48  C   UNL     1       9.376  -0.340  21.401  0.00  0.00    +0.031 C 
ENDBRANCH  41  46
ENDBRANCH  31  43
ENDBRANCH  30  32
ENDBRANCH  27  30
ENDBRANCH   1  27
BRANCH   1  49
ATOM     49  C   UNL     1       8.945  -2.994  24.738  0.00  0.00    +0.060 C 
BRANCH  49  50
ATOM     50  C   UNL     1       7.851  -3.545  23.839  0.00  0.00    -0.046 A 
ATOM     51  C   UNL     1       7.791  -4.894  23.470  0.00  0.00    +0.004 A 
ATOM     52  C   UNL     1       6.777  -5.357  22.616  0.00  0.00    +0.000 A 
ATOM     53  C   UNL     1       5.813  -4.477  22.131  0.00  0.00    +0.000 A 
ATOM     54  C   UNL     1       5.887  -3.136  22.464  0.00  0.00    +0.000 A 
ATOM     55  C   UNL     1       6.911  -2.671  23.292  0.00  0.00    +0.004 A 
ENDBRANCH  49  50
ENDBRANCH   1  49
TORSDOF 14
ENDMDL
MODEL 7
REMARK VINA RESULT:      -6.7      1.684      3.608
REMARK  Name = 
REMARK  17 active torsions:
REMARK  status: ('A' for Active; 'I' for Inactive)
REMARK    1  A    between atoms: C_1  and  C_2
REMARK    2  A    between atoms: C_2  and  C_3
REMARK    3  A    between atoms: C_2  and  C_4
REMARK    4  A    between atoms: C_2  and  N_5
REMARK    5  A    between atoms: C_6  and  C_8
REMARK    6  A    between atoms: N_20  and  C_21
REMARK    7  A    between atoms: C_21  and  C_22
REMARK    8  A    between atoms: C_22  and  C_24
REMARK    9  A    between atoms: C_22  and  O_54
REMARK   10  A    between atoms: C_24  and  C_26
REMARK   11  A    between atoms: C_24  and  N_33
REMARK   12  A    between atoms: C_26  and  C_27
REMARK   13  A    between atoms: C_34  and  C_36
REMARK   14  A    between atoms: C_36  and  C_37
REMARK   15  A    between atoms: C_36  and  N_41
REMARK   16  A    between atoms: C_37  and  C_38
REMARK   17  A    between atoms: C_42  and  C_44
REMARK                            x       y       z     vdW  Elec       q    Type
REMARK                         _______ _______ _______ _____ _____    ______ ____
ROOT
ATOM      1  C   UNL     1       5.715  -1.050  26.135  0.00  0.00    +0.107 C 
ENDROOT
BRANCH   1   2
ATOM      2  N   UNL     1       6.925  -1.726  25.628  0.00  0.00    -0.308 N 
ATOM      3  H   UNL     1       7.629  -2.023  26.295  0.00  0.00    +0.149 HD
ATOM      4  C   UNL     1       7.187  -1.913  24.299  0.00  0.00    +0.234 C 
ATOM      5  O   UNL     1       6.533  -1.368  23.398  0.00  0.00    -0.274 OA
BRANCH   4   6
ATOM      6  C   UNL     1       8.357  -2.869  23.992  0.00  0.00    +0.168 C 
BRANCH   6   7
ATOM      7  N   UNL     1       7.983  -3.705  22.843  0.00  0.00    -0.298 N 
ATOM      8  H   UNL     1       8.744  -3.926  22.206  0.00  0.00    +0.150 HD
ATOM      9  C   UNL     1       6.968  -4.633  22.685  0.00  0.00    +0.263 C 
ATOM     10  O   UNL     1       7.015  -5.322  21.666  0.00  0.00    -0.269 OA
BRANCH   9  11
ATOM     11  C   UNL     1       5.832  -4.854  23.656  0.00  0.00    +0.126 A 
ATOM     12  C   UNL     1       4.592  -4.283  23.344  0.00  0.00    +0.033 A 
ATOM     13  C   UNL     1       3.509  -4.484  24.195  0.00  0.00    +0.012 A 
ATOM     14  C   UNL     1       3.686  -5.216  25.365  0.00  0.00    +0.000 A 
ATOM     15  C   UNL     1       4.983  -5.695  25.649  0.00  0.00    +0.072 A 
ATOM     16  C   UNL     1       5.170  -6.304  26.877  0.00  0.00    +0.028 A 
ATOM     17  C   UNL     1       4.112  -6.516  27.776  0.00  0.00    +0.002 A 
ATOM     18  C   UNL     1       2.824  -6.125  27.448  0.00  0.00    +0.001 A 
ATOM     19  C   UNL     1       2.612  -5.451  26.249  0.00  0.00    +0.010 A 
ATOM     20  N   UNL     1       6.031  -5.559  24.800  0.00  0.00    -0.242 NA
ENDBRANCH   9  11
ENDBRANCH   6   7
BRANCH   6  21
ATOM     21  C   UNL     1       8.512  -3.657  25.305  0.00  0.00    +0.127 C 
BRANCH  21  22
ATOM     22  C   UNL     1       9.370  -4.886  25.307  0.00  0.00    +0.213 C 
ATOM     23  N   UNL     1       8.901  -5.959  25.999  0.00  0.00    -0.329 N 
ATOM     24  H   UNL     1       9.504  -6.765  26.086  0.00  0.00    +0.145 HD
ATOM     25  H   UNL     1       7.964  -6.002  26.382  0.00  0.00    +0.145 HD
ATOM     26  O   UNL     1      10.498  -4.911  24.824  0.00  0.00    -0.276 OA
ENDBRANCH  21  22
ENDBRANCH   6  21
ENDBRANCH   4   6
ENDBRANCH   1   2
BRANCH   1  27
ATOM     27  C   UNL     1       5.900   0.496  26.266  0.00  0.00    +0.149 C 
BRANCH  27  28
ATOM     28  O   UNL     1       5.278   0.964  27.471  0.00  0.00    -0.389 OA
ATOM     29  H   UNL     1       5.819   0.599  28.197  0.00  0.00    +0.210 HD
ENDBRANCH  27  28
BRANCH  27  30
ATOM     30  C   UNL     1       5.311   1.279  25.059  0.00  0.00    +0.118 C 
BRANCH  30  32
ATOM     31  C   UNL     1       6.138   2.478  23.062  0.00  0.00    +0.143 C 
ATOM     32  N   UNL     1       6.085   2.459  24.552  0.00  0.00    -0.289 NA
ATOM     33  C   UNL     1       5.487   3.673  25.138  0.00  0.00    +0.089 C 
ATOM     34  C   UNL     1       6.139   4.979  24.670  0.00  0.00    +0.006 C 
ATOM     35  C   UNL     1       5.920   5.135  23.161  0.00  0.00    -0.005 C 
ATOM     36  C   UNL     1       6.773   6.258  22.559  0.00  0.00    +0.004 C 
ATOM     37  C   UNL     1       8.240   6.114  22.937  0.00  0.00    +0.000 C 
ATOM     38  C   UNL     1       8.411   6.187  24.442  0.00  0.00    +0.000 C 
ATOM     39  C   UNL     1       7.585   5.136  25.176  0.00  0.00    +0.005 C 
ATOM     40  C   UNL     1       6.026   3.839  22.339  0.00  0.00    +0.032 C 
BRANCH  31  43
ATOM     41  N   UNL     1       8.275   1.390  23.608  0.00  0.00    -0.309 N 
ATOM     42  H   UNL     1       7.818   1.414  24.514  0.00  0.00    +0.149 HD
ATOM     43  C   UNL     1       7.476   1.838  22.580  0.00  0.00    +0.231 C 
ATOM     44  O   UNL     1       7.820   1.840  21.402  0.00  0.00    -0.274 OA
BRANCH  41  46
ATOM     45  C   UNL     1       9.941   0.084  22.331  0.00  0.00    +0.031 C 
ATOM     46  C   UNL     1       9.691   1.013  23.529  0.00  0.00    +0.026 C 
ATOM     47  C   UNL     1      10.513   2.304  23.345  0.00  0.00    +0.031 C 
ATOM     48  C   UNL     1      10.164   0.327  24.818  0.00  0.00    +0.031 C 
ENDBRANCH  41  46
ENDBRANCH  31  43
ENDBRANCH  30  32
ENDBRANCH  27  30
ENDBRANCH   1  27
BRANCH   1  49
ATOM     49  C   UNL     1       5.273  -1.710  27.463  0.00  0.00    +0.060 C 
BRANCH  49  50
ATOM     50  C   UNL     1       3.795  -2.037  27.587  0.00  0.00    -0.046 A 
ATOM     51  C   UNL     1       2.868  -1.717  26.587  0.00  0.00    +0.004 A 
ATOM     52  C   UNL     1       1.506  -2.014  26.754  0.00  0.00    +0.000 A 
ATOM     53  C   UNL     1       1.061  -2.637  27.917  0.00  0.00    +0.000 A 
ATOM     54  C   UNL     1       1.966  -2.924  28.923  0.00  0.00    +0.000 A 
ATOM     55  C   UNL     1       3.317  -2.606  28.768  0.00  0.00    +0.004 A 
ENDBRANCH  49  50
ENDBRANCH   1  49
TORSDOF 14
ENDMDL
MODEL 8
REMARK VINA RESULT:      -6.7      2.772      8.616
REMARK  Name = 
REMARK  17 active torsions:
REMARK  status: ('A' for Active; 'I' for Inactive)
REMARK    1  A    between atoms: C_1  and  C_2
REMARK    2  A    between atoms: C_2  and  C_3
REMARK    3  A    between atoms: C_2  and  C_4
REMARK    4  A    between atoms: C_2  and  N_5
REMARK    5  A    between atoms: C_6  and  C_8
REMARK    6  A    between atoms: N_20  and  C_21
REMARK    7  A    between atoms: C_21  and  C_22
REMARK    8  A    between atoms: C_22  and  C_24
REMARK    9  A    between atoms: C_22  and  O_54
REMARK   10  A    between atoms: C_24  and  C_26
REMARK   11  A    between atoms: C_24  and  N_33
REMARK   12  A    between atoms: C_26  and  C_27
REMARK   13  A    between atoms: C_34  and  C_36
REMARK   14  A    between atoms: C_36  and  C_37
REMARK   15  A    between atoms: C_36  and  N_41
REMARK   16  A    between atoms: C_37  and  C_38
REMARK   17  A    between atoms: C_42  and  C_44
REMARK                            x       y       z     vdW  Elec       q    Type
REMARK                         _______ _______ _______ _____ _____    ______ ____
ROOT
ATOM      1  C   UNL     1       5.851   0.713  25.105  0.00  0.00    +0.107 C 
ENDROOT
BRANCH   1   2
ATOM      2  N   UNL     1       6.047   2.130  25.468  0.00  0.00    -0.308 N 
ATOM      3  H   UNL     1       6.666   2.350  26.241  0.00  0.00    +0.149 HD
ATOM      4  C   UNL     1       5.385   3.164  24.866  0.00  0.00    +0.234 C 
ATOM      5  O   UNL     1       4.426   2.998  24.099  0.00  0.00    -0.274 OA
BRANCH   4   6
ATOM      6  C   UNL     1       5.927   4.569  25.200  0.00  0.00    +0.168 C 
BRANCH   6   7
ATOM      7  N   UNL     1       6.166   5.285  23.940  0.00  0.00    -0.298 N 
ATOM      8  H   UNL     1       6.008   6.289  23.979  0.00  0.00    +0.150 HD
ATOM      9  C   UNL     1       6.994   4.992  22.870  0.00  0.00    +0.263 C 
ATOM     10  O   UNL     1       7.130   5.880  22.029  0.00  0.00    -0.269 OA
BRANCH   9  11
ATOM     11  C   UNL     1       7.727   3.686  22.670  0.00  0.00    +0.126 A 
ATOM     12  C   UNL     1       7.318   2.870  21.607  0.00  0.00    +0.033 A 
ATOM     13  C   UNL     1       7.982   1.671  21.366  0.00  0.00    +0.012 A 
ATOM     14  C   UNL     1       9.019   1.283  22.210  0.00  0.00    +0.000 A 
ATOM     15  C   UNL     1       9.322   2.121  23.304  0.00  0.00    +0.072 A 
ATOM     16  C   UNL     1      10.262   1.655  24.206  0.00  0.00    +0.028 A 
ATOM     17  C   UNL     1      10.949   0.446  24.015  0.00  0.00    +0.002 A 
ATOM     18  C   UNL     1      10.710  -0.326  22.889  0.00  0.00    +0.001 A 
ATOM     19  C   UNL     1       9.724   0.081  21.995  0.00  0.00    +0.010 A 
ATOM     20  N   UNL     1       8.725   3.319  23.514  0.00  0.00    -0.242 NA
ENDBRANCH   9  11
ENDBRANCH   6   7
BRANCH   6  21
ATOM     21  C   UNL     1       7.211   4.264  25.992  0.00  0.00    +0.127 C 
BRANCH  21  22
ATOM     22  C   UNL     1       7.993   5.410  26.559  0.00  0.00    +0.213 C 
ATOM     23  N   UNL     1       9.054   5.848  25.828  0.00  0.00    -0.329 N 
ATOM     24  H   UNL     1       9.646   6.559  26.234  0.00  0.00    +0.145 HD
ATOM     25  H   UNL     1       9.241   5.531  24.883  0.00  0.00    +0.145 HD
ATOM     26  O   UNL     1       7.788   5.866  27.679  0.00  0.00    -0.276 OA
ENDBRANCH  21  22
ENDBRANCH   6  21
ENDBRANCH   4   6
ENDBRANCH   1   2
BRANCH   1  27
ATOM     27  C   UNL     1       4.736   0.023  25.956  0.00  0.00    +0.149 C 
BRANCH  27  28
ATOM     28  O   UNL     1       3.834   1.010  26.475  0.00  0.00    -0.389 OA
ATOM     29  H   UNL     1       4.017   1.820  25.962  0.00  0.00    +0.210 HD
ENDBRANCH  27  28
BRANCH  27  30
ATOM     30  C   UNL     1       5.306  -0.808  27.139  0.00  0.00    +0.118 C 
BRANCH  30  32
ATOM     31  C   UNL     1       4.218  -2.696  25.974  0.00  0.00    +0.143 C 
ATOM     32  N   UNL     1       5.084  -2.291  27.118  0.00  0.00    -0.289 NA
ATOM     33  C   UNL     1       6.407  -2.942  27.118  0.00  0.00    +0.089 C 
ATOM     34  C   UNL     1       6.350  -4.472  27.043  0.00  0.00    +0.006 C 
ATOM     35  C   UNL     1       5.722  -4.884  25.708  0.00  0.00    -0.005 C 
ATOM     36  C   UNL     1       5.366  -6.375  25.664  0.00  0.00    +0.004 C 
ATOM     37  C   UNL     1       4.533  -6.790  26.868  0.00  0.00    +0.000 C 
ATOM     38  C   UNL     1       5.304  -6.557  28.154  0.00  0.00    +0.000 C 
ATOM     39  C   UNL     1       5.751  -5.107  28.312  0.00  0.00    +0.005 C 
ATOM     40  C   UNL     1       4.552  -4.008  25.228  0.00  0.00    +0.032 C 
BRANCH  31  43
ATOM     41  N   UNL     1       2.564  -3.832  27.395  0.00  0.00    -0.309 N 
ATOM     42  H   UNL     1       3.433  -4.232  27.731  0.00  0.00    +0.149 HD
ATOM     43  C   UNL     1       2.743  -2.837  26.462  0.00  0.00    +0.231 C 
ATOM     44  O   UNL     1       1.824  -2.189  25.971  0.00  0.00    -0.274 OA
BRANCH  41  46
ATOM     45  C   UNL     1       0.484  -4.931  26.633  0.00  0.00    +0.031 C 
ATOM     46  C   UNL     1       1.290  -4.414  27.835  0.00  0.00    +0.026 C 
ATOM     47  C   UNL     1       1.609  -5.594  28.773  0.00  0.00    +0.031 C 
ATOM     48  C   UNL     1       0.447  -3.398  28.617  0.00  0.00    +0.031 C 
ENDBRANCH  41  46
ENDBRANCH  31  43
ENDBRANCH  30  32
ENDBRANCH  27  30
ENDBRANCH   1  27
BRANCH   1  49
ATOM     49  C   UNL     1       7.204  -0.032  25.182  0.00  0.00    +0.060 C 
BRANCH  49  50
ATOM     50  C   UNL     1       7.351  -1.247  24.282  0.00  0.00    -0.046 A 
ATOM     51  C   UNL     1       6.490  -1.491  23.204  0.00  0.00    +0.004 A 
ATOM     52  C   UNL     1       6.646  -2.640  22.413  0.00  0.00    +0.000 A 
ATOM     53  C   UNL     1       7.664  -3.549  22.687  0.00  0.00    +0.000 A 
ATOM     54  C   UNL     1       8.496  -3.331  23.772  0.00  0.00    +0.000 A 
ATOM     55  C   UNL     1       8.326  -2.201  24.575  0.00  0.00    +0.004 A 
ENDBRANCH  49  50
ENDBRANCH   1  49
TORSDOF 14
ENDMDL
MODEL 9
REMARK VINA RESULT:      -6.7      2.410      5.529
REMARK  Name = 
REMARK  17 active torsions:
REMARK  status: ('A' for Active; 'I' for Inactive)
REMARK    1  A    between atoms: C_1  and  C_2
REMARK    2  A    between atoms: C_2  and  C_3
REMARK    3  A    between atoms: C_2  and  C_4
REMARK    4  A    between atoms: C_2  and  N_5
REMARK    5  A    between atoms: C_6  and  C_8
REMARK    6  A    between atoms: N_20  and  C_21
REMARK    7  A    between atoms: C_21  and  C_22
REMARK    8  A    between atoms: C_22  and  C_24
REMARK    9  A    between atoms: C_22  and  O_54
REMARK   10  A    between atoms: C_24  and  C_26
REMARK   11  A    between atoms: C_24  and  N_33
REMARK   12  A    between atoms: C_26  and  C_27
REMARK   13  A    between atoms: C_34  and  C_36
REMARK   14  A    between atoms: C_36  and  C_37
REMARK   15  A    between atoms: C_36  and  N_41
REMARK   16  A    between atoms: C_37  and  C_38
REMARK   17  A    between atoms: C_42  and  C_44
REMARK                            x       y       z     vdW  Elec       q    Type
REMARK                         _______ _______ _______ _____ _____    ______ ____
ROOT
ATOM      1  C   UNL     1       5.664  -0.879  25.801  0.00  0.00    +0.107 C 
ENDROOT
BRANCH   1   2
ATOM      2  N   UNL     1       4.386  -1.538  26.131  0.00  0.00    -0.308 N 
ATOM      3  H   UNL     1       3.605  -1.429  25.491  0.00  0.00    +0.149 HD
ATOM      4  C   UNL     1       4.169  -2.234  27.288  0.00  0.00    +0.234 C 
ATOM      5  O   UNL     1       4.954  -2.214  28.246  0.00  0.00    -0.274 OA
BRANCH   4   6
ATOM      6  C   UNL     1       2.870  -3.065  27.317  0.00  0.00    +0.168 C 
BRANCH   6   7
ATOM      7  N   UNL     1       3.163  -4.363  27.940  0.00  0.00    -0.298 N 
ATOM      8  H   UNL     1       2.439  -4.717  28.559  0.00  0.00    +0.150 HD
ATOM      9  C   UNL     1       3.964  -5.413  27.522  0.00  0.00    +0.263 C 
ATOM     10  O   UNL     1       3.868  -6.458  28.165  0.00  0.00    -0.269 OA
BRANCH   9  11
ATOM     11  C   UNL     1       4.924  -5.364  26.357  0.00  0.00    +0.126 A 
ATOM     12  C   UNL     1       6.265  -5.068  26.634  0.00  0.00    +0.033 A 
ATOM     13  C   UNL     1       7.191  -5.040  25.596  0.00  0.00    +0.012 A 
ATOM     14  C   UNL     1       6.763  -5.269  24.292  0.00  0.00    +0.000 A 
ATOM     15  C   UNL     1       5.384  -5.485  24.083  0.00  0.00    +0.072 A 
ATOM     16  C   UNL     1       4.958  -5.577  22.770  0.00  0.00    +0.028 A 
ATOM     17  C   UNL     1       5.852  -5.541  21.688  0.00  0.00    +0.002 A 
ATOM     18  C   UNL     1       7.215  -5.421  21.908  0.00  0.00    +0.001 A 
ATOM     19  C   UNL     1       7.671  -5.260  23.213  0.00  0.00    +0.010 A 
ATOM     20  N   UNL     1       4.482  -5.575  25.091  0.00  0.00    -0.242 NA
ENDBRANCH   9  11
ENDBRANCH   6   7
BRANCH   6  21
ATOM     21  C   UNL     1       2.492  -3.166  25.828  0.00  0.00    +0.127 C 
BRANCH  21  22
ATOM     22  C   UNL     1       1.045  -3.315  25.464  0.00  0.00    +0.213 C 
ATOM     23  N   UNL     1       0.445  -4.487  25.806  0.00  0.00    -0.329 N 
ATOM     24  H   UNL     1      -0.502  -4.642  25.492  0.00  0.00    +0.145 HD
ATOM     25  H   UNL     1       0.887  -5.180  26.400  0.00  0.00    +0.145 HD
ATOM     26  O   UNL     1       0.443  -2.492  24.782  0.00  0.00    -0.276 OA
ENDBRANCH  21  22
ENDBRANCH   6  21
ENDBRANCH   4   6
ENDBRANCH   1   2
BRANCH   1  27
ATOM     27  C   UNL     1       5.710   0.611  26.268  0.00  0.00    +0.149 C 
BRANCH  27  28
ATOM     28  O   UNL     1       4.863   0.793  27.412  0.00  0.00    -0.389 OA
ATOM     29  H   UNL     1       4.769   1.760  27.510  0.00  0.00    +0.210 HD
ENDBRANCH  27  28
BRANCH  27  30
ATOM     30  C   UNL     1       5.275   1.607  25.157  0.00  0.00    +0.118 C 
BRANCH  30  32
ATOM     31  C   UNL     1       6.276   3.021  23.395  0.00  0.00    +0.143 C 
ATOM     32  N   UNL     1       6.187   2.759  24.861  0.00  0.00    -0.289 NA
ATOM     33  C   UNL     1       5.714   3.918  25.641  0.00  0.00    +0.089 C 
ATOM     34  C   UNL     1       6.519   5.201  25.403  0.00  0.00    +0.006 C 
ATOM     35  C   UNL     1       6.354   5.631  23.942  0.00  0.00    -0.005 C 
ATOM     36  C   UNL     1       7.341   6.735  23.542  0.00  0.00    +0.004 C 
ATOM     37  C   UNL     1       8.773   6.363  23.896  0.00  0.00    +0.000 C 
ATOM     38  C   UNL     1       8.916   6.163  25.393  0.00  0.00    +0.000 C 
ATOM     39  C   UNL     1       7.961   5.105  25.935  0.00  0.00    +0.005 C 
ATOM     40  C   UNL     1       6.335   4.488  22.913  0.00  0.00    +0.032 C 
BRANCH  31  43
ATOM     41  N   UNL     1       8.621   2.335  23.677  0.00  0.00    -0.309 N 
ATOM     42  H   UNL     1       8.391   2.669  24.607  0.00  0.00    +0.149 HD
ATOM     43  C   UNL     1       7.546   2.323  22.818  0.00  0.00    +0.231 C 
ATOM     44  O   UNL     1       7.600   1.905  21.665  0.00  0.00    -0.274 OA
BRANCH  41  46
ATOM     45  C   UNL     1      10.125   1.384  21.961  0.00  0.00    +0.031 C 
ATOM     46  C   UNL     1      10.020   2.034  23.350  0.00  0.00    +0.026 C 
ATOM     47  C   UNL     1      10.799   3.364  23.344  0.00  0.00    +0.031 C 
ATOM     48  C   UNL     1      10.658   1.112  24.397  0.00  0.00    +0.031 C 
ENDBRANCH  41  46
ENDBRANCH  31  43
ENDBRANCH  30  32
ENDBRANCH  27  30
ENDBRANCH   1  27
BRANCH   1  49
ATOM     49  C   UNL     1       5.952  -1.037  24.289  0.00  0.00    +0.060 C 
BRANCH  49  50
ATOM     50  C   UNL     1       7.363  -1.462  23.919  0.00  0.00    -0.046 A 
ATOM     51  C   UNL     1       7.795  -1.552  22.590  0.00  0.00    +0.004 A 
ATOM     52  C   UNL     1       9.100  -1.973  22.291  0.00  0.00    +0.000 A 
ATOM     53  C   UNL     1       9.984  -2.302  23.315  0.00  0.00    +0.000 A 
ATOM     54  C   UNL     1       9.552  -2.249  24.629  0.00  0.00    +0.000 A 
ATOM     55  C   UNL     1       8.246  -1.854  24.926  0.00  0.00    +0.004 A 
ENDBRANCH  49  50
ENDBRANCH   1  49
TORSDOF 14
ENDMDL
