MODEL 1
REMARK VINA RESULT:      -5.5      0.000      0.000
REMARK  Name = 
REMARK  10 active torsions:
REMARK  status: ('A' for Active; 'I' for Inactive)
REMARK    1  A    between atoms: C_1  and  C_2
REMARK    2  A    between atoms: C_2  and  C_3
REMARK    3  A    between atoms: C_2  and  O_4
REMARK    4  A    between atoms: O_4  and  C_5
REMARK    5  A    between atoms: C_7  and  N_20
REMARK    6  A    between atoms: C_9  and  O_19
REMARK    7  A    between atoms: C_12  and  C_17
REMARK    8  A    between atoms: C_14  and  O_16
REMARK    9  A    between atoms: C_17  and  O_18
REMARK   10  A    between atoms: C_21  and  C_22
REMARK                            x       y       z     vdW  Elec       q    Type
REMARK                         _______ _______ _______ _____ _____    ______ ____
ROOT
ATOM      1  C   UNL     1       7.794  -1.447  23.539  0.00  0.00    +0.179 C 
ATOM      2  C   UNL     1       7.840   0.051  23.204  0.00  0.00    +0.176 C 
ATOM      3  C   UNL     1       9.054   0.495  22.389  0.00  0.00    +0.178 C 
ATOM      4  O   UNL     1      10.258  -0.059  22.919  0.00  0.00    -0.341 OA
ATOM      5  C   UNL     1      10.239  -1.487  22.940  0.00  0.00    +0.275 C 
ATOM      6  C   UNL     1       9.171  -2.029  23.932  0.00  0.00    +0.191 C 
ENDROOT
BRANCH   6   7
ATOM      7  N   UNL     1       9.127  -3.484  23.752  0.00  0.00    -0.293 NA
ATOM      8  C   UNL     1       9.074  -4.342  24.709  0.00  0.00    -0.044 C 
ATOM      9  O   UNL     1       9.108  -5.577  24.536  0.00  0.00    -0.864 OA
ATOM     10  C   UNL     1       8.919  -3.886  26.165  0.00  0.00    +0.047 C 
ENDBRANCH   6   7
BRANCH   2  11
ATOM     11  O   UNL     1       6.614   0.452  22.558  0.00  0.00    -0.386 OA
ATOM     12  H   UNL     1       6.105  -0.380  22.451  0.00  0.00    +0.210 HD
ENDBRANCH   2  11
BRANCH   5  13
ATOM     13  O   UNL     1      10.012  -2.011  21.633  0.00  0.00    -0.365 OA
ATOM     14  H   UNL     1       9.129  -1.634  21.404  0.00  0.00    +0.213 HD
ENDBRANCH   5  13
BRANCH   1  15
ATOM     15  O   UNL     1       6.677  -1.684  24.437  0.00  0.00    -0.369 OA
BRANCH  15  17
ATOM     16  C   UNL     1       5.692  -3.022  22.603  0.00  0.00    +0.037 C 
ATOM     17  C   UNL     1       5.544  -2.445  24.009  0.00  0.00    +0.113 C 
ATOM     18  C   UNL     1       5.434  -3.623  24.982  0.00  0.00    +0.037 C 
ENDBRANCH  15  17
ENDBRANCH   1  15
BRANCH   3  19
ATOM     19  C   UNL     1       9.173   2.033  22.462  0.00  0.00    +0.190 C 
BRANCH  19  20
ATOM     20  O   UNL     1      10.320   2.548  21.788  0.00  0.00    -0.392 OA
ATOM     21  H   UNL     1      10.667   3.285  22.337  0.00  0.00    +0.210 HD
ENDBRANCH  19  20
ENDBRANCH   3  19
TORSDOF 7
ENDMDL
MODEL 2
REMARK VINA RESULT:      -5.3      2.289      3.453
REMARK  Name = 
REMARK  10 active torsions:
REMARK  status: ('A' for Active; 'I' for Inactive)
REMARK    1  A    between atoms: C_1  and  C_2
REMARK    2  A    between atoms: C_2  and  C_3
REMARK    3  A    between atoms: C_2  and  O_4
REMARK    4  A    between atoms: O_4  and  C_5
REMARK    5  A    between atoms: C_7  and  N_20
REMARK    6  A    between atoms: C_9  and  O_19
REMARK    7  A    between atoms: C_12  and  C_17
REMARK    8  A    between atoms: C_14  and  O_16
REMARK    9  A    between atoms: C_17  and  O_18
REMARK   10  A    between atoms: C_21  and  C_22
REMARK                            x       y       z     vdW  Elec       q    Type
REMARK                         _______ _______ _______ _____ _____    ______ ____
ROOT
ATOM      1  C   UNL     1       7.009  -3.825  24.011  0.00  0.00    +0.179 C 
ATOM      2  C   UNL     1       7.896  -2.789  23.304  0.00  0.00    +0.176 C 
ATOM      3  C   UNL     1       9.400  -3.002  23.473  0.00  0.00    +0.178 C 
ATOM      4  O   UNL     1       9.730  -3.274  24.835  0.00  0.00    -0.341 OA
ATOM      5  C   UNL     1       9.061  -4.431  25.338  0.00  0.00    +0.275 C 
ATOM      6  C   UNL     1       7.523  -4.213  25.417  0.00  0.00    +0.191 C 
ENDROOT
BRANCH   6   7
ATOM      7  N   UNL     1       6.932  -5.503  25.785  0.00  0.00    -0.293 NA
ATOM      8  C   UNL     1       6.077  -5.678  26.730  0.00  0.00    -0.044 C 
ATOM      9  O   UNL     1       5.639  -6.794  27.073  0.00  0.00    -0.864 OA
ATOM     10  C   UNL     1       5.491  -4.480  27.490  0.00  0.00    +0.047 C 
ENDBRANCH   6   7
BRANCH   2  11
ATOM     11  O   UNL     1       7.543  -2.706  21.908  0.00  0.00    -0.386 OA
ATOM     12  H   UNL     1       8.209  -3.261  21.448  0.00  0.00    +0.210 HD
ENDBRANCH   2  11
BRANCH   5  13
ATOM     13  O   UNL     1       9.359  -5.576  24.540  0.00  0.00    -0.365 OA
ATOM     14  H   UNL     1       8.867  -6.293  25.006  0.00  0.00    +0.213 HD
ENDBRANCH   5  13
BRANCH   1  15
ATOM     15  O   UNL     1       5.624  -3.404  23.889  0.00  0.00    -0.369 OA
BRANCH  15  17
ATOM     16  C   UNL     1       5.283  -5.469  22.567  0.00  0.00    +0.037 C 
ATOM     17  C   UNL     1       4.684  -4.191  23.153  0.00  0.00    +0.113 C 
ATOM     18  C   UNL     1       3.603  -4.607  24.156  0.00  0.00    +0.037 C 
ENDBRANCH  15  17
ENDBRANCH   1  15
BRANCH   3  19
ATOM     19  C   UNL     1      10.140  -1.711  23.059  0.00  0.00    +0.190 C 
BRANCH  19  20
ATOM     20  O   UNL     1      10.268  -1.556  21.647  0.00  0.00    -0.392 OA
ATOM     21  H   UNL     1      10.503  -2.437  21.283  0.00  0.00    +0.210 HD
ENDBRANCH  19  20
ENDBRANCH   3  19
TORSDOF 7
ENDMDL
MODEL 3
REMARK VINA RESULT:      -5.3      1.788      2.470
REMARK  Name = 
REMARK  10 active torsions:
REMARK  status: ('A' for Active; 'I' for Inactive)
REMARK    1  A    between atoms: C_1  and  C_2
REMARK    2  A    between atoms: C_2  and  C_3
REMARK    3  A    between atoms: C_2  and  O_4
REMARK    4  A    between atoms: O_4  and  C_5
REMARK    5  A    between atoms: C_7  and  N_20
REMARK    6  A    between atoms: C_9  and  O_19
REMARK    7  A    between atoms: C_12  and  C_17
REMARK    8  A    between atoms: C_14  and  O_16
REMARK    9  A    between atoms: C_17  and  O_18
REMARK   10  A    between atoms: C_21  and  C_22
REMARK                            x       y       z     vdW  Elec       q    Type
REMARK                         _______ _______ _______ _____ _____    ______ ____
ROOT
ATOM      1  C   UNL     1       8.594  -2.128  23.244  0.00  0.00    +0.179 C 
ATOM      2  C   UNL     1       8.546  -0.875  22.357  0.00  0.00    +0.176 C 
ATOM      3  C   UNL     1       8.775   0.446  23.091  0.00  0.00    +0.178 C 
ATOM      4  O   UNL     1       8.005   0.506  24.291  0.00  0.00    -0.341 OA
ATOM      5  C   UNL     1       8.314  -0.558  25.192  0.00  0.00    +0.275 C 
ATOM      6  C   UNL     1       7.895  -1.938  24.610  0.00  0.00    +0.191 C 
ENDROOT
BRANCH   6   7
ATOM      7  N   UNL     1       8.402  -2.957  25.534  0.00  0.00    -0.293 NA
ATOM      8  C   UNL     1       7.671  -3.671  26.316  0.00  0.00    -0.044 C 
ATOM      9  O   UNL     1       8.128  -4.483  27.145  0.00  0.00    -0.864 OA
ATOM     10  C   UNL     1       6.140  -3.595  26.244  0.00  0.00    +0.047 C 
ENDBRANCH   6   7
BRANCH   2  11
ATOM     11  O   UNL     1       9.464  -1.015  21.254  0.00  0.00    -0.386 OA
ATOM     12  H   UNL     1       8.900  -1.255  20.487  0.00  0.00    +0.210 HD
ENDBRANCH   2  11
BRANCH   5  13
ATOM     13  O   UNL     1       9.703  -0.559  25.519  0.00  0.00    -0.365 OA
ATOM     14  H   UNL     1      10.127  -0.391  24.644  0.00  0.00    +0.213 HD
ENDBRANCH   5  13
BRANCH   1  15
ATOM     15  O   UNL     1       8.209  -3.275  22.440  0.00  0.00    -0.369 OA
BRANCH  15  17
ATOM     16  C   UNL     1       5.806  -3.254  21.846  0.00  0.00    +0.037 C 
ATOM     17  C   UNL     1       6.940  -3.908  22.632  0.00  0.00    +0.113 C 
ATOM     18  C   UNL     1       7.098  -5.339  22.109  0.00  0.00    +0.037 C 
ENDBRANCH  15  17
ENDBRANCH   1  15
BRANCH   3  19
ATOM     19  C   UNL     1       8.322   1.610  22.183  0.00  0.00    +0.190 C 
BRANCH  19  20
ATOM     20  O   UNL     1       9.330   2.050  21.275  0.00  0.00    -0.392 OA
ATOM     21  H   UNL     1       8.951   2.803  20.770  0.00  0.00    +0.210 HD
ENDBRANCH  19  20
ENDBRANCH   3  19
TORSDOF 7
ENDMDL
MODEL 4
REMARK VINA RESULT:      -5.2      2.000      5.534
REMARK  Name = 
REMARK  10 active torsions:
REMARK  status: ('A' for Active; 'I' for Inactive)
REMARK    1  A    between atoms: C_1  and  C_2
REMARK    2  A    between atoms: C_2  and  C_3
REMARK    3  A    between atoms: C_2  and  O_4
REMARK    4  A    between atoms: O_4  and  C_5
REMARK    5  A    between atoms: C_7  and  N_20
REMARK    6  A    between atoms: C_9  and  O_19
REMARK    7  A    between atoms: C_12  and  C_17
REMARK    8  A    between atoms: C_14  and  O_16
REMARK    9  A    between atoms: C_17  and  O_18
REMARK   10  A    between atoms: C_21  and  C_22
REMARK                            x       y       z     vdW  Elec       q    Type
REMARK                         _______ _______ _______ _____ _____    ______ ____
ROOT
ATOM      1  C   UNL     1       8.621  -1.344  23.911  0.00  0.00    +0.179 C 
ATOM      2  C   UNL     1       9.060  -2.737  24.386  0.00  0.00    +0.176 C 
ATOM      3  C   UNL     1       8.041  -3.852  24.150  0.00  0.00    +0.178 C 
ATOM      4  O   UNL     1       6.733  -3.444  24.550  0.00  0.00    -0.341 OA
ATOM      5  C   UNL     1       6.285  -2.282  23.851  0.00  0.00    +0.275 C 
ATOM      6  C   UNL     1       7.137  -1.033  24.216  0.00  0.00    +0.191 C 
ENDROOT
BRANCH   6   7
ATOM      7  N   UNL     1       6.700   0.050  23.328  0.00  0.00    -0.293 NA
ATOM      8  C   UNL     1       6.469   1.259  23.701  0.00  0.00    -0.044 C 
ATOM      9  O   UNL     1       6.030   2.148  22.944  0.00  0.00    -0.864 OA
ATOM     10  C   UNL     1       6.767   1.707  25.138  0.00  0.00    +0.047 C 
ENDBRANCH   6   7
BRANCH   2  11
ATOM     11  O   UNL     1      10.336  -3.077  23.807  0.00  0.00    -0.386 OA
ATOM     12  H   UNL     1      10.695  -2.227  23.473  0.00  0.00    +0.210 HD
ENDBRANCH   2  11
BRANCH   5  13
ATOM     13  O   UNL     1       6.304  -2.500  22.441  0.00  0.00    -0.365 OA
ATOM     14  H   UNL     1       6.004  -3.437  22.367  0.00  0.00    +0.213 HD
ENDBRANCH   5  13
BRANCH   1  15
ATOM     15  O   UNL     1       9.617  -0.377  24.340  0.00  0.00    -0.369 OA
BRANCH  15  17
ATOM     16  C   UNL     1       9.877   0.205  21.948  0.00  0.00    +0.037 C 
ATOM     17  C   UNL     1      10.388   0.352  23.380  0.00  0.00    +0.113 C 
ATOM     18  C   UNL     1      10.259   1.828  23.767  0.00  0.00    +0.037 C 
ENDBRANCH  15  17
ENDBRANCH   1  15
BRANCH   3  19
ATOM     19  C   UNL     1       8.432  -5.078  25.003  0.00  0.00    +0.190 C 
BRANCH  19  20
ATOM     20  O   UNL     1       9.621  -5.728  24.555  0.00  0.00    -0.392 OA
ATOM     21  H   UNL     1       9.382  -6.662  24.365  0.00  0.00    +0.210 HD
ENDBRANCH  19  20
ENDBRANCH   3  19
TORSDOF 7
ENDMDL
MODEL 5
REMARK VINA RESULT:      -5.1      2.675      5.995
REMARK  Name = 
REMARK  10 active torsions:
REMARK  status: ('A' for Active; 'I' for Inactive)
REMARK    1  A    between atoms: C_1  and  C_2
REMARK    2  A    between atoms: C_2  and  C_3
REMARK    3  A    between atoms: C_2  and  O_4
REMARK    4  A    between atoms: O_4  and  C_5
REMARK    5  A    between atoms: C_7  and  N_20
REMARK    6  A    between atoms: C_9  and  O_19
REMARK    7  A    between atoms: C_12  and  C_17
REMARK    8  A    between atoms: C_14  and  O_16
REMARK    9  A    between atoms: C_17  and  O_18
REMARK   10  A    between atoms: C_21  and  C_22
REMARK                            x       y       z     vdW  Elec       q    Type
REMARK                         _______ _______ _______ _____ _____    ______ ____
ROOT
ATOM      1  C   UNL     1       6.778  -4.238  24.094  0.00  0.00    +0.179 C 
ATOM      2  C   UNL     1       5.597  -5.161  24.432  0.00  0.00    +0.176 C 
ATOM      3  C   UNL     1       5.059  -5.978  23.258  0.00  0.00    +0.178 C 
ATOM      4  O   UNL     1       4.896  -5.163  22.098  0.00  0.00    -0.341 OA
ATOM      5  C   UNL     1       6.118  -4.550  21.684  0.00  0.00    +0.275 C 
ATOM      6  C   UNL     1       6.623  -3.520  22.734  0.00  0.00    +0.191 C 
ENDROOT
BRANCH   6   7
ATOM      7  N   UNL     1       7.949  -3.080  22.289  0.00  0.00    -0.293 NA
ATOM      8  C   UNL     1       8.357  -1.860  22.283  0.00  0.00    -0.044 C 
ATOM      9  O   UNL     1       9.464  -1.500  21.835  0.00  0.00    -0.864 OA
ATOM     10  C   UNL     1       7.494  -0.742  22.882  0.00  0.00    +0.047 C 
ENDBRANCH   6   7
BRANCH   2  11
ATOM     11  O   UNL     1       5.941  -6.018  25.539  0.00  0.00    -0.386 OA
ATOM     12  H   UNL     1       5.633  -5.535  26.335  0.00  0.00    +0.210 HD
ENDBRANCH   2  11
BRANCH   5  13
ATOM     13  O   UNL     1       7.120  -5.535  21.436  0.00  0.00    -0.365 OA
ATOM     14  H   UNL     1       7.364  -5.358  20.496  0.00  0.00    +0.213 HD
ENDBRANCH   5  13
BRANCH   1  15
ATOM     15  O   UNL     1       7.073  -3.423  25.260  0.00  0.00    -0.369 OA
BRANCH  15  17
ATOM     16  C   UNL     1       8.606  -1.866  26.423  0.00  0.00    +0.037 C 
ATOM     17  C   UNL     1       8.425  -3.173  25.653  0.00  0.00    +0.113 C 
ATOM     18  C   UNL     1       8.811  -4.319  26.593  0.00  0.00    +0.037 C 
ENDBRANCH  15  17
ENDBRANCH   1  15
BRANCH   3  19
ATOM     19  C   UNL     1       3.671  -6.542  23.634  0.00  0.00    +0.190 C 
BRANCH  19  20
ATOM     20  O   UNL     1       3.723  -7.850  24.202  0.00  0.00    -0.392 OA
ATOM     21  H   UNL     1       4.670  -8.111  24.233  0.00  0.00    +0.210 HD
ENDBRANCH  19  20
ENDBRANCH   3  19
TORSDOF 7
ENDMDL
MODEL 6
REMARK VINA RESULT:      -5.0      3.338      5.698
REMARK  Name = 
REMARK  10 active torsions:
REMARK  status: ('A' for Active; 'I' for Inactive)
REMARK    1  A    between atoms: C_1  and  C_2
REMARK    2  A    between atoms: C_2  and  C_3
REMARK    3  A    between atoms: C_2  and  O_4
REMARK    4  A    between atoms: O_4  and  C_5
REMARK    5  A    between atoms: C_7  and  N_20
REMARK    6  A    between atoms: C_9  and  O_19
REMARK    7  A    between atoms: C_12  and  C_17
REMARK    8  A    between atoms: C_14  and  O_16
REMARK    9  A    between atoms: C_17  and  O_18
REMARK   10  A    between atoms: C_21  and  C_22
REMARK                            x       y       z     vdW  Elec       q    Type
REMARK                         _______ _______ _______ _____ _____    ______ ____
ROOT
ATOM      1  C   UNL     1       8.973   1.737  24.156  0.00  0.00    +0.179 C 
ATOM      2  C   UNL     1       9.579   0.328  24.210  0.00  0.00    +0.176 C 
ATOM      3  C   UNL     1      10.178  -0.171  22.895  0.00  0.00    +0.178 C 
ATOM      4  O   UNL     1       9.297   0.084  21.802  0.00  0.00    -0.341 OA
ATOM      5  C   UNL     1       8.998   1.472  21.652  0.00  0.00    +0.275 C 
ATOM      6  C   UNL     1       8.178   2.012  22.858  0.00  0.00    +0.191 C 
ENDROOT
BRANCH   6   7
ATOM      7  N   UNL     1       8.072   3.464  22.680  0.00  0.00    -0.293 NA
ATOM      8  C   UNL     1       6.984   4.094  22.408  0.00  0.00    -0.044 C 
ATOM      9  O   UNL     1       6.927   5.321  22.191  0.00  0.00    -0.864 OA
ATOM     10  C   UNL     1       5.638   3.358  22.373  0.00  0.00    +0.047 C 
ENDBRANCH   6   7
BRANCH   2  11
ATOM     11  O   UNL     1      10.545   0.245  25.278  0.00  0.00    -0.386 OA
ATOM     12  H   UNL     1      10.129   0.721  26.029  0.00  0.00    +0.210 HD
ENDBRANCH   2  11
BRANCH   5  13
ATOM     13  O   UNL     1      10.193   2.233  21.485  0.00  0.00    -0.365 OA
ATOM     14  H   UNL     1      10.054   2.987  22.107  0.00  0.00    +0.213 HD
ENDBRANCH   5  13
BRANCH   1  15
ATOM     15  O   UNL     1       8.314   2.004  25.423  0.00  0.00    -0.369 OA
BRANCH  15  17
ATOM     16  C   UNL     1       7.193   0.552  27.085  0.00  0.00    +0.037 C 
ATOM     17  C   UNL     1       7.102   1.328  25.772  0.00  0.00    +0.113 C 
ATOM     18  C   UNL     1       6.045   2.421  25.954  0.00  0.00    +0.037 C 
ENDBRANCH  15  17
ENDBRANCH   1  15
BRANCH   3  19
ATOM     19  C   UNL     1      10.387  -1.698  22.985  0.00  0.00    +0.190 C 
BRANCH  19  20
ATOM     20  O   UNL     1       9.774  -2.290  24.130  0.00  0.00    -0.392 OA
ATOM     21  H   UNL     1       9.526  -1.556  24.733  0.00  0.00    +0.210 HD
ENDBRANCH  19  20
ENDBRANCH   3  19
TORSDOF 7
ENDMDL
MODEL 7
REMARK VINA RESULT:      -4.9      2.187      3.606
REMARK  Name = 
REMARK  10 active torsions:
REMARK  status: ('A' for Active; 'I' for Inactive)
REMARK    1  A    between atoms: C_1  and  C_2
REMARK    2  A    between atoms: C_2  and  C_3
REMARK    3  A    between atoms: C_2  and  O_4
REMARK    4  A    between atoms: O_4  and  C_5
REMARK    5  A    between atoms: C_7  and  N_20
REMARK    6  A    between atoms: C_9  and  O_19
REMARK    7  A    between atoms: C_12  and  C_17
REMARK    8  A    between atoms: C_14  and  O_16
REMARK    9  A    between atoms: C_17  and  O_18
REMARK   10  A    between atoms: C_21  and  C_22
REMARK                            x       y       z     vdW  Elec       q    Type
REMARK                         _______ _______ _______ _____ _____    ______ ____
ROOT
ATOM      1  C   UNL     1       7.670  -1.843  25.146  0.00  0.00    +0.179 C 
ATOM      2  C   UNL     1       8.772  -0.793  25.349  0.00  0.00    +0.176 C 
ATOM      3  C   UNL     1       8.612   0.483  24.522  0.00  0.00    +0.178 C 
ATOM      4  O   UNL     1       8.290   0.177  23.166  0.00  0.00    -0.341 OA
ATOM      5  C   UNL     1       7.084  -0.580  23.048  0.00  0.00    +0.275 C 
ATOM      6  C   UNL     1       7.237  -1.997  23.670  0.00  0.00    +0.191 C 
ENDROOT
BRANCH   6   7
ATOM      7  N   UNL     1       5.908  -2.617  23.640  0.00  0.00    -0.293 NA
ATOM      8  C   UNL     1       5.548  -3.546  22.827  0.00  0.00    -0.044 C 
ATOM      9  O   UNL     1       4.391  -4.011  22.772  0.00  0.00    -0.864 OA
ATOM     10  C   UNL     1       6.561  -4.191  21.873  0.00  0.00    +0.047 C 
ENDBRANCH   6   7
BRANCH   2  11
ATOM     11  O   UNL     1       8.907  -0.482  26.751  0.00  0.00    -0.386 OA
ATOM     12  H   UNL     1       9.467   0.324  26.776  0.00  0.00    +0.210 HD
ENDBRANCH   2  11
BRANCH   5  13
ATOM     13  O   UNL     1       5.991   0.110  23.651  0.00  0.00    -0.365 OA
ATOM     14  H   UNL     1       5.809   0.829  23.000  0.00  0.00    +0.213 HD
ENDBRANCH   5  13
BRANCH   1  15
ATOM     15  O   UNL     1       8.041  -3.045  25.872  0.00  0.00    -0.369 OA
BRANCH  15  17
ATOM     16  C   UNL     1       9.707  -4.823  25.438  0.00  0.00    +0.037 C 
ATOM     17  C   UNL     1       8.309  -4.265  25.175  0.00  0.00    +0.113 C 
ATOM     18  C   UNL     1       7.298  -5.286  25.705  0.00  0.00    +0.037 C 
ENDBRANCH  15  17
ENDBRANCH   1  15
BRANCH   3  19
ATOM     19  C   UNL     1       9.949   1.254  24.524  0.00  0.00    +0.190 C 
BRANCH  19  20
ATOM     20  O   UNL     1      11.007   0.559  25.182  0.00  0.00    -0.392 OA
ATOM     21  H   UNL     1      11.062   0.919  26.095  0.00  0.00    +0.210 HD
ENDBRANCH  19  20
ENDBRANCH   3  19
TORSDOF 7
ENDMDL
MODEL 8
REMARK VINA RESULT:      -4.8      1.946      3.026
REMARK  Name = 
REMARK  10 active torsions:
REMARK  status: ('A' for Active; 'I' for Inactive)
REMARK    1  A    between atoms: C_1  and  C_2
REMARK    2  A    between atoms: C_2  and  C_3
REMARK    3  A    between atoms: C_2  and  O_4
REMARK    4  A    between atoms: O_4  and  C_5
REMARK    5  A    between atoms: C_7  and  N_20
REMARK    6  A    between atoms: C_9  and  O_19
REMARK    7  A    between atoms: C_12  and  C_17
REMARK    8  A    between atoms: C_14  and  O_16
REMARK    9  A    between atoms: C_17  and  O_18
REMARK   10  A    between atoms: C_21  and  C_22
REMARK                            x       y       z     vdW  Elec       q    Type
REMARK                         _______ _______ _______ _____ _____    ______ ____
ROOT
ATOM      1  C   UNL     1       8.200  -1.593  23.595  0.00  0.00    +0.179 C 
ATOM      2  C   UNL     1       8.877  -0.679  22.563  0.00  0.00    +0.176 C 
ATOM      3  C   UNL     1       9.616   0.524  23.150  0.00  0.00    +0.178 C 
ATOM      4  O   UNL     1       8.821   1.183  24.135  0.00  0.00    -0.341 OA
ATOM      5  C   UNL     1       8.459   0.319  25.213  0.00  0.00    +0.275 C 
ATOM      6  C   UNL     1       7.508  -0.816  24.739  0.00  0.00    +0.191 C 
ENDROOT
BRANCH   6   7
ATOM      7  N   UNL     1       7.337  -1.725  25.877  0.00  0.00    -0.293 NA
ATOM      8  C   UNL     1       6.228  -2.285  26.211  0.00  0.00    -0.044 C 
ATOM      9  O   UNL     1       6.088  -2.999  27.224  0.00  0.00    -0.864 OA
ATOM     10  C   UNL     1       4.978  -2.137  25.333  0.00  0.00    +0.047 C 
ENDBRANCH   6   7
BRANCH   2  11
ATOM     11  O   UNL     1       9.749  -1.452  21.714  0.00  0.00    -0.386 OA
ATOM     12  H   UNL     1      10.625  -1.016  21.790  0.00  0.00    +0.210 HD
ENDBRANCH   2  11
BRANCH   5  13
ATOM     13  O   UNL     1       9.620  -0.233  25.832  0.00  0.00    -0.365 OA
ATOM     14  H   UNL     1       9.264  -1.043  26.269  0.00  0.00    +0.213 HD
ENDBRANCH   5  13
BRANCH   1  15
ATOM     15  O   UNL     1       7.419  -2.590  22.884  0.00  0.00    -0.369 OA
BRANCH  15  17
ATOM     16  C   UNL     1       8.474  -4.422  24.172  0.00  0.00    +0.037 C 
ATOM     17  C   UNL     1       7.826  -3.961  22.867  0.00  0.00    +0.113 C 
ATOM     18  C   UNL     1       6.547  -4.780  22.673  0.00  0.00    +0.037 C 
ENDBRANCH  15  17
ENDBRANCH   1  15
BRANCH   3  19
ATOM     19  C   UNL     1       9.901   1.538  22.020  0.00  0.00    +0.190 C 
BRANCH  19  20
ATOM     20  O   UNL     1       8.982   1.452  20.932  0.00  0.00    -0.392 OA
ATOM     21  H   UNL     1       8.115   1.773  21.264  0.00  0.00    +0.210 HD
ENDBRANCH  19  20
ENDBRANCH   3  19
TORSDOF 7
ENDMDL
MODEL 9
REMARK VINA RESULT:      -4.8      1.865      2.056
REMARK  Name = 
REMARK  10 active torsions:
REMARK  status: ('A' for Active; 'I' for Inactive)
REMARK    1  A    between atoms: C_1  and  C_2
REMARK    2  A    between atoms: C_2  and  C_3
REMARK    3  A    between atoms: C_2  and  O_4
REMARK    4  A    between atoms: O_4  and  C_5
REMARK    5  A    between atoms: C_7  and  N_20
REMARK    6  A    between atoms: C_9  and  O_19
REMARK    7  A    between atoms: C_12  and  C_17
REMARK    8  A    between atoms: C_14  and  O_16
REMARK    9  A    between atoms: C_17  and  O_18
REMARK   10  A    between atoms: C_21  and  C_22
REMARK                            x       y       z     vdW  Elec       q    Type
REMARK                         _______ _______ _______ _____ _____    ______ ____
ROOT
ATOM      1  C   UNL     1       8.549  -1.430  24.926  0.00  0.00    +0.179 C 
ATOM      2  C   UNL     1       9.301  -0.095  25.030  0.00  0.00    +0.176 C 
ATOM      3  C   UNL     1       9.918   0.404  23.723  0.00  0.00    +0.178 C 
ATOM      4  O   UNL     1      10.610  -0.647  23.049  0.00  0.00    -0.341 OA
ATOM      5  C   UNL     1       9.759  -1.752  22.742  0.00  0.00    +0.275 C 
ATOM      6  C   UNL     1       9.265  -2.468  24.031  0.00  0.00    +0.191 C 
ENDROOT
BRANCH   6   7
ATOM      7  N   UNL     1       8.282  -3.470  23.607  0.00  0.00    -0.293 NA
ATOM      8  C   UNL     1       8.259  -4.693  24.005  0.00  0.00    -0.044 C 
ATOM      9  O   UNL     1       7.457  -5.547  23.579  0.00  0.00    -0.864 OA
ATOM     10  C   UNL     1       9.223  -5.181  25.095  0.00  0.00    +0.047 C 
ENDBRANCH   6   7
BRANCH   2  11
ATOM     11  O   UNL     1       8.446   0.911  25.610  0.00  0.00    -0.386 OA
ATOM     12  H   UNL     1       7.776   1.100  24.918  0.00  0.00    +0.210 HD
ENDBRANCH   2  11
BRANCH   5  13
ATOM     13  O   UNL     1       8.648  -1.333  21.951  0.00  0.00    -0.365 OA
ATOM     14  H   UNL     1       7.886  -1.480  22.560  0.00  0.00    +0.213 HD
ENDBRANCH   5  13
BRANCH   1  15
ATOM     15  O   UNL     1       8.159  -1.843  26.263  0.00  0.00    -0.369 OA
BRANCH  15  17
ATOM     16  C   UNL     1       5.823  -1.553  25.495  0.00  0.00    +0.037 C 
ATOM     17  C   UNL     1       6.778  -1.941  26.623  0.00  0.00    +0.113 C 
ATOM     18  C   UNL     1       6.529  -3.416  26.950  0.00  0.00    +0.037 C 
ENDBRANCH  15  17
ENDBRANCH   1  15
BRANCH   3  19
ATOM     19  C   UNL     1      10.944   1.513  24.043  0.00  0.00    +0.190 C 
BRANCH  19  20
ATOM     20  O   UNL     1      10.397   2.829  23.983  0.00  0.00    -0.392 OA
ATOM     21  H   UNL     1      11.096   3.412  23.613  0.00  0.00    +0.210 HD
ENDBRANCH  19  20
ENDBRANCH   3  19
TORSDOF 7
ENDMDL
