MODEL 1
REMARK VINA RESULT:      -6.5      0.000      0.000
REMARK  Name = 
REMARK  16 active torsions:
REMARK  status: ('A' for Active; 'I' for Inactive)
REMARK    1  A    between atoms: C_1  and  C_2
REMARK    2  A    between atoms: C_3  and  C_9
REMARK    3  A    between atoms: C_7  and  O_8
REMARK    4  A    between atoms: N_11  and  C_12
REMARK    5  A    between atoms: C_12  and  C_14
REMARK    6  A    between atoms: C_12  and  C_22
REMARK    7  A    between atoms: C_14  and  S_15
REMARK    8  A    between atoms: S_15  and  C_16
REMARK    9  A    between atoms: C_22  and  C_24
REMARK   10  A    between atoms: C_22  and  O_45
REMARK   11  A    between atoms: C_24  and  N_25
REMARK   12  A    between atoms: C_36  and  C_38
REMARK   13  A    between atoms: N_40  and  C_41
REMARK   14  A    between atoms: C_41  and  C_42
REMARK   15  A    between atoms: C_41  and  C_43
REMARK   16  A    between atoms: C_41  and  C_44
REMARK                            x       y       z     vdW  Elec       q    Type
REMARK                         _______ _______ _______ _____ _____    ______ ____
ROOT
ATOM      1  C   UNL     1       4.836  -0.860  26.313  0.00  0.00    +0.113 C 
ENDROOT
BRANCH   1   3
ATOM      2  C   UNL     1       3.938  -2.902  25.228  0.00  0.00    +0.245 C 
ATOM      3  N   UNL     1       5.004  -2.133  25.614  0.00  0.00    -0.305 N 
ATOM      4  H   UNL     1       5.935  -2.322  25.251  0.00  0.00    +0.149 HD
ATOM      5  O   UNL     1       2.771  -2.597  25.468  0.00  0.00    -0.270 OA
BRANCH   2  12
ATOM      6  C   UNL     1       2.988  -5.801  25.859  0.00  0.00    +0.048 C 
ATOM      7  C   UNL     1       3.822  -5.402  24.670  0.00  0.00    +0.003 A 
ATOM      8  C   UNL     1       4.184  -6.406  23.754  0.00  0.00    +0.120 A 
ATOM      9  C   UNL     1       4.920  -6.130  22.600  0.00  0.00    +0.046 A 
ATOM     10  C   UNL     1       5.314  -4.824  22.331  0.00  0.00    +0.004 A 
ATOM     11  C   UNL     1       4.972  -3.809  23.219  0.00  0.00    +0.013 A 
ATOM     12  C   UNL     1       4.236  -4.085  24.389  0.00  0.00    +0.043 A 
BRANCH   8  13
ATOM     13  O   UNL     1       3.782  -7.690  24.003  0.00  0.00    -0.506 OA
ATOM     14  H   UNL     1       2.861  -7.793  23.712  0.00  0.00    +0.292 HD
ENDBRANCH   8  13
ENDBRANCH   2  12
ENDBRANCH   1   3
BRANCH   1  15
ATOM     15  C   UNL     1       5.796   0.163  25.691  0.00  0.00    +0.149 C 
BRANCH  15  16
ATOM     16  O   UNL     1       6.176   1.152  26.662  0.00  0.00    -0.389 OA
ATOM     17  H   UNL     1       7.132   1.007  26.789  0.00  0.00    +0.210 HD
ENDBRANCH  15  16
BRANCH  15  18
ATOM     18  C   UNL     1       7.052  -0.515  25.126  0.00  0.00    +0.118 C 
BRANCH  18  19
ATOM     19  N   UNL     1       6.985  -0.905  23.695  0.00  0.00    -0.289 NA
ATOM     20  C   UNL     1       8.228  -1.507  23.112  0.00  0.00    +0.143 C 
ATOM     21  C   UNL     1       9.364  -0.478  22.982  0.00  0.00    +0.032 C 
ATOM     22  C   UNL     1       8.989   0.742  22.152  0.00  0.00    -0.005 C 
ATOM     23  C   UNL     1       7.714   1.393  22.682  0.00  0.00    +0.006 C 
ATOM     24  C   UNL     1       7.935   2.393  23.842  0.00  0.00    +0.005 C 
ATOM     25  C   UNL     1       9.359   2.601  24.384  0.00  0.00    +0.000 C 
ATOM     26  C   UNL     1      10.534   2.244  23.477  0.00  0.00    +0.000 C 
ATOM     27  C   UNL     1      10.134   1.752  22.095  0.00  0.00    +0.004 C 
ATOM     28  C   UNL     1       6.618   0.309  22.902  0.00  0.00    +0.089 C 
BRANCH  20  29
ATOM     29  C   UNL     1       8.821  -2.698  23.898  0.00  0.00    +0.231 C 
ATOM     30  N   UNL     1       7.957  -3.522  24.596  0.00  0.00    -0.309 N 
ATOM     31  H   UNL     1       6.975  -3.277  24.587  0.00  0.00    +0.149 HD
ATOM     32  O   UNL     1      10.038  -2.884  23.886  0.00  0.00    -0.274 OA
BRANCH  30  33
ATOM     33  C   UNL     1       8.377  -4.658  25.472  0.00  0.00    +0.026 C 
ATOM     34  C   UNL     1       9.226  -5.732  24.760  0.00  0.00    +0.031 C 
ATOM     35  C   UNL     1       7.115  -5.362  25.996  0.00  0.00    +0.031 C 
ATOM     36  C   UNL     1       9.163  -4.138  26.688  0.00  0.00    +0.031 C 
ENDBRANCH  30  33
ENDBRANCH  20  29
ENDBRANCH  18  19
ENDBRANCH  15  18
ENDBRANCH   1  15
BRANCH   1  37
ATOM     37  C   UNL     1       5.083  -1.035  27.820  0.00  0.00    +0.099 C 
BRANCH  37  38
ATOM     38  S   UNL     1       3.523  -1.323  28.762  0.00  0.00    -0.123 S 
BRANCH  38  39
ATOM     39  C   UNL     1       3.628  -3.075  29.072  0.00  0.00    +0.008 A 
ATOM     40  C   UNL     1       4.791  -3.787  28.767  0.00  0.00    +0.015 A 
ATOM     41  C   UNL     1       4.851  -5.167  28.976  0.00  0.00    +0.001 A 
ATOM     42  C   UNL     1       3.749  -5.848  29.481  0.00  0.00    +0.000 A 
ATOM     43  C   UNL     1       2.583  -5.150  29.788  0.00  0.00    +0.001 A 
ATOM     44  C   UNL     1       2.519  -3.762  29.580  0.00  0.00    +0.015 A 
ENDBRANCH  38  39
ENDBRANCH  37  38
ENDBRANCH   1  37
TORSDOF 12
ENDMDL
MODEL 2
REMARK VINA RESULT:      -6.4      2.396      5.054
REMARK  Name = 
REMARK  16 active torsions:
REMARK  status: ('A' for Active; 'I' for Inactive)
REMARK    1  A    between atoms: C_1  and  C_2
REMARK    2  A    between atoms: C_3  and  C_9
REMARK    3  A    between atoms: C_7  and  O_8
REMARK    4  A    between atoms: N_11  and  C_12
REMARK    5  A    between atoms: C_12  and  C_14
REMARK    6  A    between atoms: C_12  and  C_22
REMARK    7  A    between atoms: C_14  and  S_15
REMARK    8  A    between atoms: S_15  and  C_16
REMARK    9  A    between atoms: C_22  and  C_24
REMARK   10  A    between atoms: C_22  and  O_45
REMARK   11  A    between atoms: C_24  and  N_25
REMARK   12  A    between atoms: C_36  and  C_38
REMARK   13  A    between atoms: N_40  and  C_41
REMARK   14  A    between atoms: C_41  and  C_42
REMARK   15  A    between atoms: C_41  and  C_43
REMARK   16  A    between atoms: C_41  and  C_44
REMARK                            x       y       z     vdW  Elec       q    Type
REMARK                         _______ _______ _______ _____ _____    ______ ____
ROOT
ATOM      1  C   UNL     1       6.982  -3.802  24.674  0.00  0.00    +0.113 C 
ENDROOT
BRANCH   1   3
ATOM      2  C   UNL     1       6.411  -4.648  26.935  0.00  0.00    +0.245 C 
ATOM      3  N   UNL     1       6.031  -4.306  25.664  0.00  0.00    -0.305 N 
ATOM      4  H   UNL     1       5.047  -4.200  25.429  0.00  0.00    +0.149 HD
ATOM      5  O   UNL     1       7.576  -4.589  27.324  0.00  0.00    -0.270 OA
BRANCH   2  12
ATOM      6  C   UNL     1       4.475  -2.580  28.228  0.00  0.00    +0.048 C 
ATOM      7  C   UNL     1       4.456  -4.063  28.487  0.00  0.00    +0.003 A 
ATOM      8  C   UNL     1       3.474  -4.566  29.359  0.00  0.00    +0.120 A 
ATOM      9  C   UNL     1       3.349  -5.930  29.631  0.00  0.00    +0.046 A 
ATOM     10  C   UNL     1       4.212  -6.834  29.025  0.00  0.00    +0.004 A 
ATOM     11  C   UNL     1       5.195  -6.367  28.157  0.00  0.00    +0.013 A 
ATOM     12  C   UNL     1       5.329  -4.991  27.887  0.00  0.00    +0.043 A 
BRANCH   8  13
ATOM     13  O   UNL     1       2.608  -3.682  29.944  0.00  0.00    -0.506 OA
ATOM     14  H   UNL     1       3.090  -2.869  30.163  0.00  0.00    +0.292 HD
ENDBRANCH   8  13
ENDBRANCH   2  12
ENDBRANCH   1   3
BRANCH   1  15
ATOM     15  C   UNL     1       6.399  -2.528  24.048  0.00  0.00    +0.149 C 
BRANCH  15  16
ATOM     16  O   UNL     1       5.372  -1.978  24.889  0.00  0.00    -0.389 OA
ATOM     17  H   UNL     1       5.455  -2.475  25.724  0.00  0.00    +0.210 HD
ENDBRANCH  15  16
BRANCH  15  18
ATOM     18  C   UNL     1       7.487  -1.473  23.803  0.00  0.00    +0.118 C 
BRANCH  18  19
ATOM     19  N   UNL     1       8.747  -1.657  24.566  0.00  0.00    -0.289 NA
ATOM     20  C   UNL     1       9.092  -0.580  25.550  0.00  0.00    +0.143 C 
ATOM     21  C   UNL     1       9.474   0.738  24.855  0.00  0.00    +0.032 C 
ATOM     22  C   UNL     1      10.632   0.597  23.876  0.00  0.00    -0.005 C 
ATOM     23  C   UNL     1      10.353  -0.504  22.855  0.00  0.00    +0.006 C 
ATOM     24  C   UNL     1       9.522  -0.051  21.630  0.00  0.00    +0.005 C 
ATOM     25  C   UNL     1       9.017   1.400  21.569  0.00  0.00    +0.000 C 
ATOM     26  C   UNL     1       9.745   2.452  22.403  0.00  0.00    +0.000 C 
ATOM     27  C   UNL     1      10.939   1.921  23.180  0.00  0.00    +0.004 C 
ATOM     28  C   UNL     1       9.867  -1.791  23.584  0.00  0.00    +0.089 C 
BRANCH  20  29
ATOM     29  C   UNL     1       7.978  -0.221  26.559  0.00  0.00    +0.231 C 
ATOM     30  N   UNL     1       7.689   1.115  26.773  0.00  0.00    -0.309 N 
ATOM     31  H   UNL     1       8.253   1.795  26.281  0.00  0.00    +0.149 HD
ATOM     32  O   UNL     1       7.380  -1.122  27.146  0.00  0.00    -0.274 OA
BRANCH  30  33
ATOM     33  C   UNL     1       6.706   1.629  27.775  0.00  0.00    +0.026 C 
ATOM     34  C   UNL     1       6.946   1.131  29.216  0.00  0.00    +0.031 C 
ATOM     35  C   UNL     1       5.302   1.157  27.369  0.00  0.00    +0.031 C 
ATOM     36  C   UNL     1       6.700   3.167  27.783  0.00  0.00    +0.031 C 
ENDBRANCH  30  33
ENDBRANCH  20  29
ENDBRANCH  18  19
ENDBRANCH  15  18
ENDBRANCH   1  15
BRANCH   1  37
ATOM     37  C   UNL     1       7.279  -4.876  23.615  0.00  0.00    +0.099 C 
BRANCH  37  38
ATOM     38  S   UNL     1       5.945  -5.008  22.349  0.00  0.00    -0.123 S 
BRANCH  38  39
ATOM     39  C   UNL     1       4.598  -5.635  23.334  0.00  0.00    +0.008 A 
ATOM     40  C   UNL     1       3.396  -4.930  23.434  0.00  0.00    +0.015 A 
ATOM     41  C   UNL     1       2.359  -5.408  24.239  0.00  0.00    +0.001 A 
ATOM     42  C   UNL     1       2.518  -6.587  24.960  0.00  0.00    +0.000 A 
ATOM     43  C   UNL     1       3.713  -7.298  24.872  0.00  0.00    +0.001 A 
ATOM     44  C   UNL     1       4.757  -6.821  24.061  0.00  0.00    +0.015 A 
ENDBRANCH  38  39
ENDBRANCH  37  38
ENDBRANCH   1  37
TORSDOF 12
ENDMDL
MODEL 3
REMARK VINA RESULT:      -6.3      2.028      6.621
REMARK  Name = 
REMARK  16 active torsions:
REMARK  status: ('A' for Active; 'I' for Inactive)
REMARK    1  A    between atoms: C_1  and  C_2
REMARK    2  A    between atoms: C_3  and  C_9
REMARK    3  A    between atoms: C_7  and  O_8
REMARK    4  A    between atoms: N_11  and  C_12
REMARK    5  A    between atoms: C_12  and  C_14
REMARK    6  A    between atoms: C_12  and  C_22
REMARK    7  A    between atoms: C_14  and  S_15
REMARK    8  A    between atoms: S_15  and  C_16
REMARK    9  A    between atoms: C_22  and  C_24
REMARK   10  A    between atoms: C_22  and  O_45
REMARK   11  A    between atoms: C_24  and  N_25
REMARK   12  A    between atoms: C_36  and  C_38
REMARK   13  A    between atoms: N_40  and  C_41
REMARK   14  A    between atoms: C_41  and  C_42
REMARK   15  A    between atoms: C_41  and  C_43
REMARK   16  A    between atoms: C_41  and  C_44
REMARK                            x       y       z     vdW  Elec       q    Type
REMARK                         _______ _______ _______ _____ _____    ______ ____
ROOT
ATOM      1  C   UNL     1       5.848  -0.750  26.729  0.00  0.00    +0.113 C 
ENDROOT
BRANCH   1   3
ATOM      2  C   UNL     1       7.605   0.162  25.234  0.00  0.00    +0.245 C 
ATOM      3  N   UNL     1       6.492  -0.615  25.423  0.00  0.00    -0.305 N 
ATOM      4  H   UNL     1       6.197  -1.278  24.711  0.00  0.00    +0.149 HD
ATOM      5  O   UNL     1       8.121   0.823  26.133  0.00  0.00    -0.270 OA
BRANCH   2  12
ATOM      6  C   UNL     1       9.651  -2.028  24.385  0.00  0.00    +0.048 C 
ATOM      7  C   UNL     1       9.189  -0.891  23.514  0.00  0.00    +0.003 A 
ATOM      8  C   UNL     1       9.695  -0.817  22.204  0.00  0.00    +0.120 A 
ATOM      9  C   UNL     1       9.298   0.175  21.306  0.00  0.00    +0.046 A 
ATOM     10  C   UNL     1       8.367   1.129  21.703  0.00  0.00    +0.004 A 
ATOM     11  C   UNL     1       7.848   1.083  22.993  0.00  0.00    +0.013 A 
ATOM     12  C   UNL     1       8.254   0.088  23.904  0.00  0.00    +0.043 A 
BRANCH   8  13
ATOM     13  O   UNL     1      10.597  -1.766  21.800  0.00  0.00    -0.506 OA
ATOM     14  H   UNL     1      11.410  -1.322  21.510  0.00  0.00    +0.292 HD
ENDBRANCH   8  13
ENDBRANCH   2  12
ENDBRANCH   1   3
BRANCH   1  15
ATOM     15  C   UNL     1       5.864  -2.233  27.124  0.00  0.00    +0.149 C 
BRANCH  15  16
ATOM     16  O   UNL     1       4.728  -2.548  27.946  0.00  0.00    -0.389 OA
ATOM     17  H   UNL     1       5.090  -2.577  28.852  0.00  0.00    +0.210 HD
ENDBRANCH  15  16
BRANCH  15  18
ATOM     18  C   UNL     1       5.877  -3.144  25.888  0.00  0.00    +0.118 C 
BRANCH  18  19
ATOM     19  N   UNL     1       4.559  -3.687  25.473  0.00  0.00    -0.289 NA
ATOM     20  C   UNL     1       4.421  -5.179  25.485  0.00  0.00    +0.143 C 
ATOM     21  C   UNL     1       5.262  -5.847  24.385  0.00  0.00    +0.032 C 
ATOM     22  C   UNL     1       4.938  -5.348  22.982  0.00  0.00    -0.005 C 
ATOM     23  C   UNL     1       5.039  -3.826  22.907  0.00  0.00    +0.006 C 
ATOM     24  C   UNL     1       6.467  -3.287  22.645  0.00  0.00    +0.005 C 
ATOM     25  C   UNL     1       7.631  -4.286  22.541  0.00  0.00    +0.000 C 
ATOM     26  C   UNL     1       7.308  -5.736  22.187  0.00  0.00    +0.000 C 
ATOM     27  C   UNL     1       5.834  -6.006  21.934  0.00  0.00    +0.004 C 
ATOM     28  C   UNL     1       4.265  -3.184  24.096  0.00  0.00    +0.089 C 
BRANCH  20  29
ATOM     29  C   UNL     1       4.822  -5.874  26.806  0.00  0.00    +0.231 C 
ATOM     30  N   UNL     1       4.204  -5.470  27.976  0.00  0.00    -0.309 N 
ATOM     31  H   UNL     1       3.542  -4.707  27.911  0.00  0.00    +0.149 HD
ATOM     32  O   UNL     1       5.675  -6.760  26.788  0.00  0.00    -0.274 OA
BRANCH  30  33
ATOM     33  C   UNL     1       4.540  -5.976  29.342  0.00  0.00    +0.026 C 
ATOM     34  C   UNL     1       6.003  -6.439  29.507  0.00  0.00    +0.031 C 
ATOM     35  C   UNL     1       3.652  -7.193  29.643  0.00  0.00    +0.031 C 
ATOM     36  C   UNL     1       4.242  -4.904  30.402  0.00  0.00    +0.031 C 
ENDBRANCH  30  33
ENDBRANCH  20  29
ENDBRANCH  18  19
ENDBRANCH  15  18
ENDBRANCH   1  15
BRANCH   1  37
ATOM     37  C   UNL     1       4.419  -0.184  26.688  0.00  0.00    +0.099 C 
BRANCH  37  38
ATOM     38  S   UNL     1       4.307   1.501  27.429  0.00  0.00    -0.123 S 
BRANCH  38  39
ATOM     39  C   UNL     1       4.945   2.504  26.102  0.00  0.00    +0.008 A 
ATOM     40  C   UNL     1       5.936   3.460  26.340  0.00  0.00    +0.015 A 
ATOM     41  C   UNL     1       6.403   4.270  25.303  0.00  0.00    +0.001 A 
ATOM     42  C   UNL     1       5.878   4.140  24.021  0.00  0.00    +0.000 A 
ATOM     43  C   UNL     1       4.888   3.192  23.770  0.00  0.00    +0.001 A 
ATOM     44  C   UNL     1       4.417   2.374  24.811  0.00  0.00    +0.015 A 
ENDBRANCH  38  39
ENDBRANCH  37  38
ENDBRANCH   1  37
TORSDOF 12
ENDMDL
MODEL 4
REMARK VINA RESULT:      -6.2      2.037      4.697
REMARK  Name = 
REMARK  16 active torsions:
REMARK  status: ('A' for Active; 'I' for Inactive)
REMARK    1  A    between atoms: C_1  and  C_2
REMARK    2  A    between atoms: C_3  and  C_9
REMARK    3  A    between atoms: C_7  and  O_8
REMARK    4  A    between atoms: N_11  and  C_12
REMARK    5  A    between atoms: C_12  and  C_14
REMARK    6  A    between atoms: C_12  and  C_22
REMARK    7  A    between atoms: C_14  and  S_15
REMARK    8  A    between atoms: S_15  and  C_16
REMARK    9  A    between atoms: C_22  and  C_24
REMARK   10  A    between atoms: C_22  and  O_45
REMARK   11  A    between atoms: C_24  and  N_25
REMARK   12  A    between atoms: C_36  and  C_38
REMARK   13  A    between atoms: N_40  and  C_41
REMARK   14  A    between atoms: C_41  and  C_42
REMARK   15  A    between atoms: C_41  and  C_43
REMARK   16  A    between atoms: C_41  and  C_44
REMARK                            x       y       z     vdW  Elec       q    Type
REMARK                         _______ _______ _______ _____ _____    ______ ____
ROOT
ATOM      1  C   UNL     1       4.525  -1.120  26.447  0.00  0.00    +0.113 C 
ENDROOT
BRANCH   1   3
ATOM      2  C   UNL     1       4.749  -2.958  24.797  0.00  0.00    +0.245 C 
ATOM      3  N   UNL     1       5.321  -2.015  25.610  0.00  0.00    -0.305 N 
ATOM      4  H   UNL     1       6.303  -1.772  25.508  0.00  0.00    +0.149 HD
ATOM      5  O   UNL     1       3.535  -3.142  24.736  0.00  0.00    -0.270 OA
BRANCH   2  12
ATOM      6  C   UNL     1       7.111  -4.767  25.721  0.00  0.00    +0.048 C 
ATOM      7  C   UNL     1       6.733  -4.501  24.288  0.00  0.00    +0.003 A 
ATOM      8  C   UNL     1       7.483  -5.135  23.281  0.00  0.00    +0.120 A 
ATOM      9  C   UNL     1       7.186  -4.984  21.925  0.00  0.00    +0.046 A 
ATOM     10  C   UNL     1       6.114  -4.188  21.540  0.00  0.00    +0.004 A 
ATOM     11  C   UNL     1       5.353  -3.547  22.513  0.00  0.00    +0.013 A 
ATOM     12  C   UNL     1       5.655  -3.690  23.882  0.00  0.00    +0.043 A 
BRANCH   8  13
ATOM     13  O   UNL     1       8.528  -5.936  23.655  0.00  0.00    -0.506 OA
ATOM     14  H   UNL     1       9.246  -5.378  23.995  0.00  0.00    +0.292 HD
ENDBRANCH   8  13
ENDBRANCH   2  12
ENDBRANCH   1   3
BRANCH   1  15
ATOM     15  C   UNL     1       5.001   0.319  26.205  0.00  0.00    +0.149 C 
BRANCH  15  16
ATOM     16  O   UNL     1       5.203   0.999  27.455  0.00  0.00    -0.389 OA
ATOM     17  H   UNL     1       4.376   1.500  27.590  0.00  0.00    +0.210 HD
ENDBRANCH  15  16
BRANCH  15  18
ATOM     18  C   UNL     1       6.297   0.352  25.383  0.00  0.00    +0.118 C 
BRANCH  18  19
ATOM     19  N   UNL     1       7.487   0.904  26.077  0.00  0.00    -0.289 NA
ATOM     20  C   UNL     1       8.127   2.104  25.446  0.00  0.00    +0.143 C 
ATOM     21  C   UNL     1       8.818   1.758  24.116  0.00  0.00    +0.032 C 
ATOM     22  C   UNL     1       9.872   0.666  24.243  0.00  0.00    -0.005 C 
ATOM     23  C   UNL     1       9.288  -0.582  24.901  0.00  0.00    +0.006 C 
ATOM     24  C   UNL     1       8.569  -1.547  23.928  0.00  0.00    +0.005 C 
ATOM     25  C   UNL     1       8.456  -1.160  22.444  0.00  0.00    +0.000 C 
ATOM     26  C   UNL     1       9.455  -0.150  21.885  0.00  0.00    +0.000 C 
ATOM     27  C   UNL     1      10.492   0.328  22.888  0.00  0.00    +0.004 C 
ATOM     28  C   UNL     1       8.505  -0.185  26.187  0.00  0.00    +0.089 C 
BRANCH  20  29
ATOM     29  C   UNL     1       7.173   3.280  25.136  0.00  0.00    +0.231 C 
ATOM     30  N   UNL     1       7.324   3.951  23.936  0.00  0.00    -0.309 N 
ATOM     31  H   UNL     1       8.083   3.659  23.334  0.00  0.00    +0.149 HD
ATOM     32  O   UNL     1       6.311   3.591  25.957  0.00  0.00    -0.274 OA
BRANCH  30  33
ATOM     33  C   UNL     1       6.545   5.159  23.527  0.00  0.00    +0.026 C 
ATOM     34  C   UNL     1       5.046   4.894  23.270  0.00  0.00    +0.031 C 
ATOM     35  C   UNL     1       7.133   5.697  22.213  0.00  0.00    +0.031 C 
ATOM     36  C   UNL     1       6.673   6.267  24.586  0.00  0.00    +0.031 C 
ENDBRANCH  30  33
ENDBRANCH  20  29
ENDBRANCH  18  19
ENDBRANCH  15  18
ENDBRANCH   1  15
BRANCH   1  37
ATOM     37  C   UNL     1       4.639  -1.520  27.927  0.00  0.00    +0.099 C 
BRANCH  37  38
ATOM     38  S   UNL     1       3.251  -2.603  28.475  0.00  0.00    -0.123 S 
BRANCH  38  39
ATOM     39  C   UNL     1       3.987  -4.217  28.309  0.00  0.00    +0.008 A 
ATOM     40  C   UNL     1       3.411  -5.185  27.482  0.00  0.00    +0.015 A 
ATOM     41  C   UNL     1       3.971  -6.461  27.388  0.00  0.00    +0.001 A 
ATOM     42  C   UNL     1       5.106  -6.784  28.125  0.00  0.00    +0.000 A 
ATOM     43  C   UNL     1       5.690  -5.829  28.955  0.00  0.00    +0.001 A 
ATOM     44  C   UNL     1       5.129  -4.544  29.051  0.00  0.00    +0.015 A 
ENDBRANCH  38  39
ENDBRANCH  37  38
ENDBRANCH   1  37
TORSDOF 12
ENDMDL
MODEL 5
REMARK VINA RESULT:      -6.2      2.457      6.333
REMARK  Name = 
REMARK  16 active torsions:
REMARK  status: ('A' for Active; 'I' for Inactive)
REMARK    1  A    between atoms: C_1  and  C_2
REMARK    2  A    between atoms: C_3  and  C_9
REMARK    3  A    between atoms: C_7  and  O_8
REMARK    4  A    between atoms: N_11  and  C_12
REMARK    5  A    between atoms: C_12  and  C_14
REMARK    6  A    between atoms: C_12  and  C_22
REMARK    7  A    between atoms: C_14  and  S_15
REMARK    8  A    between atoms: S_15  and  C_16
REMARK    9  A    between atoms: C_22  and  C_24
REMARK   10  A    between atoms: C_22  and  O_45
REMARK   11  A    between atoms: C_24  and  N_25
REMARK   12  A    between atoms: C_36  and  C_38
REMARK   13  A    between atoms: N_40  and  C_41
REMARK   14  A    between atoms: C_41  and  C_42
REMARK   15  A    between atoms: C_41  and  C_43
REMARK   16  A    between atoms: C_41  and  C_44
REMARK                            x       y       z     vdW  Elec       q    Type
REMARK                         _______ _______ _______ _____ _____    ______ ____
ROOT
ATOM      1  C   UNL     1       7.680  -2.056  24.026  0.00  0.00    +0.113 C 
ENDROOT
BRANCH   1   3
ATOM      2  C   UNL     1       7.146  -4.420  24.558  0.00  0.00    +0.245 C 
ATOM      3  N   UNL     1       6.735  -3.138  24.299  0.00  0.00    -0.305 N 
ATOM      4  H   UNL     1       5.776  -2.856  24.484  0.00  0.00    +0.149 HD
ATOM      5  O   UNL     1       8.328  -4.759  24.549  0.00  0.00    -0.270 OA
BRANCH   2  12
ATOM      6  C   UNL     1       6.759  -5.453  27.470  0.00  0.00    +0.048 C 
ATOM      7  C   UNL     1       5.926  -5.868  26.287  0.00  0.00    +0.003 A 
ATOM      8  C   UNL     1       4.872  -6.773  26.508  0.00  0.00    +0.120 A 
ATOM      9  C   UNL     1       4.019  -7.186  25.483  0.00  0.00    +0.046 A 
ATOM     10  C   UNL     1       4.200  -6.694  24.196  0.00  0.00    +0.004 A 
ATOM     11  C   UNL     1       5.235  -5.797  23.945  0.00  0.00    +0.013 A 
ATOM     12  C   UNL     1       6.103  -5.385  24.976  0.00  0.00    +0.043 A 
BRANCH   8  13
ATOM     13  O   UNL     1       4.676  -7.246  27.778  0.00  0.00    -0.506 OA
ATOM     14  H   UNL     1       4.980  -8.167  27.820  0.00  0.00    +0.292 HD
ENDBRANCH   8  13
ENDBRANCH   2  12
ENDBRANCH   1   3
BRANCH   1  15
ATOM     15  C   UNL     1       6.915  -0.726  24.061  0.00  0.00    +0.149 C 
BRANCH  15  16
ATOM     16  O   UNL     1       6.396  -0.410  22.759  0.00  0.00    -0.389 OA
ATOM     17  H   UNL     1       6.544   0.551  22.670  0.00  0.00    +0.210 HD
ENDBRANCH  15  16
BRANCH  15  18
ATOM     18  C   UNL     1       5.767  -0.765  25.080  0.00  0.00    +0.118 C 
BRANCH  18  19
ATOM     19  N   UNL     1       6.173  -0.807  26.508  0.00  0.00    -0.289 NA
ATOM     20  C   UNL     1       5.113  -0.463  27.510  0.00  0.00    +0.143 C 
ATOM     21  C   UNL     1       4.730   1.026  27.459  0.00  0.00    +0.032 C 
ATOM     22  C   UNL     1       5.910   1.966  27.669  0.00  0.00    -0.005 C 
ATOM     23  C   UNL     1       7.039   1.653  26.689  0.00  0.00    +0.006 C 
ATOM     24  C   UNL     1       6.894   2.328  25.303  0.00  0.00    +0.005 C 
ATOM     25  C   UNL     1       5.647   3.180  25.017  0.00  0.00    +0.000 C 
ATOM     26  C   UNL     1       4.877   3.752  26.206  0.00  0.00    +0.000 C 
ATOM     27  C   UNL     1       5.485   3.429  27.561  0.00  0.00    +0.004 C 
ATOM     28  C   UNL     1       7.329   0.123  26.687  0.00  0.00    +0.089 C 
BRANCH  20  29
ATOM     29  C   UNL     1       3.788  -1.247  27.373  0.00  0.00    +0.231 C 
ATOM     30  N   UNL     1       3.705  -2.503  27.946  0.00  0.00    -0.309 N 
ATOM     31  H   UNL     1       4.536  -2.863  28.397  0.00  0.00    +0.149 HD
ATOM     32  O   UNL     1       2.847  -0.742  26.762  0.00  0.00    -0.274 OA
BRANCH  30  33
ATOM     33  C   UNL     1       2.531  -3.421  27.829  0.00  0.00    +0.026 C 
ATOM     34  C   UNL     1       1.182  -2.787  28.229  0.00  0.00    +0.031 C 
ATOM     35  C   UNL     1       2.754  -4.620  28.765  0.00  0.00    +0.031 C 
ATOM     36  C   UNL     1       2.412  -3.962  26.395  0.00  0.00    +0.031 C 
ENDBRANCH  30  33
ENDBRANCH  20  29
ENDBRANCH  18  19
ENDBRANCH  15  18
ENDBRANCH   1  15
BRANCH   1  37
ATOM     37  C   UNL     1       8.381  -2.278  22.676  0.00  0.00    +0.099 C 
BRANCH  37  38
ATOM     38  S   UNL     1      10.186  -1.906  22.748  0.00  0.00    -0.123 S 
BRANCH  38  39
ATOM     39  C   UNL     1      10.163  -0.132  22.916  0.00  0.00    +0.008 A 
ATOM     40  C   UNL     1      10.530   0.478  24.119  0.00  0.00    +0.015 A 
ATOM     41  C   UNL     1      10.472   1.866  24.256  0.00  0.00    +0.001 A 
ATOM     42  C   UNL     1      10.038   2.658  23.197  0.00  0.00    +0.000 A 
ATOM     43  C   UNL     1       9.667   2.063  21.993  0.00  0.00    +0.001 A 
ATOM     44  C   UNL     1       9.726   0.666  21.852  0.00  0.00    +0.015 A 
ENDBRANCH  38  39
ENDBRANCH  37  38
ENDBRANCH   1  37
TORSDOF 12
ENDMDL
MODEL 6
REMARK VINA RESULT:      -6.1      2.318      6.172
REMARK  Name = 
REMARK  16 active torsions:
REMARK  status: ('A' for Active; 'I' for Inactive)
REMARK    1  A    between atoms: C_1  and  C_2
REMARK    2  A    between atoms: C_3  and  C_9
REMARK    3  A    between atoms: C_7  and  O_8
REMARK    4  A    between atoms: N_11  and  C_12
REMARK    5  A    between atoms: C_12  and  C_14
REMARK    6  A    between atoms: C_12  and  C_22
REMARK    7  A    between atoms: C_14  and  S_15
REMARK    8  A    between atoms: S_15  and  C_16
REMARK    9  A    between atoms: C_22  and  C_24
REMARK   10  A    between atoms: C_22  and  O_45
REMARK   11  A    between atoms: C_24  and  N_25
REMARK   12  A    between atoms: C_36  and  C_38
REMARK   13  A    between atoms: N_40  and  C_41
REMARK   14  A    between atoms: C_41  and  C_42
REMARK   15  A    between atoms: C_41  and  C_43
REMARK   16  A    between atoms: C_41  and  C_44
REMARK                            x       y       z     vdW  Elec       q    Type
REMARK                         _______ _______ _______ _____ _____    ______ ____
ROOT
ATOM      1  C   UNL     1       7.926  -2.513  25.453  0.00  0.00    +0.113 C 
ENDROOT
BRANCH   1   3
ATOM      2  C   UNL     1       7.038  -4.822  25.259  0.00  0.00    +0.245 C 
ATOM      3  N   UNL     1       6.828  -3.479  25.432  0.00  0.00    -0.305 N 
ATOM      4  H   UNL     1       5.926  -3.134  25.750  0.00  0.00    +0.149 HD
ATOM      5  O   UNL     1       8.154  -5.307  25.078  0.00  0.00    -0.270 OA
BRANCH   2  12
ATOM      6  C   UNL     1       5.409  -6.036  22.899  0.00  0.00    +0.048 C 
ATOM      7  C   UNL     1       5.111  -6.253  24.359  0.00  0.00    +0.003 A 
ATOM      8  C   UNL     1       4.030  -7.089  24.693  0.00  0.00    +0.120 A 
ATOM      9  C   UNL     1       3.700  -7.385  26.016  0.00  0.00    +0.046 A 
ATOM     10  C   UNL     1       4.456  -6.847  27.051  0.00  0.00    +0.004 A 
ATOM     11  C   UNL     1       5.532  -6.015  26.753  0.00  0.00    +0.013 A 
ATOM     12  C   UNL     1       5.863  -5.708  25.418  0.00  0.00    +0.043 A 
BRANCH   8  13
ATOM     13  O   UNL     1       3.294  -7.638  23.678  0.00  0.00    -0.506 OA
ATOM     14  H   UNL     1       3.755  -7.484  22.837  0.00  0.00    +0.292 HD
ENDBRANCH   8  13
ENDBRANCH   2  12
ENDBRANCH   1   3
BRANCH   1  15
ATOM     15  C   UNL     1       7.654  -1.497  26.570  0.00  0.00    +0.149 C 
BRANCH  15  16
ATOM     16  O   UNL     1       8.887  -0.935  27.051  0.00  0.00    -0.389 OA
ATOM     17  H   UNL     1       9.128  -1.502  27.808  0.00  0.00    +0.210 HD
ENDBRANCH  15  16
BRANCH  15  18
ATOM     18  C   UNL     1       6.724  -0.372  26.093  0.00  0.00    +0.118 C 
BRANCH  18  19
ATOM     19  N   UNL     1       6.303   0.601  27.132  0.00  0.00    -0.289 NA
ATOM     20  C   UNL     1       4.841   0.931  27.179  0.00  0.00    +0.143 C 
ATOM     21  C   UNL     1       4.392   1.745  25.954  0.00  0.00    +0.032 C 
ATOM     22  C   UNL     1       5.170   3.042  25.767  0.00  0.00    -0.005 C 
ATOM     23  C   UNL     1       6.673   2.777  25.732  0.00  0.00    +0.006 C 
ATOM     24  C   UNL     1       7.225   2.379  24.342  0.00  0.00    +0.005 C 
ATOM     25  C   UNL     1       6.246   2.233  23.166  0.00  0.00    +0.000 C 
ATOM     26  C   UNL     1       4.903   2.956  23.253  0.00  0.00    +0.000 C 
ATOM     27  C   UNL     1       4.718   3.787  24.512  0.00  0.00    +0.004 C 
ATOM     28  C   UNL     1       7.077   1.863  26.926  0.00  0.00    +0.089 C 
BRANCH  20  29
ATOM     29  C   UNL     1       3.887  -0.283  27.254  0.00  0.00    +0.231 C 
ATOM     30  N   UNL     1       4.197  -1.310  28.127  0.00  0.00    -0.309 N 
ATOM     31  H   UNL     1       5.061  -1.231  28.648  0.00  0.00    +0.149 HD
ATOM     32  O   UNL     1       2.885  -0.309  26.541  0.00  0.00    -0.274 OA
BRANCH  30  33
ATOM     33  C   UNL     1       3.430  -2.587  28.254  0.00  0.00    +0.026 C 
ATOM     34  C   UNL     1       3.147  -3.297  26.913  0.00  0.00    +0.031 C 
ATOM     35  C   UNL     1       2.066  -2.275  28.889  0.00  0.00    +0.031 C 
ATOM     36  C   UNL     1       4.166  -3.567  29.182  0.00  0.00    +0.031 C 
ENDBRANCH  30  33
ENDBRANCH  20  29
ENDBRANCH  18  19
ENDBRANCH  15  18
ENDBRANCH   1  15
BRANCH   1  37
ATOM     37  C   UNL     1       8.072  -1.832  24.082  0.00  0.00    +0.099 C 
BRANCH  37  38
ATOM     38  S   UNL     1       9.807  -1.869  23.458  0.00  0.00    -0.123 S 
BRANCH  38  39
ATOM     39  C   UNL     1      10.125  -0.131  23.224  0.00  0.00    +0.008 A 
ATOM     40  C   UNL     1      10.657   0.644  24.258  0.00  0.00    +0.015 A 
ATOM     41  C   UNL     1      10.866   2.013  24.080  0.00  0.00    +0.001 A 
ATOM     42  C   UNL     1      10.536   2.622  22.874  0.00  0.00    +0.000 A 
ATOM     43  C   UNL     1      10.003   1.861  21.836  0.00  0.00    +0.001 A 
ATOM     44  C   UNL     1       9.793   0.483  22.011  0.00  0.00    +0.015 A 
ENDBRANCH  38  39
ENDBRANCH  37  38
ENDBRANCH   1  37
TORSDOF 12
ENDMDL
MODEL 7
REMARK VINA RESULT:      -6.1      2.208      3.577
REMARK  Name = 
REMARK  16 active torsions:
REMARK  status: ('A' for Active; 'I' for Inactive)
REMARK    1  A    between atoms: C_1  and  C_2
REMARK    2  A    between atoms: C_3  and  C_9
REMARK    3  A    between atoms: C_7  and  O_8
REMARK    4  A    between atoms: N_11  and  C_12
REMARK    5  A    between atoms: C_12  and  C_14
REMARK    6  A    between atoms: C_12  and  C_22
REMARK    7  A    between atoms: C_14  and  S_15
REMARK    8  A    between atoms: S_15  and  C_16
REMARK    9  A    between atoms: C_22  and  C_24
REMARK   10  A    between atoms: C_22  and  O_45
REMARK   11  A    between atoms: C_24  and  N_25
REMARK   12  A    between atoms: C_36  and  C_38
REMARK   13  A    between atoms: N_40  and  C_41
REMARK   14  A    between atoms: C_41  and  C_42
REMARK   15  A    between atoms: C_41  and  C_43
REMARK   16  A    between atoms: C_41  and  C_44
REMARK                            x       y       z     vdW  Elec       q    Type
REMARK                         _______ _______ _______ _____ _____    ______ ____
ROOT
ATOM      1  C   UNL     1       5.316  -2.594  24.630  0.00  0.00    +0.113 C 
ENDROOT
BRANCH   1   3
ATOM      2  C   UNL     1       3.370  -4.130  24.702  0.00  0.00    +0.245 C 
ATOM      3  N   UNL     1       4.680  -3.887  24.383  0.00  0.00    -0.305 N 
ATOM      4  H   UNL     1       5.194  -4.528  23.785  0.00  0.00    +0.149 HD
ATOM      5  O   UNL     1       2.647  -3.296  25.243  0.00  0.00    -0.270 OA
BRANCH   2  12
ATOM      6  C   UNL     1       3.904  -6.867  26.088  0.00  0.00    +0.048 C 
ATOM      7  C   UNL     1       3.046  -6.668  24.867  0.00  0.00    +0.003 A 
ATOM      8  C   UNL     1       2.412  -7.797  24.317  0.00  0.00    +0.120 A 
ATOM      9  C   UNL     1       1.565  -7.709  23.211  0.00  0.00    +0.046 A 
ATOM     10  C   UNL     1       1.327  -6.472  22.623  0.00  0.00    +0.004 A 
ATOM     11  C   UNL     1       1.941  -5.337  23.144  0.00  0.00    +0.013 A 
ATOM     12  C   UNL     1       2.802  -5.423  24.255  0.00  0.00    +0.043 A 
BRANCH   8  13
ATOM     13  O   UNL     1       2.627  -9.015  24.904  0.00  0.00    -0.506 OA
ATOM     14  H   UNL     1       3.538  -9.045  25.239  0.00  0.00    +0.292 HD
ENDBRANCH   8  13
ENDBRANCH   2  12
ENDBRANCH   1   3
BRANCH   1  15
ATOM     15  C   UNL     1       6.432  -2.399  23.594  0.00  0.00    +0.149 C 
BRANCH  15  16
ATOM     16  O   UNL     1       5.883  -2.334  22.268  0.00  0.00    -0.389 OA
ATOM     17  H   UNL     1       6.290  -1.537  21.880  0.00  0.00    +0.210 HD
ENDBRANCH  15  16
BRANCH  15  18
ATOM     18  C   UNL     1       7.248  -1.129  23.879  0.00  0.00    +0.118 C 
BRANCH  18  19
ATOM     19  N   UNL     1       8.666  -1.346  24.262  0.00  0.00    -0.289 NA
ATOM     20  C   UNL     1       9.255  -0.353  25.218  0.00  0.00    +0.143 C 
ATOM     21  C   UNL     1       9.435   1.032  24.575  0.00  0.00    +0.032 C 
ATOM     22  C   UNL     1      10.292   1.013  23.316  0.00  0.00    -0.005 C 
ATOM     23  C   UNL     1       9.757   0.002  22.306  0.00  0.00    +0.006 C 
ATOM     24  C   UNL     1       8.629   0.540  21.391  0.00  0.00    +0.005 C 
ATOM     25  C   UNL     1       8.121   1.975  21.603  0.00  0.00    +0.000 C 
ATOM     26  C   UNL     1       9.041   2.968  22.311  0.00  0.00    +0.000 C 
ATOM     27  C   UNL     1      10.400   2.403  22.691  0.00  0.00    +0.004 C 
ATOM     28  C   UNL     1       9.485  -1.359  23.011  0.00  0.00    +0.089 C 
BRANCH  20  29
ATOM     29  C   UNL     1       8.447  -0.117  26.514  0.00  0.00    +0.231 C 
ATOM     30  N   UNL     1       7.678   1.028  26.612  0.00  0.00    -0.309 N 
ATOM     31  H   UNL     1       7.714   1.678  25.837  0.00  0.00    +0.149 HD
ATOM     32  O   UNL     1       8.508  -0.946  27.422  0.00  0.00    -0.274 OA
BRANCH  30  33
ATOM     33  C   UNL     1       6.912   1.444  27.826  0.00  0.00    +0.026 C 
ATOM     34  C   UNL     1       7.588   1.075  29.164  0.00  0.00    +0.031 C 
ATOM     35  C   UNL     1       5.547   0.739  27.807  0.00  0.00    +0.031 C 
ATOM     36  C   UNL     1       6.657   2.960  27.808  0.00  0.00    +0.031 C 
ENDBRANCH  30  33
ENDBRANCH  20  29
ENDBRANCH  18  19
ENDBRANCH  15  18
ENDBRANCH   1  15
BRANCH   1  37
ATOM     37  C   UNL     1       5.851  -2.521  26.069  0.00  0.00    +0.099 C 
BRANCH  37  38
ATOM     38  S   UNL     1       6.941  -3.947  26.490  0.00  0.00    -0.123 S 
BRANCH  38  39
ATOM     39  C   UNL     1       6.058  -4.661  27.864  0.00  0.00    +0.008 A 
ATOM     40  C   UNL     1       6.504  -5.841  28.466  0.00  0.00    +0.015 A 
ATOM     41  C   UNL     1       5.785  -6.415  29.516  0.00  0.00    +0.001 A 
ATOM     42  C   UNL     1       4.609  -5.824  29.967  0.00  0.00    +0.000 A 
ATOM     43  C   UNL     1       4.152  -4.649  29.374  0.00  0.00    +0.001 A 
ATOM     44  C   UNL     1       4.874  -4.067  28.318  0.00  0.00    +0.015 A 
ENDBRANCH  38  39
ENDBRANCH  37  38
ENDBRANCH   1  37
TORSDOF 12
ENDMDL
MODEL 8
REMARK VINA RESULT:      -6.0      2.014      5.745
REMARK  Name = 
REMARK  16 active torsions:
REMARK  status: ('A' for Active; 'I' for Inactive)
REMARK    1  A    between atoms: C_1  and  C_2
REMARK    2  A    between atoms: C_3  and  C_9
REMARK    3  A    between atoms: C_7  and  O_8
REMARK    4  A    between atoms: N_11  and  C_12
REMARK    5  A    between atoms: C_12  and  C_14
REMARK    6  A    between atoms: C_12  and  C_22
REMARK    7  A    between atoms: C_14  and  S_15
REMARK    8  A    between atoms: S_15  and  C_16
REMARK    9  A    between atoms: C_22  and  C_24
REMARK   10  A    between atoms: C_22  and  O_45
REMARK   11  A    between atoms: C_24  and  N_25
REMARK   12  A    between atoms: C_36  and  C_38
REMARK   13  A    between atoms: N_40  and  C_41
REMARK   14  A    between atoms: C_41  and  C_42
REMARK   15  A    between atoms: C_41  and  C_43
REMARK   16  A    between atoms: C_41  and  C_44
REMARK                            x       y       z     vdW  Elec       q    Type
REMARK                         _______ _______ _______ _____ _____    ______ ____
ROOT
ATOM      1  C   UNL     1       4.797  -0.867  26.540  0.00  0.00    +0.113 C 
ENDROOT
BRANCH   1   3
ATOM      2  C   UNL     1       3.563  -2.906  27.229  0.00  0.00    +0.245 C 
ATOM      3  N   UNL     1       4.675  -2.317  26.687  0.00  0.00    -0.305 N 
ATOM      4  H   UNL     1       5.363  -2.874  26.188  0.00  0.00    +0.149 HD
ATOM      5  O   UNL     1       2.607  -2.263  27.659  0.00  0.00    -0.270 OA
BRANCH   2  12
ATOM      6  C   UNL     1       5.562  -4.819  28.658  0.00  0.00    +0.048 C 
ATOM      7  C   UNL     1       4.401  -5.259  27.807  0.00  0.00    +0.003 A 
ATOM      8  C   UNL     1       4.178  -6.640  27.660  0.00  0.00    +0.120 A 
ATOM      9  C   UNL     1       3.105  -7.147  26.925  0.00  0.00    +0.046 A 
ATOM     10  C   UNL     1       2.215  -6.271  26.314  0.00  0.00    +0.004 A 
ATOM     11  C   UNL     1       2.409  -4.899  26.440  0.00  0.00    +0.013 A 
ATOM     12  C   UNL     1       3.496  -4.384  27.175  0.00  0.00    +0.043 A 
BRANCH   8  13
ATOM     13  O   UNL     1       5.040  -7.508  28.276  0.00  0.00    -0.506 OA
ATOM     14  H   UNL     1       5.863  -7.037  28.484  0.00  0.00    +0.292 HD
ENDBRANCH   8  13
ENDBRANCH   2  12
ENDBRANCH   1   3
BRANCH   1  15
ATOM     15  C   UNL     1       5.698  -0.578  25.331  0.00  0.00    +0.149 C 
BRANCH  15  16
ATOM     16  O   UNL     1       6.891   0.107  25.745  0.00  0.00    -0.389 OA
ATOM     17  H   UNL     1       7.587  -0.576  25.699  0.00  0.00    +0.210 HD
ENDBRANCH  15  16
BRANCH  15  18
ATOM     18  C   UNL     1       6.073  -1.869  24.589  0.00  0.00    +0.118 C 
BRANCH  18  19
ATOM     19  N   UNL     1       7.413  -2.426  24.901  0.00  0.00    -0.289 NA
ATOM     20  C   UNL     1       8.381  -2.509  23.759  0.00  0.00    +0.143 C 
ATOM     21  C   UNL     1       7.965  -3.566  22.723  0.00  0.00    +0.032 C 
ATOM     22  C   UNL     1       7.798  -4.962  23.310  0.00  0.00    -0.005 C 
ATOM     23  C   UNL     1       6.838  -4.944  24.496  0.00  0.00    +0.006 C 
ATOM     24  C   UNL     1       5.341  -5.051  24.115  0.00  0.00    +0.005 C 
ATOM     25  C   UNL     1       4.955  -5.107  22.628  0.00  0.00    +0.000 C 
ATOM     26  C   UNL     1       6.011  -5.567  21.626  0.00  0.00    +0.000 C 
ATOM     27  C   UNL     1       7.339  -5.962  22.251  0.00  0.00    +0.004 C 
ATOM     28  C   UNL     1       7.223  -3.794  25.473  0.00  0.00    +0.089 C 
BRANCH  20  29
ATOM     29  C   UNL     1       8.588  -1.197  22.967  0.00  0.00    +0.231 C 
ATOM     30  N   UNL     1       8.826  -0.032  23.674  0.00  0.00    -0.309 N 
ATOM     31  H   UNL     1       8.814  -0.093  24.684  0.00  0.00    +0.149 HD
ATOM     32  O   UNL     1       8.535  -1.219  21.738  0.00  0.00    -0.274 OA
BRANCH  30  33
ATOM     33  C   UNL     1       8.959   1.327  23.066  0.00  0.00    +0.026 C 
ATOM     34  C   UNL     1      10.024   1.425  21.953  0.00  0.00    +0.031 C 
ATOM     35  C   UNL     1       9.373   2.315  24.167  0.00  0.00    +0.031 C 
ATOM     36  C   UNL     1       7.610   1.796  22.496  0.00  0.00    +0.031 C 
ENDBRANCH  30  33
ENDBRANCH  20  29
ENDBRANCH  18  19
ENDBRANCH  15  18
ENDBRANCH   1  15
BRANCH   1  37
ATOM     37  C   UNL     1       5.349  -0.238  27.829  0.00  0.00    +0.099 C 
BRANCH  37  38
ATOM     38  S   UNL     1       4.439   1.291  28.314  0.00  0.00    -0.123 S 
BRANCH  38  39
ATOM     39  C   UNL     1       5.271   2.515  27.322  0.00  0.00    +0.008 A 
ATOM     40  C   UNL     1       4.724   2.947  26.111  0.00  0.00    +0.015 A 
ATOM     41  C   UNL     1       5.401   3.877  25.319  0.00  0.00    +0.001 A 
ATOM     42  C   UNL     1       6.634   4.376  25.725  0.00  0.00    +0.000 A 
ATOM     43  C   UNL     1       7.193   3.953  26.929  0.00  0.00    +0.001 A 
ATOM     44  C   UNL     1       6.513   3.018  27.728  0.00  0.00    +0.015 A 
ENDBRANCH  38  39
ENDBRANCH  37  38
ENDBRANCH   1  37
TORSDOF 12
ENDMDL
MODEL 9
REMARK VINA RESULT:      -6.0      2.860      8.125
REMARK  Name = 
REMARK  16 active torsions:
REMARK  status: ('A' for Active; 'I' for Inactive)
REMARK    1  A    between atoms: C_1  and  C_2
REMARK    2  A    between atoms: C_3  and  C_9
REMARK    3  A    between atoms: C_7  and  O_8
REMARK    4  A    between atoms: N_11  and  C_12
REMARK    5  A    between atoms: C_12  and  C_14
REMARK    6  A    between atoms: C_12  and  C_22
REMARK    7  A    between atoms: C_14  and  S_15
REMARK    8  A    between atoms: S_15  and  C_16
REMARK    9  A    between atoms: C_22  and  C_24
REMARK   10  A    between atoms: C_22  and  O_45
REMARK   11  A    between atoms: C_24  and  N_25
REMARK   12  A    between atoms: C_36  and  C_38
REMARK   13  A    between atoms: N_40  and  C_41
REMARK   14  A    between atoms: C_41  and  C_42
REMARK   15  A    between atoms: C_41  and  C_43
REMARK   16  A    between atoms: C_41  and  C_44
REMARK                            x       y       z     vdW  Elec       q    Type
REMARK                         _______ _______ _______ _____ _____    ______ ____
ROOT
ATOM      1  C   UNL     1       8.453  -1.043  24.954  0.00  0.00    +0.113 C 
ENDROOT
BRANCH   1   3
ATOM      2  C   UNL     1       8.140   1.317  24.257  0.00  0.00    +0.245 C 
ATOM      3  N   UNL     1       8.877   0.355  24.895  0.00  0.00    -0.305 N 
ATOM      4  H   UNL     1       9.638   0.615  25.518  0.00  0.00    +0.149 HD
ATOM      5  O   UNL     1       7.091   1.073  23.663  0.00  0.00    -0.270 OA
BRANCH   2  12
ATOM      6  C   UNL     1      10.419   2.624  22.585  0.00  0.00    +0.048 C 
ATOM      7  C   UNL     1       9.633   3.316  23.666  0.00  0.00    +0.003 A 
ATOM      8  C   UNL     1       9.925   4.666  23.931  0.00  0.00    +0.120 A 
ATOM      9  C   UNL     1       9.225   5.406  24.885  0.00  0.00    +0.046 A 
ATOM     10  C   UNL     1       8.198   4.805  25.603  0.00  0.00    +0.004 A 
ATOM     11  C   UNL     1       7.884   3.470  25.364  0.00  0.00    +0.013 A 
ATOM     12  C   UNL     1       8.595   2.718  24.408  0.00  0.00    +0.043 A 
BRANCH   8  13
ATOM     13  O   UNL     1      10.923   5.269  23.212  0.00  0.00    -0.506 OA
ATOM     14  H   UNL     1      10.865   6.230  23.340  0.00  0.00    +0.292 HD
ENDBRANCH   8  13
ENDBRANCH   2  12
ENDBRANCH   1   3
BRANCH   1  15
ATOM     15  C   UNL     1       8.349  -1.455  26.428  0.00  0.00    +0.149 C 
BRANCH  15  16
ATOM     16  O   UNL     1       8.861  -0.417  27.279  0.00  0.00    -0.389 OA
ATOM     17  H   UNL     1       8.601  -0.695  28.178  0.00  0.00    +0.210 HD
ENDBRANCH  15  16
BRANCH  15  18
ATOM     18  C   UNL     1       6.900  -1.778  26.820  0.00  0.00    +0.118 C 
BRANCH  18  19
ATOM     19  N   UNL     1       5.853  -0.970  26.145  0.00  0.00    -0.289 NA
ATOM     20  C   UNL     1       4.703  -0.526  26.997  0.00  0.00    +0.143 C 
ATOM     21  C   UNL     1       3.804  -1.702  27.413  0.00  0.00    +0.032 C 
ATOM     22  C   UNL     1       3.249  -2.492  26.234  0.00  0.00    -0.005 C 
ATOM     23  C   UNL     1       4.373  -2.956  25.311  0.00  0.00    +0.006 C 
ATOM     24  C   UNL     1       5.048  -4.284  25.735  0.00  0.00    +0.005 C 
ATOM     25  C   UNL     1       4.588  -4.971  27.031  0.00  0.00    +0.000 C 
ATOM     26  C   UNL     1       3.197  -4.640  27.568  0.00  0.00    +0.000 C 
ATOM     27  C   UNL     1       2.404  -3.675  26.703  0.00  0.00    +0.004 C 
ATOM     28  C   UNL     1       5.325  -1.766  24.995  0.00  0.00    +0.089 C 
BRANCH  20  29
ATOM     29  C   UNL     1       5.086   0.199  28.307  0.00  0.00    +0.231 C 
ATOM     30  N   UNL     1       5.774   1.396  28.220  0.00  0.00    -0.309 N 
ATOM     31  H   UNL     1       6.026   1.719  27.294  0.00  0.00    +0.149 HD
ATOM     32  O   UNL     1       4.776  -0.301  29.388  0.00  0.00    -0.274 OA
BRANCH  30  33
ATOM     33  C   UNL     1       6.292   2.173  29.386  0.00  0.00    +0.026 C 
ATOM     34  C   UNL     1       5.243   2.452  30.483  0.00  0.00    +0.031 C 
ATOM     35  C   UNL     1       6.784   3.540  28.883  0.00  0.00    +0.031 C 
ATOM     36  C   UNL     1       7.490   1.451  30.026  0.00  0.00    +0.031 C 
ENDBRANCH  30  33
ENDBRANCH  20  29
ENDBRANCH  18  19
ENDBRANCH  15  18
ENDBRANCH   1  15
BRANCH   1  37
ATOM     37  C   UNL     1       9.433  -1.938  24.176  0.00  0.00    +0.099 C 
BRANCH  37  38
ATOM     38  S   UNL     1       9.232  -3.725  24.584  0.00  0.00    -0.123 S 
BRANCH  38  39
ATOM     39  C   UNL     1       8.006  -4.215  23.388  0.00  0.00    +0.008 A 
ATOM     40  C   UNL     1       7.345  -3.261  22.608  0.00  0.00    +0.015 A 
ATOM     41  C   UNL     1       6.358  -3.650  21.701  0.00  0.00    +0.001 A 
ATOM     42  C   UNL     1       6.013  -4.991  21.571  0.00  0.00    +0.000 A 
ATOM     43  C   UNL     1       6.662  -5.952  22.344  0.00  0.00    +0.001 A 
ATOM     44  C   UNL     1       7.658  -5.565  23.256  0.00  0.00    +0.015 A 
ENDBRANCH  38  39
ENDBRANCH  37  38
ENDBRANCH   1  37
TORSDOF 12
ENDMDL
