MODEL 1
REMARK VINA RESULT:      -6.5      0.000      0.000
REMARK  Name = 
REMARK  23 active torsions:
REMARK  status: ('A' for Active; 'I' for Inactive)
REMARK    1  A    between atoms: C_1  and  C_2
REMARK    2  A    between atoms: C_2  and  C_3
REMARK    3  A    between atoms: C_2  and  C_4
REMARK    4  A    between atoms: C_6  and  C_9
REMARK    5  A    between atoms: C_9  and  N_10
REMARK    6  A    between atoms: N_10  and  C_11
REMARK    7  A    between atoms: N_14  and  C_15
REMARK    8  A    between atoms: C_15  and  C_17
REMARK    9  A    between atoms: C_15  and  C_20
REMARK   10  A    between atoms: C_17  and  C_18
REMARK   11  A    between atoms: C_17  and  C_19
REMARK   12  A    between atoms: N_22  and  C_23
REMARK   13  A    between atoms: C_23  and  C_47
REMARK   14  A    between atoms: C_24  and  C_25
REMARK   15  A    between atoms: C_25  and  C_27
REMARK   16  A    between atoms: C_25  and  O_46
REMARK   17  A    between atoms: C_27  and  C_29
REMARK   18  A    between atoms: C_27  and  N_36
REMARK   19  A    between atoms: C_29  and  C_30
REMARK   20  A    between atoms: C_37  and  O_39
REMARK   21  A    between atoms: O_39  and  C_40
REMARK   22  A    between atoms: C_40  and  C_41
REMARK   23  A    between atoms: C_47  and  C_48
REMARK                            x       y       z     vdW  Elec       q    Type
REMARK                         _______ _______ _______ _____ _____    ______ ____
ROOT
ATOM      1  C   UNL     1       5.710  -1.821  26.850  0.00  0.00    +0.013 C 
ATOM      2  C   UNL     1       6.990  -1.998  26.457  0.00  0.00    +0.025 C 
ENDROOT
BRANCH   1   4
ATOM      3  C   UNL     1       4.728   0.406  26.908  0.00  0.00    +0.238 C 
ATOM      4  N   UNL     1       5.302  -0.686  27.572  0.00  0.00    -0.287 N 
ATOM      5  H   UNL     1       4.671  -0.920  28.338  0.00  0.00    +0.155 HD
ATOM      6  O   UNL     1       4.589   0.440  25.679  0.00  0.00    -0.273 OA
BRANCH   3   7
ATOM      7  C   UNL     1       4.465   1.701  27.769  0.00  0.00    +0.163 C 
BRANCH   7  10
ATOM      8  N   UNL     1       6.105   5.014  26.906  0.00  0.00    -0.283 N 
ATOM      9  C   UNL     1       6.064   3.651  27.307  0.00  0.00    +0.303 C 
ATOM     10  N   UNL     1       4.806   3.052  27.224  0.00  0.00    -0.288 N 
ATOM     11  H   UNL     1       4.172   3.430  26.542  0.00  0.00    +0.151 HD
ATOM     12  O   UNL     1       7.041   3.045  27.705  0.00  0.00    -0.253 OA
ATOM     13  C   UNL     1       4.936   5.881  26.959  0.00  0.00    +0.134 C 
BRANCH   8  14
ATOM     14  C   UNL     1       7.397   5.752  27.008  0.00  0.00    +0.164 C 
BRANCH  14  18
ATOM     15  C   UNL     1       9.825   5.848  24.206  0.00  0.00    +0.081 A 
ATOM     16  S   UNL     1       8.554   6.416  23.185  0.00  0.00    -0.080 S 
ATOM     17  C   UNL     1       7.475   6.408  24.511  0.00  0.00    +0.071 A 
ATOM     18  C   UNL     1       8.104   5.982  25.665  0.00  0.00    +0.066 A 
ATOM     19  N   UNL     1       9.467   5.658  25.470  0.00  0.00    -0.247 NA
BRANCH  15  21
ATOM     20  C   UNL     1      12.295   6.338  24.413  0.00  0.00    +0.014 C 
ATOM     21  C   UNL     1      11.207   5.655  23.586  0.00  0.00    +0.038 C 
ATOM     22  C   UNL     1      11.559   4.185  23.349  0.00  0.00    +0.014 C 
ENDBRANCH  15  21
ENDBRANCH  14  18
ENDBRANCH   8  14
ENDBRANCH   7  10
BRANCH   7  23
ATOM     23  C   UNL     1       2.956   1.583  28.200  0.00  0.00    +0.012 C 
ATOM     24  C   UNL     1       1.993   2.312  27.258  0.00  0.00    +0.009 C 
ATOM     25  C   UNL     1       2.682   1.984  29.651  0.00  0.00    +0.009 C 
ENDBRANCH   7  23
ENDBRANCH   3   7
ENDBRANCH   1   4
BRANCH   2  26
ATOM     26  C   UNL     1       8.250  -1.229  26.753  0.00  0.00    +0.159 C 
BRANCH  26  27
ATOM     27  O   UNL     1       7.916   0.091  27.195  0.00  0.00    -0.386 OA
ATOM     28  H   UNL     1       8.455   0.687  26.641  0.00  0.00    +0.210 HD
ENDBRANCH  26  27
BRANCH  26  29
ATOM     29  C   UNL     1       9.250  -1.116  25.550  0.00  0.00    +0.113 C 
BRANCH  29  30
ATOM     30  N   UNL     1       8.673  -1.722  24.338  0.00  0.00    -0.275 N 
ATOM     31  H   UNL     1       8.094  -1.133  23.750  0.00  0.00    +0.152 HD
ATOM     32  C   UNL     1       9.274  -2.747  23.665  0.00  0.00    +0.401 C 
ATOM     33  O   UNL     1      10.249  -3.370  24.067  0.00  0.00    -0.226 OA
BRANCH  32  34
ATOM     34  O   UNL     1       8.700  -2.905  22.453  0.00  0.00    -0.445 OA
BRANCH  34  35
ATOM     35  C   UNL     1       7.340  -2.452  22.369  0.00  0.00    +0.278 C 
BRANCH  35  36
ATOM     36  C   UNL     1       6.410  -3.615  22.362  0.00  0.00    +0.046 A 
ATOM     37  S   UNL     1       6.974  -5.214  22.090  0.00  0.00    -0.077 S 
ATOM     38  C   UNL     1       5.406  -5.814  22.444  0.00  0.00    +0.156 A 
ATOM     39  N   UNL     1       4.489  -4.911  22.712  0.00  0.00    -0.255 NA
ATOM     40  C   UNL     1       5.060  -3.653  22.655  0.00  0.00    +0.125 A 
ENDBRANCH  35  36
ENDBRANCH  34  35
ENDBRANCH  32  34
ENDBRANCH  29  30
BRANCH  29  41
ATOM     41  C   UNL     1       9.705   0.345  25.310  0.00  0.00    +0.060 C 
BRANCH  41  42
ATOM     42  C   UNL     1       9.164   1.092  24.108  0.00  0.00    -0.046 A 
ATOM     43  C   UNL     1       9.716   0.990  22.825  0.00  0.00    +0.004 A 
ATOM     44  C   UNL     1       9.253   1.805  21.786  0.00  0.00    +0.000 A 
ATOM     45  C   UNL     1       8.242   2.737  22.018  0.00  0.00    +0.000 A 
ATOM     46  C   UNL     1       7.686   2.851  23.287  0.00  0.00    +0.000 A 
ATOM     47  C   UNL     1       8.144   2.036  24.322  0.00  0.00    +0.004 A 
ENDBRANCH  41  42
ENDBRANCH  29  41
ENDBRANCH  26  29
ENDBRANCH   2  26
BRANCH   1  48
ATOM     48  C   UNL     1       4.654  -2.850  26.408  0.00  0.00    +0.085 C 
BRANCH  48  49
ATOM     49  C   UNL     1       4.789  -4.231  27.040  0.00  0.00    -0.042 A 
ATOM     50  C   UNL     1       4.676  -5.414  26.288  0.00  0.00    +0.004 A 
ATOM     51  C   UNL     1       4.888  -6.664  26.885  0.00  0.00    +0.000 A 
ATOM     52  C   UNL     1       5.206  -6.748  28.240  0.00  0.00    +0.000 A 
ATOM     53  C   UNL     1       5.276  -5.581  29.002  0.00  0.00    +0.000 A 
ATOM     54  C   UNL     1       5.055  -4.339  28.411  0.00  0.00    +0.004 A 
ENDBRANCH  48  49
ENDBRANCH   1  48
TORSDOF 18
ENDMDL
MODEL 2
REMARK VINA RESULT:      -6.5      3.332      8.035
REMARK  Name = 
REMARK  23 active torsions:
REMARK  status: ('A' for Active; 'I' for Inactive)
REMARK    1  A    between atoms: C_1  and  C_2
REMARK    2  A    between atoms: C_2  and  C_3
REMARK    3  A    between atoms: C_2  and  C_4
REMARK    4  A    between atoms: C_6  and  C_9
REMARK    5  A    between atoms: C_9  and  N_10
REMARK    6  A    between atoms: N_10  and  C_11
REMARK    7  A    between atoms: N_14  and  C_15
REMARK    8  A    between atoms: C_15  and  C_17
REMARK    9  A    between atoms: C_15  and  C_20
REMARK   10  A    between atoms: C_17  and  C_18
REMARK   11  A    between atoms: C_17  and  C_19
REMARK   12  A    between atoms: N_22  and  C_23
REMARK   13  A    between atoms: C_23  and  C_47
REMARK   14  A    between atoms: C_24  and  C_25
REMARK   15  A    between atoms: C_25  and  C_27
REMARK   16  A    between atoms: C_25  and  O_46
REMARK   17  A    between atoms: C_27  and  C_29
REMARK   18  A    between atoms: C_27  and  N_36
REMARK   19  A    between atoms: C_29  and  C_30
REMARK   20  A    between atoms: C_37  and  O_39
REMARK   21  A    between atoms: O_39  and  C_40
REMARK   22  A    between atoms: C_40  and  C_41
REMARK   23  A    between atoms: C_47  and  C_48
REMARK                            x       y       z     vdW  Elec       q    Type
REMARK                         _______ _______ _______ _____ _____    ______ ____
ROOT
ATOM      1  C   UNL     1       4.363   5.395  23.566  0.00  0.00    +0.013 C 
ATOM      2  C   UNL     1       5.353   5.903  22.801  0.00  0.00    +0.025 C 
ENDROOT
BRANCH   1   4
ATOM      3  C   UNL     1       4.345   3.216  24.653  0.00  0.00    +0.238 C 
ATOM      4  N   UNL     1       4.625   4.589  24.688  0.00  0.00    -0.287 N 
ATOM      5  H   UNL     1       5.586   4.677  25.013  0.00  0.00    +0.155 HD
ATOM      6  O   UNL     1       3.833   2.666  23.670  0.00  0.00    -0.273 OA
BRANCH   3   7
ATOM      7  C   UNL     1       4.502   2.426  26.008  0.00  0.00    +0.163 C 
BRANCH   7  10
ATOM      8  N   UNL     1       6.285  -0.870  26.608  0.00  0.00    -0.283 N 
ATOM      9  C   UNL     1       5.178  -0.027  26.322  0.00  0.00    +0.303 C 
ATOM     10  N   UNL     1       5.500   1.317  26.126  0.00  0.00    -0.288 N 
ATOM     11  H   UNL     1       6.425   1.514  25.788  0.00  0.00    +0.151 HD
ATOM     12  O   UNL     1       4.032  -0.431  26.261  0.00  0.00    -0.253 OA
ATOM     13  C   UNL     1       7.515  -0.373  27.209  0.00  0.00    +0.134 C 
BRANCH   8  14
ATOM     14  C   UNL     1       6.034  -2.315  26.882  0.00  0.00    +0.164 C 
BRANCH  14  18
ATOM     15  C   UNL     1       7.163  -4.142  23.858  0.00  0.00    +0.081 A 
ATOM     16  S   UNL     1       8.356  -4.922  24.832  0.00  0.00    -0.080 S 
ATOM     17  C   UNL     1       7.776  -4.101  26.215  0.00  0.00    +0.071 A 
ATOM     18  C   UNL     1       6.714  -3.276  25.897  0.00  0.00    +0.066 A 
ATOM     19  N   UNL     1       6.373  -3.309  24.525  0.00  0.00    -0.247 NA
BRANCH  15  21
ATOM     20  C   UNL     1       6.839  -5.985  22.161  0.00  0.00    +0.014 C 
ATOM     21  C   UNL     1       7.108  -4.496  22.374  0.00  0.00    +0.038 C 
ATOM     22  C   UNL     1       6.100  -3.654  21.592  0.00  0.00    +0.014 C 
ENDBRANCH  15  21
ENDBRANCH  14  18
ENDBRANCH   8  14
ENDBRANCH   7  10
BRANCH   7  23
ATOM     23  C   UNL     1       4.712   3.548  27.092  0.00  0.00    +0.012 C 
ATOM     24  C   UNL     1       6.087   3.498  27.765  0.00  0.00    +0.009 C 
ATOM     25  C   UNL     1       3.608   3.619  28.148  0.00  0.00    +0.009 C 
ENDBRANCH   7  23
ENDBRANCH   3   7
ENDBRANCH   1   4
BRANCH   2  26
ATOM     26  C   UNL     1       6.842   5.679  22.802  0.00  0.00    +0.159 C 
BRANCH  26  27
ATOM     27  O   UNL     1       7.357   5.858  21.477  0.00  0.00    -0.386 OA
ATOM     28  H   UNL     1       7.623   4.964  21.188  0.00  0.00    +0.210 HD
ENDBRANCH  26  27
BRANCH  26  29
ATOM     29  C   UNL     1       7.297   4.274  23.331  0.00  0.00    +0.113 C 
BRANCH  29  30
ATOM     30  N   UNL     1       7.997   3.525  22.273  0.00  0.00    -0.275 N 
ATOM     31  H   UNL     1       8.950   3.794  22.060  0.00  0.00    +0.152 HD
ATOM     32  C   UNL     1       7.718   2.219  21.984  0.00  0.00    +0.401 C 
ATOM     33  O   UNL     1       6.776   1.587  22.444  0.00  0.00    -0.226 OA
BRANCH  32  34
ATOM     34  O   UNL     1       8.687   1.702  21.198  0.00  0.00    -0.445 OA
BRANCH  34  35
ATOM     35  C   UNL     1       9.964   1.555  21.837  0.00  0.00    +0.278 C 
BRANCH  35  36
ATOM     36  C   UNL     1      10.020   0.268  22.585  0.00  0.00    +0.046 A 
ATOM     37  S   UNL     1      10.027   0.227  24.302  0.00  0.00    -0.077 S 
ATOM     38  C   UNL     1       9.898  -1.482  24.249  0.00  0.00    +0.156 A 
ATOM     39  N   UNL     1       9.887  -2.024  23.052  0.00  0.00    -0.255 NA
ATOM     40  C   UNL     1       9.967  -1.024  22.100  0.00  0.00    +0.125 A 
ENDBRANCH  35  36
ENDBRANCH  34  35
ENDBRANCH  32  34
ENDBRANCH  29  30
BRANCH  29  41
ATOM     41  C   UNL     1       8.147   4.388  24.621  0.00  0.00    +0.060 C 
BRANCH  41  42
ATOM     42  C   UNL     1       9.395   5.247  24.603  0.00  0.00    -0.046 A 
ATOM     43  C   UNL     1      10.519   4.955  23.820  0.00  0.00    +0.004 A 
ATOM     44  C   UNL     1      11.688   5.715  23.946  0.00  0.00    +0.000 A 
ATOM     45  C   UNL     1      11.752   6.764  24.862  0.00  0.00    +0.000 A 
ATOM     46  C   UNL     1      10.645   7.064  25.647  0.00  0.00    +0.000 A 
ATOM     47  C   UNL     1       9.478   6.311  25.519  0.00  0.00    +0.004 A 
ENDBRANCH  41  42
ENDBRANCH  29  41
ENDBRANCH  26  29
ENDBRANCH   2  26
BRANCH   1  48
ATOM     48  C   UNL     1       2.910   5.795  23.252  0.00  0.00    +0.085 C 
BRANCH  48  49
ATOM     49  C   UNL     1       2.493   5.632  21.794  0.00  0.00    -0.042 A 
ATOM     50  C   UNL     1       2.399   6.725  20.915  0.00  0.00    +0.004 A 
ATOM     51  C   UNL     1       2.095   6.530  19.561  0.00  0.00    +0.000 A 
ATOM     52  C   UNL     1       1.871   5.244  19.072  0.00  0.00    +0.000 A 
ATOM     53  C   UNL     1       1.918   4.159  19.948  0.00  0.00    +0.000 A 
ATOM     54  C   UNL     1       2.212   4.354  21.296  0.00  0.00    +0.004 A 
ENDBRANCH  48  49
ENDBRANCH   1  48
TORSDOF 18
ENDMDL
MODEL 3
REMARK VINA RESULT:      -6.4      2.366      5.111
REMARK  Name = 
REMARK  23 active torsions:
REMARK  status: ('A' for Active; 'I' for Inactive)
REMARK    1  A    between atoms: C_1  and  C_2
REMARK    2  A    between atoms: C_2  and  C_3
REMARK    3  A    between atoms: C_2  and  C_4
REMARK    4  A    between atoms: C_6  and  C_9
REMARK    5  A    between atoms: C_9  and  N_10
REMARK    6  A    between atoms: N_10  and  C_11
REMARK    7  A    between atoms: N_14  and  C_15
REMARK    8  A    between atoms: C_15  and  C_17
REMARK    9  A    between atoms: C_15  and  C_20
REMARK   10  A    between atoms: C_17  and  C_18
REMARK   11  A    between atoms: C_17  and  C_19
REMARK   12  A    between atoms: N_22  and  C_23
REMARK   13  A    between atoms: C_23  and  C_47
REMARK   14  A    between atoms: C_24  and  C_25
REMARK   15  A    between atoms: C_25  and  C_27
REMARK   16  A    between atoms: C_25  and  O_46
REMARK   17  A    between atoms: C_27  and  C_29
REMARK   18  A    between atoms: C_27  and  N_36
REMARK   19  A    between atoms: C_29  and  C_30
REMARK   20  A    between atoms: C_37  and  O_39
REMARK   21  A    between atoms: O_39  and  C_40
REMARK   22  A    between atoms: C_40  and  C_41
REMARK   23  A    between atoms: C_47  and  C_48
REMARK                            x       y       z     vdW  Elec       q    Type
REMARK                         _______ _______ _______ _____ _____    ______ ____
ROOT
ATOM      1  C   UNL     1       8.389  -0.865  26.155  0.00  0.00    +0.013 C 
ATOM      2  C   UNL     1       8.202  -2.168  25.857  0.00  0.00    +0.025 C 
ENDROOT
BRANCH   1   4
ATOM      3  C   UNL     1       6.404   0.545  26.181  0.00  0.00    +0.238 C 
ATOM      4  N   UNL     1       7.433  -0.117  26.864  0.00  0.00    -0.287 N 
ATOM      5  H   UNL     1       6.985  -0.659  27.602  0.00  0.00    +0.155 HD
ATOM      6  O   UNL     1       6.309   0.534  24.948  0.00  0.00    -0.273 OA
BRANCH   3   7
ATOM      7  C   UNL     1       5.487   1.501  27.036  0.00  0.00    +0.163 C 
BRANCH   7  10
ATOM      8  N   UNL     1       6.058   5.239  26.709  0.00  0.00    -0.283 N 
ATOM      9  C   UNL     1       6.430   3.881  26.899  0.00  0.00    +0.303 C 
ATOM     10  N   UNL     1       5.400   2.958  26.707  0.00  0.00    -0.288 N 
ATOM     11  H   UNL     1       4.663   3.230  26.081  0.00  0.00    +0.151 HD
ATOM     12  O   UNL     1       7.553   3.537  27.215  0.00  0.00    -0.253 OA
ATOM     13  C   UNL     1       4.688   5.708  26.875  0.00  0.00    +0.134 C 
BRANCH   8  14
ATOM     14  C   UNL     1       7.080   6.302  26.941  0.00  0.00    +0.164 C 
BRANCH  14  18
ATOM     15  C   UNL     1      10.174   6.624  24.922  0.00  0.00    +0.081 A 
ATOM     16  S   UNL     1       9.209   6.453  23.500  0.00  0.00    -0.080 S 
ATOM     17  C   UNL     1       7.798   6.360  24.461  0.00  0.00    +0.071 A 
ATOM     18  C   UNL     1       8.100   6.459  25.805  0.00  0.00    +0.066 A 
ATOM     19  N   UNL     1       9.484   6.609  26.056  0.00  0.00    -0.247 NA
BRANCH  15  21
ATOM     20  C   UNL     1      12.381   7.022  26.085  0.00  0.00    +0.014 C 
ATOM     21  C   UNL     1      11.680   6.803  24.746  0.00  0.00    +0.038 C 
ATOM     22  C   UNL     1      12.336   5.653  23.980  0.00  0.00    +0.014 C 
ENDBRANCH  15  21
ENDBRANCH  14  18
ENDBRANCH   8  14
ENDBRANCH   7  10
BRANCH   7  23
ATOM     23  C   UNL     1       4.080   0.795  27.037  0.00  0.00    +0.012 C 
ATOM     24  C   UNL     1       2.912   1.760  26.807  0.00  0.00    +0.009 C 
ATOM     25  C   UNL     1       3.812  -0.076  28.266  0.00  0.00    +0.009 C 
ENDBRANCH   7  23
ENDBRANCH   3   7
ENDBRANCH   1   4
BRANCH   2  26
ATOM     26  C   UNL     1       7.015  -3.079  26.023  0.00  0.00    +0.159 C 
BRANCH  26  27
ATOM     27  O   UNL     1       6.554  -3.028  27.378  0.00  0.00    -0.386 OA
ATOM     28  H   UNL     1       6.812  -2.143  27.699  0.00  0.00    +0.210 HD
ENDBRANCH  26  27
BRANCH  26  29
ATOM     29  C   UNL     1       7.275  -4.577  25.638  0.00  0.00    +0.113 C 
BRANCH  29  30
ATOM     30  N   UNL     1       6.002  -5.308  25.514  0.00  0.00    -0.275 N 
ATOM     31  H   UNL     1       5.668  -5.511  24.580  0.00  0.00    +0.152 HD
ATOM     32  C   UNL     1       5.561  -6.191  26.459  0.00  0.00    +0.401 C 
ATOM     33  O   UNL     1       6.075  -6.352  27.559  0.00  0.00    -0.226 OA
BRANCH  32  34
ATOM     34  O   UNL     1       4.541  -6.925  25.966  0.00  0.00    -0.445 OA
BRANCH  34  35
ATOM     35  C   UNL     1       4.508  -7.021  24.533  0.00  0.00    +0.278 C 
BRANCH  35  36
ATOM     36  C   UNL     1       3.100  -7.011  24.049  0.00  0.00    +0.046 A 
ATOM     37  S   UNL     1       1.947  -8.150  24.615  0.00  0.00    -0.077 S 
ATOM     38  C   UNL     1       0.717  -7.310  23.765  0.00  0.00    +0.156 A 
ATOM     39  N   UNL     1       1.107  -6.268  23.064  0.00  0.00    -0.255 NA
ATOM     40  C   UNL     1       2.472  -6.103  23.217  0.00  0.00    +0.125 A 
ENDBRANCH  35  36
ENDBRANCH  34  35
ENDBRANCH  32  34
ENDBRANCH  29  30
BRANCH  29  41
ATOM     41  C   UNL     1       8.146  -4.706  24.363  0.00  0.00    +0.060 C 
BRANCH  41  42
ATOM     42  C   UNL     1       7.464  -4.713  23.009  0.00  0.00    -0.046 A 
ATOM     43  C   UNL     1       6.819  -3.595  22.466  0.00  0.00    +0.004 A 
ATOM     44  C   UNL     1       6.097  -3.703  21.272  0.00  0.00    +0.000 A 
ATOM     45  C   UNL     1       6.002  -4.928  20.614  0.00  0.00    +0.000 A 
ATOM     46  C   UNL     1       6.635  -6.047  21.143  0.00  0.00    +0.000 A 
ATOM     47  C   UNL     1       7.359  -5.940  22.330  0.00  0.00    +0.004 A 
ENDBRANCH  41  42
ENDBRANCH  29  41
ENDBRANCH  26  29
ENDBRANCH   2  26
BRANCH   1  48
ATOM     48  C   UNL     1       9.733  -0.210  25.789  0.00  0.00    +0.085 C 
BRANCH  48  49
ATOM     49  C   UNL     1       9.777   0.458  24.419  0.00  0.00    -0.042 A 
ATOM     50  C   UNL     1       9.865  -0.282  23.226  0.00  0.00    +0.004 A 
ATOM     51  C   UNL     1       9.819   0.360  21.981  0.00  0.00    +0.000 A 
ATOM     52  C   UNL     1       9.695   1.746  21.912  0.00  0.00    +0.000 A 
ATOM     53  C   UNL     1       9.654   2.491  23.092  0.00  0.00    +0.000 A 
ATOM     54  C   UNL     1       9.709   1.854  24.330  0.00  0.00    +0.004 A 
ENDBRANCH  48  49
ENDBRANCH   1  48
TORSDOF 18
ENDMDL
MODEL 4
REMARK VINA RESULT:      -6.4      2.628      7.630
REMARK  Name = 
REMARK  23 active torsions:
REMARK  status: ('A' for Active; 'I' for Inactive)
REMARK    1  A    between atoms: C_1  and  C_2
REMARK    2  A    between atoms: C_2  and  C_3
REMARK    3  A    between atoms: C_2  and  C_4
REMARK    4  A    between atoms: C_6  and  C_9
REMARK    5  A    between atoms: C_9  and  N_10
REMARK    6  A    between atoms: N_10  and  C_11
REMARK    7  A    between atoms: N_14  and  C_15
REMARK    8  A    between atoms: C_15  and  C_17
REMARK    9  A    between atoms: C_15  and  C_20
REMARK   10  A    between atoms: C_17  and  C_18
REMARK   11  A    between atoms: C_17  and  C_19
REMARK   12  A    between atoms: N_22  and  C_23
REMARK   13  A    between atoms: C_23  and  C_47
REMARK   14  A    between atoms: C_24  and  C_25
REMARK   15  A    between atoms: C_25  and  C_27
REMARK   16  A    between atoms: C_25  and  O_46
REMARK   17  A    between atoms: C_27  and  C_29
REMARK   18  A    between atoms: C_27  and  N_36
REMARK   19  A    between atoms: C_29  and  C_30
REMARK   20  A    between atoms: C_37  and  O_39
REMARK   21  A    between atoms: O_39  and  C_40
REMARK   22  A    between atoms: C_40  and  C_41
REMARK   23  A    between atoms: C_47  and  C_48
REMARK                            x       y       z     vdW  Elec       q    Type
REMARK                         _______ _______ _______ _____ _____    ______ ____
ROOT
ATOM      1  C   UNL     1       6.330   4.506  23.024  0.00  0.00    +0.013 C 
ATOM      2  C   UNL     1       7.298   3.980  22.246  0.00  0.00    +0.025 C 
ENDROOT
BRANCH   1   4
ATOM      3  C   UNL     1       4.605   2.970  23.796  0.00  0.00    +0.238 C 
ATOM      4  N   UNL     1       5.723   3.773  24.059  0.00  0.00    -0.287 N 
ATOM      5  H   UNL     1       6.388   3.185  24.559  0.00  0.00    +0.155 HD
ATOM      6  O   UNL     1       4.088   2.896  22.675  0.00  0.00    -0.273 OA
BRANCH   3   7
ATOM      7  C   UNL     1       3.885   2.328  25.043  0.00  0.00    +0.163 C 
BRANCH   7  10
ATOM      8  N   UNL     1       6.028  -0.324  26.713  0.00  0.00    -0.283 N 
ATOM      9  C   UNL     1       5.572   0.492  25.642  0.00  0.00    +0.303 C 
ATOM     10  N   UNL     1       4.654   1.480  26.006  0.00  0.00    -0.288 N 
ATOM     11  H   UNL     1       4.705   1.814  26.952  0.00  0.00    +0.151 HD
ATOM     12  O   UNL     1       5.937   0.345  24.491  0.00  0.00    -0.253 OA
ATOM     13  C   UNL     1       5.245  -0.538  27.923  0.00  0.00    +0.134 C 
BRANCH   8  14
ATOM     14  C   UNL     1       6.973  -1.438  26.412  0.00  0.00    +0.164 C 
BRANCH  14  18
ATOM     15  C   UNL     1       5.022  -4.478  25.572  0.00  0.00    +0.081 A 
ATOM     16  S   UNL     1       5.862  -5.309  26.831  0.00  0.00    -0.080 S 
ATOM     17  C   UNL     1       6.706  -3.875  27.224  0.00  0.00    +0.071 A 
ATOM     18  C   UNL     1       6.329  -2.831  26.401  0.00  0.00    +0.066 A 
ATOM     19  N   UNL     1       5.354  -3.199  25.446  0.00  0.00    -0.247 NA
BRANCH  15  21
ATOM     20  C   UNL     1       3.711  -4.605  23.416  0.00  0.00    +0.014 C 
ATOM     21  C   UNL     1       3.986  -5.260  24.769  0.00  0.00    +0.038 C 
ATOM     22  C   UNL     1       4.355  -6.733  24.584  0.00  0.00    +0.014 C 
ENDBRANCH  15  21
ENDBRANCH  14  18
ENDBRANCH   8  14
ENDBRANCH   7  10
BRANCH   7  23
ATOM     23  C   UNL     1       3.163   3.539  25.743  0.00  0.00    +0.012 C 
ATOM     24  C   UNL     1       3.523   3.690  27.225  0.00  0.00    +0.009 C 
ATOM     25  C   UNL     1       1.644   3.557  25.563  0.00  0.00    +0.009 C 
ENDBRANCH   7  23
ENDBRANCH   3   7
ENDBRANCH   1   4
BRANCH   2  26
ATOM     26  C   UNL     1       7.859   2.587  22.139  0.00  0.00    +0.159 C 
BRANCH  26  27
ATOM     27  O   UNL     1       6.791   1.633  22.175  0.00  0.00    -0.386 OA
ATOM     28  H   UNL     1       6.875   1.129  21.343  0.00  0.00    +0.210 HD
ENDBRANCH  26  27
BRANCH  26  29
ATOM     29  C   UNL     1       8.904   2.210  23.246  0.00  0.00    +0.113 C 
BRANCH  29  30
ATOM     30  N   UNL     1       8.871   0.763  23.518  0.00  0.00    -0.275 N 
ATOM     31  H   UNL     1       8.521   0.156  22.787  0.00  0.00    +0.152 HD
ATOM     32  C   UNL     1       9.751   0.150  24.365  0.00  0.00    +0.401 C 
ATOM     33  O   UNL     1      10.540   0.734  25.096  0.00  0.00    -0.226 OA
BRANCH  32  34
ATOM     34  O   UNL     1       9.691  -1.189  24.204  0.00  0.00    -0.445 OA
BRANCH  34  35
ATOM     35  C   UNL     1       8.818  -1.629  23.151  0.00  0.00    +0.278 C 
BRANCH  35  36
ATOM     36  C   UNL     1       8.433  -3.052  23.363  0.00  0.00    +0.046 A 
ATOM     37  S   UNL     1       7.254  -3.820  22.378  0.00  0.00    -0.077 S 
ATOM     38  C   UNL     1       7.606  -5.314  23.142  0.00  0.00    +0.156 A 
ATOM     39  N   UNL     1       8.508  -5.276  24.098  0.00  0.00    -0.255 NA
ATOM     40  C   UNL     1       8.973  -3.981  24.232  0.00  0.00    +0.125 A 
ENDBRANCH  35  36
ENDBRANCH  34  35
ENDBRANCH  32  34
ENDBRANCH  29  30
BRANCH  29  41
ATOM     41  C   UNL     1      10.330   2.702  22.889  0.00  0.00    +0.060 C 
BRANCH  41  42
ATOM     42  C   UNL     1      10.782   4.060  23.388  0.00  0.00    -0.046 A 
ATOM     43  C   UNL     1      12.096   4.527  23.263  0.00  0.00    +0.004 A 
ATOM     44  C   UNL     1      12.480   5.733  23.861  0.00  0.00    +0.000 A 
ATOM     45  C   UNL     1      11.561   6.479  24.597  0.00  0.00    +0.000 A 
ATOM     46  C   UNL     1      10.253   6.027  24.731  0.00  0.00    +0.000 A 
ATOM     47  C   UNL     1       9.868   4.827  24.132  0.00  0.00    +0.004 A 
ENDBRANCH  41  42
ENDBRANCH  29  41
ENDBRANCH  26  29
ENDBRANCH   2  26
BRANCH   1  48
ATOM     48  C   UNL     1       5.951   5.986  22.831  0.00  0.00    +0.085 C 
BRANCH  48  49
ATOM     49  C   UNL     1       4.498   6.329  23.142  0.00  0.00    -0.042 A 
ATOM     50  C   UNL     1       3.461   6.108  22.218  0.00  0.00    +0.004 A 
ATOM     51  C   UNL     1       2.126   6.357  22.567  0.00  0.00    +0.000 A 
ATOM     52  C   UNL     1       1.814   6.838  23.838  0.00  0.00    +0.000 A 
ATOM     53  C   UNL     1       2.841   7.103  24.743  0.00  0.00    +0.000 A 
ATOM     54  C   UNL     1       4.168   6.864  24.394  0.00  0.00    +0.004 A 
ENDBRANCH  48  49
ENDBRANCH   1  48
TORSDOF 18
ENDMDL
MODEL 5
REMARK VINA RESULT:      -6.3      2.489      8.275
REMARK  Name = 
REMARK  23 active torsions:
REMARK  status: ('A' for Active; 'I' for Inactive)
REMARK    1  A    between atoms: C_1  and  C_2
REMARK    2  A    between atoms: C_2  and  C_3
REMARK    3  A    between atoms: C_2  and  C_4
REMARK    4  A    between atoms: C_6  and  C_9
REMARK    5  A    between atoms: C_9  and  N_10
REMARK    6  A    between atoms: N_10  and  C_11
REMARK    7  A    between atoms: N_14  and  C_15
REMARK    8  A    between atoms: C_15  and  C_17
REMARK    9  A    between atoms: C_15  and  C_20
REMARK   10  A    between atoms: C_17  and  C_18
REMARK   11  A    between atoms: C_17  and  C_19
REMARK   12  A    between atoms: N_22  and  C_23
REMARK   13  A    between atoms: C_23  and  C_47
REMARK   14  A    between atoms: C_24  and  C_25
REMARK   15  A    between atoms: C_25  and  C_27
REMARK   16  A    between atoms: C_25  and  O_46
REMARK   17  A    between atoms: C_27  and  C_29
REMARK   18  A    between atoms: C_27  and  N_36
REMARK   19  A    between atoms: C_29  and  C_30
REMARK   20  A    between atoms: C_37  and  O_39
REMARK   21  A    between atoms: O_39  and  C_40
REMARK   22  A    between atoms: C_40  and  C_41
REMARK   23  A    between atoms: C_47  and  C_48
REMARK                            x       y       z     vdW  Elec       q    Type
REMARK                         _______ _______ _______ _____ _____    ______ ____
ROOT
ATOM      1  C   UNL     1       8.135  -1.969  25.277  0.00  0.00    +0.013 C 
ATOM      2  C   UNL     1       7.941  -0.991  26.188  0.00  0.00    +0.025 C 
ENDROOT
BRANCH   1   4
ATOM      3  C   UNL     1       7.155  -4.187  25.492  0.00  0.00    +0.238 C 
ATOM      4  N   UNL     1       7.129  -2.895  24.951  0.00  0.00    -0.287 N 
ATOM      5  H   UNL     1       6.194  -2.530  25.126  0.00  0.00    +0.155 HD
ATOM      6  O   UNL     1       8.062  -4.579  26.237  0.00  0.00    -0.273 OA
BRANCH   3   7
ATOM      7  C   UNL     1       6.093  -5.210  24.935  0.00  0.00    +0.163 C 
BRANCH   7  10
ATOM      8  N   UNL     1       2.643  -4.242  26.188  0.00  0.00    -0.283 N 
ATOM      9  C   UNL     1       3.859  -4.072  25.472  0.00  0.00    +0.303 C 
ATOM     10  N   UNL     1       4.688  -5.196  25.448  0.00  0.00    -0.288 N 
ATOM     11  H   UNL     1       4.237  -6.089  25.537  0.00  0.00    +0.151 HD
ATOM     12  O   UNL     1       4.170  -3.031  24.925  0.00  0.00    -0.253 OA
ATOM     13  C   UNL     1       2.495  -5.216  27.261  0.00  0.00    +0.134 C 
BRANCH   8  14
ATOM     14  C   UNL     1       1.715  -3.080  26.310  0.00  0.00    +0.164 C 
BRANCH  14  18
ATOM     15  C   UNL     1       2.507   0.188  27.876  0.00  0.00    +0.081 A 
ATOM     16  S   UNL     1       3.049  -0.667  29.276  0.00  0.00    -0.080 S 
ATOM     17  C   UNL     1       2.719  -2.156  28.503  0.00  0.00    +0.071 A 
ATOM     18  C   UNL     1       2.218  -1.959  27.230  0.00  0.00    +0.066 A 
ATOM     19  N   UNL     1       2.098  -0.593  26.884  0.00  0.00    -0.247 NA
BRANCH  15  21
ATOM     20  C   UNL     1       1.948   2.324  26.649  0.00  0.00    +0.014 C 
ATOM     21  C   UNL     1       2.578   1.712  27.899  0.00  0.00    +0.038 C 
ATOM     22  C   UNL     1       1.965   2.323  29.160  0.00  0.00    +0.014 C 
ENDBRANCH  15  21
ENDBRANCH  14  18
ENDBRANCH   8  14
ENDBRANCH   7  10
BRANCH   7  23
ATOM     23  C   UNL     1       6.170  -5.040  23.372  0.00  0.00    +0.012 C 
ATOM     24  C   UNL     1       5.012  -5.712  22.627  0.00  0.00    +0.009 C 
ATOM     25  C   UNL     1       7.507  -5.455  22.757  0.00  0.00    +0.009 C 
ENDBRANCH   7  23
ENDBRANCH   3   7
ENDBRANCH   1   4
BRANCH   2  26
ATOM     26  C   UNL     1       6.804  -0.705  27.132  0.00  0.00    +0.159 C 
BRANCH  26  27
ATOM     27  O   UNL     1       5.880  -1.800  27.119  0.00  0.00    -0.386 OA
ATOM     28  H   UNL     1       6.425  -2.587  26.926  0.00  0.00    +0.210 HD
ENDBRANCH  26  27
BRANCH  26  29
ATOM     29  C   UNL     1       6.017   0.618  26.834  0.00  0.00    +0.113 C 
BRANCH  29  30
ATOM     30  N   UNL     1       6.912   1.784  26.924  0.00  0.00    -0.275 N 
ATOM     31  H   UNL     1       7.441   2.034  26.097  0.00  0.00    +0.152 HD
ATOM     32  C   UNL     1       6.674   2.838  27.761  0.00  0.00    +0.401 C 
ATOM     33  O   UNL     1       5.804   2.862  28.622  0.00  0.00    -0.226 OA
BRANCH  32  34
ATOM     34  O   UNL     1       7.468   3.879  27.433  0.00  0.00    -0.445 OA
BRANCH  34  35
ATOM     35  C   UNL     1       6.834   4.890  26.633  0.00  0.00    +0.278 C 
BRANCH  35  36
ATOM     36  C   UNL     1       7.604   5.112  25.378  0.00  0.00    +0.046 A 
ATOM     37  S   UNL     1       7.336   6.493  24.393  0.00  0.00    -0.077 S 
ATOM     38  C   UNL     1       8.674   6.041  23.418  0.00  0.00    +0.156 A 
ATOM     39  N   UNL     1       9.280   4.923  23.751  0.00  0.00    -0.255 NA
ATOM     40  C   UNL     1       8.662   4.385  24.865  0.00  0.00    +0.125 A 
ENDBRANCH  35  36
ENDBRANCH  34  35
ENDBRANCH  32  34
ENDBRANCH  29  30
BRANCH  29  41
ATOM     41  C   UNL     1       5.275   0.558  25.475  0.00  0.00    +0.060 C 
BRANCH  41  42
ATOM     42  C   UNL     1       5.521   1.654  24.458  0.00  0.00    -0.046 A 
ATOM     43  C   UNL     1       4.722   2.798  24.350  0.00  0.00    +0.004 A 
ATOM     44  C   UNL     1       4.923   3.708  23.305  0.00  0.00    +0.000 A 
ATOM     45  C   UNL     1       5.914   3.480  22.352  0.00  0.00    +0.000 A 
ATOM     46  C   UNL     1       6.714   2.347  22.445  0.00  0.00    +0.000 A 
ATOM     47  C   UNL     1       6.518   1.442  23.488  0.00  0.00    +0.004 A 
ENDBRANCH  41  42
ENDBRANCH  29  41
ENDBRANCH  26  29
ENDBRANCH   2  26
BRANCH   1  48
ATOM     48  C   UNL     1       9.467  -2.005  24.507  0.00  0.00    +0.085 C 
BRANCH  48  49
ATOM     49  C   UNL     1       9.731  -0.799  23.611  0.00  0.00    -0.042 A 
ATOM     50  C   UNL     1       9.376  -0.783  22.251  0.00  0.00    +0.004 A 
ATOM     51  C   UNL     1       9.556   0.371  21.477  0.00  0.00    +0.000 A 
ATOM     52  C   UNL     1      10.104   1.518  22.050  0.00  0.00    +0.000 A 
ATOM     53  C   UNL     1      10.501   1.495  23.387  0.00  0.00    +0.000 A 
ATOM     54  C   UNL     1      10.330   0.345  24.154  0.00  0.00    +0.004 A 
ENDBRANCH  48  49
ENDBRANCH   1  48
TORSDOF 18
ENDMDL
MODEL 6
REMARK VINA RESULT:      -6.1      1.846      2.772
REMARK  Name = 
REMARK  23 active torsions:
REMARK  status: ('A' for Active; 'I' for Inactive)
REMARK    1  A    between atoms: C_1  and  C_2
REMARK    2  A    between atoms: C_2  and  C_3
REMARK    3  A    between atoms: C_2  and  C_4
REMARK    4  A    between atoms: C_6  and  C_9
REMARK    5  A    between atoms: C_9  and  N_10
REMARK    6  A    between atoms: N_10  and  C_11
REMARK    7  A    between atoms: N_14  and  C_15
REMARK    8  A    between atoms: C_15  and  C_17
REMARK    9  A    between atoms: C_15  and  C_20
REMARK   10  A    between atoms: C_17  and  C_18
REMARK   11  A    between atoms: C_17  and  C_19
REMARK   12  A    between atoms: N_22  and  C_23
REMARK   13  A    between atoms: C_23  and  C_47
REMARK   14  A    between atoms: C_24  and  C_25
REMARK   15  A    between atoms: C_25  and  C_27
REMARK   16  A    between atoms: C_25  and  O_46
REMARK   17  A    between atoms: C_27  and  C_29
REMARK   18  A    between atoms: C_27  and  N_36
REMARK   19  A    between atoms: C_29  and  C_30
REMARK   20  A    between atoms: C_37  and  O_39
REMARK   21  A    between atoms: O_39  and  C_40
REMARK   22  A    between atoms: C_40  and  C_41
REMARK   23  A    between atoms: C_47  and  C_48
REMARK                            x       y       z     vdW  Elec       q    Type
REMARK                         _______ _______ _______ _____ _____    ______ ____
ROOT
ATOM      1  C   UNL     1       4.970  -2.481  27.279  0.00  0.00    +0.013 C 
ATOM      2  C   UNL     1       6.261  -2.452  26.883  0.00  0.00    +0.025 C 
ENDROOT
BRANCH   1   4
ATOM      3  C   UNL     1       3.848  -0.864  28.713  0.00  0.00    +0.238 C 
ATOM      4  N   UNL     1       4.210  -1.309  27.434  0.00  0.00    -0.287 N 
ATOM      5  H   UNL     1       4.628  -0.510  26.961  0.00  0.00    +0.155 HD
ATOM      6  O   UNL     1       4.142  -1.486  29.742  0.00  0.00    -0.273 OA
BRANCH   3   7
ATOM      7  C   UNL     1       2.850   0.353  28.784  0.00  0.00    +0.163 C 
BRANCH   7  10
ATOM      8  N   UNL     1       4.860   3.540  28.327  0.00  0.00    -0.283 N 
ATOM      9  C   UNL     1       4.659   2.139  28.451  0.00  0.00    +0.303 C 
ATOM     10  N   UNL     1       3.322   1.737  28.467  0.00  0.00    -0.288 N 
ATOM     11  H   UNL     1       2.667   2.333  27.992  0.00  0.00    +0.151 HD
ATOM     12  O   UNL     1       5.572   1.342  28.548  0.00  0.00    -0.253 OA
ATOM     13  C   UNL     1       3.863   4.516  28.750  0.00  0.00    +0.134 C 
BRANCH   8  14
ATOM     14  C   UNL     1       6.255   4.069  28.351  0.00  0.00    +0.164 C 
BRANCH  14  18
ATOM     15  C   UNL     1       7.105   4.037  24.741  0.00  0.00    +0.081 A 
ATOM     16  S   UNL     1       7.980   5.506  24.981  0.00  0.00    -0.080 S 
ATOM     17  C   UNL     1       7.611   5.462  26.650  0.00  0.00    +0.071 A 
ATOM     18  C   UNL     1       6.850   4.352  26.965  0.00  0.00    +0.066 A 
ATOM     19  N   UNL     1       6.562   3.538  25.845  0.00  0.00    -0.247 NA
BRANCH  15  21
ATOM     20  C   UNL     1       5.827   2.586  23.115  0.00  0.00    +0.014 C 
ATOM     21  C   UNL     1       7.067   3.451  23.332  0.00  0.00    +0.038 C 
ATOM     22  C   UNL     1       7.176   4.513  22.237  0.00  0.00    +0.014 C 
ENDBRANCH  15  21
ENDBRANCH  14  18
ENDBRANCH   8  14
ENDBRANCH   7  10
BRANCH   7  23
ATOM     23  C   UNL     1       1.629  -0.090  27.894  0.00  0.00    +0.012 C 
ATOM     24  C   UNL     1       0.994   1.063  27.110  0.00  0.00    +0.009 C 
ATOM     25  C   UNL     1       0.553  -0.876  28.645  0.00  0.00    +0.009 C 
ENDBRANCH   7  23
ENDBRANCH   3   7
ENDBRANCH   1   4
BRANCH   2  26
ATOM     26  C   UNL     1       7.220  -1.313  26.661  0.00  0.00    +0.159 C 
BRANCH  26  27
ATOM     27  O   UNL     1       6.490  -0.127  26.325  0.00  0.00    -0.386 OA
ATOM     28  H   UNL     1       6.655   0.010  25.373  0.00  0.00    +0.210 HD
ENDBRANCH  26  27
BRANCH  26  29
ATOM     29  C   UNL     1       8.299  -1.567  25.552  0.00  0.00    +0.113 C 
BRANCH  29  30
ATOM     30  N   UNL     1       8.503  -3.011  25.350  0.00  0.00    -0.275 N 
ATOM     31  H   UNL     1       7.711  -3.623  25.505  0.00  0.00    +0.152 HD
ATOM     32  C   UNL     1       9.418  -3.513  24.468  0.00  0.00    +0.401 C 
ATOM     33  O   UNL     1      10.261  -2.846  23.881  0.00  0.00    -0.226 OA
BRANCH  32  34
ATOM     34  O   UNL     1       9.194  -4.829  24.266  0.00  0.00    -0.445 OA
BRANCH  34  35
ATOM     35  C   UNL     1       7.813  -5.219  24.329  0.00  0.00    +0.278 C 
BRANCH  35  36
ATOM     36  C   UNL     1       7.160  -5.013  23.006  0.00  0.00    +0.046 A 
ATOM     37  S   UNL     1       7.063  -6.276  21.847  0.00  0.00    -0.077 S 
ATOM     38  C   UNL     1       6.071  -5.280  20.864  0.00  0.00    +0.156 A 
ATOM     39  N   UNL     1       5.838  -4.069  21.317  0.00  0.00    -0.255 NA
ATOM     40  C   UNL     1       6.469  -3.912  22.538  0.00  0.00    +0.125 A 
ENDBRANCH  35  36
ENDBRANCH  34  35
ENDBRANCH  32  34
ENDBRANCH  29  30
BRANCH  29  41
ATOM     41  C   UNL     1       7.954  -0.838  24.229  0.00  0.00    +0.060 C 
BRANCH  41  42
ATOM     42  C   UNL     1       8.915   0.206  23.697  0.00  0.00    -0.046 A 
ATOM     43  C   UNL     1       9.639   1.077  24.521  0.00  0.00    +0.004 A 
ATOM     44  C   UNL     1      10.408   2.105  23.963  0.00  0.00    +0.000 A 
ATOM     45  C   UNL     1      10.455   2.281  22.581  0.00  0.00    +0.000 A 
ATOM     46  C   UNL     1       9.739   1.426  21.751  0.00  0.00    +0.000 A 
ATOM     47  C   UNL     1       8.976   0.398  22.305  0.00  0.00    +0.004 A 
ENDBRANCH  41  42
ENDBRANCH  29  41
ENDBRANCH  26  29
ENDBRANCH   2  26
BRANCH   1  48
ATOM     48  C   UNL     1       4.289  -3.848  27.470  0.00  0.00    +0.085 C 
BRANCH  48  49
ATOM     49  C   UNL     1       4.029  -4.629  26.186  0.00  0.00    -0.042 A 
ATOM     50  C   UNL     1       3.344  -4.068  25.093  0.00  0.00    +0.004 A 
ATOM     51  C   UNL     1       3.196  -4.784  23.898  0.00  0.00    +0.000 A 
ATOM     52  C   UNL     1       3.719  -6.071  23.783  0.00  0.00    +0.000 A 
ATOM     53  C   UNL     1       4.360  -6.651  24.878  0.00  0.00    +0.000 A 
ATOM     54  C   UNL     1       4.500  -5.943  26.070  0.00  0.00    +0.004 A 
ENDBRANCH  48  49
ENDBRANCH   1  48
TORSDOF 18
ENDMDL
MODEL 7
REMARK VINA RESULT:      -6.1      3.015      6.038
REMARK  Name = 
REMARK  23 active torsions:
REMARK  status: ('A' for Active; 'I' for Inactive)
REMARK    1  A    between atoms: C_1  and  C_2
REMARK    2  A    between atoms: C_2  and  C_3
REMARK    3  A    between atoms: C_2  and  C_4
REMARK    4  A    between atoms: C_6  and  C_9
REMARK    5  A    between atoms: C_9  and  N_10
REMARK    6  A    between atoms: N_10  and  C_11
REMARK    7  A    between atoms: N_14  and  C_15
REMARK    8  A    between atoms: C_15  and  C_17
REMARK    9  A    between atoms: C_15  and  C_20
REMARK   10  A    between atoms: C_17  and  C_18
REMARK   11  A    between atoms: C_17  and  C_19
REMARK   12  A    between atoms: N_22  and  C_23
REMARK   13  A    between atoms: C_23  and  C_47
REMARK   14  A    between atoms: C_24  and  C_25
REMARK   15  A    between atoms: C_25  and  C_27
REMARK   16  A    between atoms: C_25  and  O_46
REMARK   17  A    between atoms: C_27  and  C_29
REMARK   18  A    between atoms: C_27  and  N_36
REMARK   19  A    between atoms: C_29  and  C_30
REMARK   20  A    between atoms: C_37  and  O_39
REMARK   21  A    between atoms: O_39  and  C_40
REMARK   22  A    between atoms: C_40  and  C_41
REMARK   23  A    between atoms: C_47  and  C_48
REMARK                            x       y       z     vdW  Elec       q    Type
REMARK                         _______ _______ _______ _____ _____    ______ ____
ROOT
ATOM      1  C   UNL     1       5.597  -2.120  26.622  0.00  0.00    +0.013 C 
ATOM      2  C   UNL     1       6.211  -2.049  25.422  0.00  0.00    +0.025 C 
ENDROOT
BRANCH   1   4
ATOM      3  C   UNL     1       3.957  -0.414  27.197  0.00  0.00    +0.238 C 
ATOM      4  N   UNL     1       5.235  -0.969  27.344  0.00  0.00    -0.287 N 
ATOM      5  H   UNL     1       5.387  -1.077  28.346  0.00  0.00    +0.155 HD
ATOM      6  O   UNL     1       3.116  -0.877  26.416  0.00  0.00    -0.273 OA
BRANCH   3   7
ATOM      7  C   UNL     1       3.700   0.971  27.905  0.00  0.00    +0.163 C 
BRANCH   7  10
ATOM      8  N   UNL     1       3.527   3.926  25.529  0.00  0.00    -0.283 N 
ATOM      9  C   UNL     1       3.991   2.671  26.008  0.00  0.00    +0.303 C 
ATOM     10  N   UNL     1       3.288   2.164  27.103  0.00  0.00    -0.288 N 
ATOM     11  H   UNL     1       2.330   2.454  27.195  0.00  0.00    +0.151 HD
ATOM     12  O   UNL     1       4.933   2.078  25.518  0.00  0.00    -0.253 OA
ATOM     13  C   UNL     1       2.817   4.875  26.377  0.00  0.00    +0.134 C 
BRANCH   8  14
ATOM     14  C   UNL     1       4.249   4.570  24.393  0.00  0.00    +0.164 C 
BRANCH  14  18
ATOM     15  C   UNL     1       2.368   3.808  21.288  0.00  0.00    +0.081 A 
ATOM     16  S   UNL     1       1.893   5.467  21.224  0.00  0.00    -0.080 S 
ATOM     17  C   UNL     1       2.812   5.793  22.629  0.00  0.00    +0.071 A 
ATOM     18  C   UNL     1       3.439   4.651  23.092  0.00  0.00    +0.066 A 
ATOM     19  N   UNL     1       3.168   3.508  22.304  0.00  0.00    -0.247 NA
BRANCH  15  21
ATOM     20  C   UNL     1       0.643   2.082  20.636  0.00  0.00    +0.014 C 
ATOM     21  C   UNL     1       1.866   2.879  20.186  0.00  0.00    +0.038 C 
ATOM     22  C   UNL     1       1.576   3.607  18.873  0.00  0.00    +0.014 C 
ENDBRANCH  15  21
ENDBRANCH  14  18
ENDBRANCH   8  14
ENDBRANCH   7  10
BRANCH   7  23
ATOM     23  C   UNL     1       2.685   0.636  29.060  0.00  0.00    +0.012 C 
ATOM     24  C   UNL     1       2.909  -0.744  29.689  0.00  0.00    +0.009 C 
ATOM     25  C   UNL     1       1.214   0.811  28.678  0.00  0.00    +0.009 C 
ENDBRANCH   7  23
ENDBRANCH   3   7
ENDBRANCH   1   4
BRANCH   2  26
ATOM     26  C   UNL     1       6.772  -0.889  24.644  0.00  0.00    +0.159 C 
BRANCH  26  27
ATOM     27  O   UNL     1       5.700  -0.111  24.098  0.00  0.00    -0.386 OA
ATOM     28  H   UNL     1       4.899  -0.430  24.556  0.00  0.00    +0.210 HD
ENDBRANCH  26  27
BRANCH  26  29
ATOM     29  C   UNL     1       7.748  -1.283  23.482  0.00  0.00    +0.113 C 
BRANCH  29  30
ATOM     30  N   UNL     1       8.869  -0.332  23.401  0.00  0.00    -0.275 N 
ATOM     31  H   UNL     1       9.806  -0.702  23.502  0.00  0.00    +0.152 HD
ATOM     32  C   UNL     1       8.811   0.820  22.669  0.00  0.00    +0.401 C 
ATOM     33  O   UNL     1       7.798   1.261  22.141  0.00  0.00    -0.226 OA
BRANCH  32  34
ATOM     34  O   UNL     1      10.047   1.343  22.530  0.00  0.00    -0.445 OA
BRANCH  34  35
ATOM     35  C   UNL     1      10.596   1.914  23.728  0.00  0.00    +0.278 C 
BRANCH  35  36
ATOM     36  C   UNL     1      10.664   3.397  23.607  0.00  0.00    +0.046 A 
ATOM     37  S   UNL     1       9.315   4.392  23.981  0.00  0.00    -0.077 S 
ATOM     38  C   UNL     1      10.299   5.782  23.777  0.00  0.00    +0.156 A 
ATOM     39  N   UNL     1      11.544   5.561  23.417  0.00  0.00    -0.255 NA
ATOM     40  C   UNL     1      11.750   4.198  23.308  0.00  0.00    +0.125 A 
ENDBRANCH  35  36
ENDBRANCH  34  35
ENDBRANCH  32  34
ENDBRANCH  29  30
BRANCH  29  41
ATOM     41  C   UNL     1       8.237  -2.749  23.608  0.00  0.00    +0.060 C 
BRANCH  41  42
ATOM     42  C   UNL     1       7.468  -3.841  22.891  0.00  0.00    -0.046 A 
ATOM     43  C   UNL     1       7.768  -5.203  23.019  0.00  0.00    +0.004 A 
ATOM     44  C   UNL     1       7.106  -6.151  22.230  0.00  0.00    +0.000 A 
ATOM     45  C   UNL     1       6.149  -5.751  21.299  0.00  0.00    +0.000 A 
ATOM     46  C   UNL     1       5.844  -4.402  21.160  0.00  0.00    +0.000 A 
ATOM     47  C   UNL     1       6.499  -3.456  21.949  0.00  0.00    +0.004 A 
ENDBRANCH  41  42
ENDBRANCH  29  41
ENDBRANCH  26  29
ENDBRANCH   2  26
BRANCH   1  48
ATOM     48  C   UNL     1       5.196  -3.504  27.165  0.00  0.00    +0.085 C 
BRANCH  48  49
ATOM     49  C   UNL     1       4.692  -4.490  26.117  0.00  0.00    -0.042 A 
ATOM     50  C   UNL     1       3.728  -4.136  25.156  0.00  0.00    +0.004 A 
ATOM     51  C   UNL     1       3.349  -5.041  24.156  0.00  0.00    +0.000 A 
ATOM     52  C   UNL     1       3.918  -6.312  24.110  0.00  0.00    +0.000 A 
ATOM     53  C   UNL     1       4.841  -6.687  25.087  0.00  0.00    +0.000 A 
ATOM     54  C   UNL     1       5.212  -5.790  26.087  0.00  0.00    +0.004 A 
ENDBRANCH  48  49
ENDBRANCH   1  48
TORSDOF 18
ENDMDL
MODEL 8
REMARK VINA RESULT:      -6.0      2.715      7.897
REMARK  Name = 
REMARK  23 active torsions:
REMARK  status: ('A' for Active; 'I' for Inactive)
REMARK    1  A    between atoms: C_1  and  C_2
REMARK    2  A    between atoms: C_2  and  C_3
REMARK    3  A    between atoms: C_2  and  C_4
REMARK    4  A    between atoms: C_6  and  C_9
REMARK    5  A    between atoms: C_9  and  N_10
REMARK    6  A    between atoms: N_10  and  C_11
REMARK    7  A    between atoms: N_14  and  C_15
REMARK    8  A    between atoms: C_15  and  C_17
REMARK    9  A    between atoms: C_15  and  C_20
REMARK   10  A    between atoms: C_17  and  C_18
REMARK   11  A    between atoms: C_17  and  C_19
REMARK   12  A    between atoms: N_22  and  C_23
REMARK   13  A    between atoms: C_23  and  C_47
REMARK   14  A    between atoms: C_24  and  C_25
REMARK   15  A    between atoms: C_25  and  C_27
REMARK   16  A    between atoms: C_25  and  O_46
REMARK   17  A    between atoms: C_27  and  C_29
REMARK   18  A    between atoms: C_27  and  N_36
REMARK   19  A    between atoms: C_29  and  C_30
REMARK   20  A    between atoms: C_37  and  O_39
REMARK   21  A    between atoms: O_39  and  C_40
REMARK   22  A    between atoms: C_40  and  C_41
REMARK   23  A    between atoms: C_47  and  C_48
REMARK                            x       y       z     vdW  Elec       q    Type
REMARK                         _______ _______ _______ _____ _____    ______ ____
ROOT
ATOM      1  C   UNL     1       6.041   1.310  27.815  0.00  0.00    +0.013 C 
ATOM      2  C   UNL     1       7.247   1.047  27.270  0.00  0.00    +0.025 C 
ENDROOT
BRANCH   1   4
ATOM      3  C   UNL     1       4.317  -0.394  27.579  0.00  0.00    +0.238 C 
ATOM      4  N   UNL     1       5.238   0.300  28.375  0.00  0.00    -0.287 N 
ATOM      5  H   UNL     1       5.788  -0.407  28.860  0.00  0.00    +0.155 HD
ATOM      6  O   UNL     1       4.142  -0.134  26.382  0.00  0.00    -0.273 OA
BRANCH   3   7
ATOM      7  C   UNL     1       3.338  -1.380  28.325  0.00  0.00    +0.163 C 
BRANCH   7  10
ATOM      8  N   UNL     1       4.778  -4.843  28.914  0.00  0.00    -0.283 N 
ATOM      9  C   UNL     1       4.568  -3.627  28.208  0.00  0.00    +0.303 C 
ATOM     10  N   UNL     1       3.854  -2.655  28.913  0.00  0.00    -0.288 N 
ATOM     11  H   UNL     1       3.916  -2.691  29.915  0.00  0.00    +0.151 HD
ATOM     12  O   UNL     1       4.964  -3.439  27.074  0.00  0.00    -0.253 OA
ATOM     13  C   UNL     1       3.896  -5.291  29.983  0.00  0.00    +0.134 C 
BRANCH   8  14
ATOM     14  C   UNL     1       5.488  -5.958  28.223  0.00  0.00    +0.164 C 
BRANCH  14  18
ATOM     15  C   UNL     1       3.055  -7.142  25.687  0.00  0.00    +0.081 A 
ATOM     16  S   UNL     1       4.273  -6.923  24.483  0.00  0.00    -0.080 S 
ATOM     17  C   UNL     1       5.384  -6.431  25.687  0.00  0.00    +0.071 A 
ATOM     18  C   UNL     1       4.804  -6.449  26.940  0.00  0.00    +0.066 A 
ATOM     19  N   UNL     1       3.451  -6.860  26.922  0.00  0.00    -0.247 NA
BRANCH  15  21
ATOM     20  C   UNL     1       1.174  -6.886  24.019  0.00  0.00    +0.014 C 
ATOM     21  C   UNL     1       1.689  -7.654  25.236  0.00  0.00    +0.038 C 
ATOM     22  C   UNL     1       1.672  -9.159  24.965  0.00  0.00    +0.014 C 
ENDBRANCH  15  21
ENDBRANCH  14  18
ENDBRANCH   8  14
ENDBRANCH   7  10
BRANCH   7  23
ATOM     23  C   UNL     1       2.605  -0.476  29.384  0.00  0.00    +0.012 C 
ATOM     24  C   UNL     1       1.900  -1.275  30.485  0.00  0.00    +0.009 C 
ATOM     25  C   UNL     1       1.648   0.553  28.781  0.00  0.00    +0.009 C 
ENDBRANCH   7  23
ENDBRANCH   3   7
ENDBRANCH   1   4
BRANCH   2  26
ATOM     26  C   UNL     1       7.962  -0.247  26.981  0.00  0.00    +0.159 C 
BRANCH  26  27
ATOM     27  O   UNL     1       9.120  -0.354  27.818  0.00  0.00    -0.386 OA
ATOM     28  H   UNL     1       8.955   0.262  28.557  0.00  0.00    +0.210 HD
ENDBRANCH  26  27
BRANCH  26  29
ATOM     29  C   UNL     1       8.403  -0.438  25.489  0.00  0.00    +0.113 C 
BRANCH  29  30
ATOM     30  N   UNL     1       8.780  -1.839  25.236  0.00  0.00    -0.275 N 
ATOM     31  H   UNL     1       8.134  -2.559  25.534  0.00  0.00    +0.152 HD
ATOM     32  C   UNL     1       9.574  -2.214  24.189  0.00  0.00    +0.401 C 
ATOM     33  O   UNL     1      10.177  -1.438  23.457  0.00  0.00    -0.226 OA
BRANCH  32  34
ATOM     34  O   UNL     1       9.517  -3.552  24.020  0.00  0.00    -0.445 OA
BRANCH  34  35
ATOM     35  C   UNL     1       8.294  -4.161  24.463  0.00  0.00    +0.278 C 
BRANCH  35  36
ATOM     36  C   UNL     1       7.474  -4.579  23.292  0.00  0.00    +0.046 A 
ATOM     37  S   UNL     1       6.295  -3.537  22.603  0.00  0.00    -0.077 S 
ATOM     38  C   UNL     1       6.059  -4.665  21.332  0.00  0.00    +0.156 A 
ATOM     39  N   UNL     1       6.764  -5.772  21.404  0.00  0.00    -0.255 NA
ATOM     40  C   UNL     1       7.566  -5.728  22.530  0.00  0.00    +0.125 A 
ENDBRANCH  35  36
ENDBRANCH  34  35
ENDBRANCH  32  34
ENDBRANCH  29  30
BRANCH  29  41
ATOM     41  C   UNL     1       7.321   0.061  24.497  0.00  0.00    +0.060 C 
BRANCH  41  42
ATOM     42  C   UNL     1       7.580   1.330  23.710  0.00  0.00    -0.046 A 
ATOM     43  C   UNL     1       8.478   2.322  24.122  0.00  0.00    +0.004 A 
ATOM     44  C   UNL     1       8.574   3.529  23.419  0.00  0.00    +0.000 A 
ATOM     45  C   UNL     1       7.768   3.762  22.306  0.00  0.00    +0.000 A 
ATOM     46  C   UNL     1       6.870   2.788  21.887  0.00  0.00    +0.000 A 
ATOM     47  C   UNL     1       6.777   1.583  22.584  0.00  0.00    +0.004 A 
ENDBRANCH  41  42
ENDBRANCH  29  41
ENDBRANCH  26  29
ENDBRANCH   2  26
BRANCH   1  48
ATOM     48  C   UNL     1       5.578   2.775  27.910  0.00  0.00    +0.085 C 
BRANCH  48  49
ATOM     49  C   UNL     1       5.405   3.488  26.573  0.00  0.00    -0.042 A 
ATOM     50  C   UNL     1       4.513   3.029  25.588  0.00  0.00    +0.004 A 
ATOM     51  C   UNL     1       4.317   3.755  24.405  0.00  0.00    +0.000 A 
ATOM     52  C   UNL     1       5.017   4.941  24.188  0.00  0.00    +0.000 A 
ATOM     53  C   UNL     1       5.937   5.378  25.141  0.00  0.00    +0.000 A 
ATOM     54  C   UNL     1       6.139   4.652  26.312  0.00  0.00    +0.004 A 
ENDBRANCH  48  49
ENDBRANCH   1  48
TORSDOF 18
ENDMDL
MODEL 9
REMARK VINA RESULT:      -6.0      2.718      6.224
REMARK  Name = 
REMARK  23 active torsions:
REMARK  status: ('A' for Active; 'I' for Inactive)
REMARK    1  A    between atoms: C_1  and  C_2
REMARK    2  A    between atoms: C_2  and  C_3
REMARK    3  A    between atoms: C_2  and  C_4
REMARK    4  A    between atoms: C_6  and  C_9
REMARK    5  A    between atoms: C_9  and  N_10
REMARK    6  A    between atoms: N_10  and  C_11
REMARK    7  A    between atoms: N_14  and  C_15
REMARK    8  A    between atoms: C_15  and  C_17
REMARK    9  A    between atoms: C_15  and  C_20
REMARK   10  A    between atoms: C_17  and  C_18
REMARK   11  A    between atoms: C_17  and  C_19
REMARK   12  A    between atoms: N_22  and  C_23
REMARK   13  A    between atoms: C_23  and  C_47
REMARK   14  A    between atoms: C_24  and  C_25
REMARK   15  A    between atoms: C_25  and  C_27
REMARK   16  A    between atoms: C_25  and  O_46
REMARK   17  A    between atoms: C_27  and  C_29
REMARK   18  A    between atoms: C_27  and  N_36
REMARK   19  A    between atoms: C_29  and  C_30
REMARK   20  A    between atoms: C_37  and  O_39
REMARK   21  A    between atoms: O_39  and  C_40
REMARK   22  A    between atoms: C_40  and  C_41
REMARK   23  A    between atoms: C_47  and  C_48
REMARK                            x       y       z     vdW  Elec       q    Type
REMARK                         _______ _______ _______ _____ _____    ______ ____
ROOT
ATOM      1  C   UNL     1       7.925  -1.772  23.202  0.00  0.00    +0.013 C 
ATOM      2  C   UNL     1       8.128  -2.408  24.376  0.00  0.00    +0.025 C 
ENDROOT
BRANCH   1   4
ATOM      3  C   UNL     1       9.096   0.164  22.304  0.00  0.00    +0.238 C 
ATOM      4  N   UNL     1       8.059  -0.379  23.074  0.00  0.00    -0.287 N 
ATOM      5  H   UNL     1       7.201   0.066  22.753  0.00  0.00    +0.155 HD
ATOM      6  O   UNL     1       9.946  -0.538  21.742  0.00  0.00    -0.273 OA
BRANCH   3   7
ATOM      7  C   UNL     1       9.278   1.729  22.362  0.00  0.00    +0.163 C 
BRANCH   7  10
ATOM      8  N   UNL     1       5.964   3.526  22.809  0.00  0.00    -0.283 N 
ATOM      9  C   UNL     1       6.821   2.463  22.416  0.00  0.00    +0.303 C 
ATOM     10  N   UNL     1       8.152   2.604  22.816  0.00  0.00    -0.288 N 
ATOM     11  H   UNL     1       8.317   3.150  23.643  0.00  0.00    +0.151 HD
ATOM     12  O   UNL     1       6.441   1.504  21.772  0.00  0.00    -0.253 OA
ATOM     13  C   UNL     1       6.453   4.872  23.070  0.00  0.00    +0.134 C 
BRANCH   8  14
ATOM     14  C   UNL     1       4.534   3.486  22.384  0.00  0.00    +0.164 C 
BRANCH  14  18
ATOM     15  C   UNL     1       2.805   2.870  25.607  0.00  0.00    +0.081 A 
ATOM     16  S   UNL     1       1.588   3.992  25.115  0.00  0.00    -0.080 S 
ATOM     17  C   UNL     1       2.385   4.213  23.619  0.00  0.00    +0.071 A 
ATOM     18  C   UNL     1       3.529   3.441  23.543  0.00  0.00    +0.066 A 
ATOM     19  N   UNL     1       3.759   2.670  24.706  0.00  0.00    -0.247 NA
BRANCH  15  21
ATOM     20  C   UNL     1       1.220   1.751  27.225  0.00  0.00    +0.014 C 
ATOM     21  C   UNL     1       2.656   2.209  26.974  0.00  0.00    +0.038 C 
ATOM     22  C   UNL     1       3.631   1.050  27.191  0.00  0.00    +0.014 C 
ENDBRANCH  15  21
ENDBRANCH  14  18
ENDBRANCH   8  14
ENDBRANCH   7  10
BRANCH   7  23
ATOM     23  C   UNL     1      10.588   1.939  23.208  0.00  0.00    +0.012 C 
ATOM     24  C   UNL     1      10.581   1.184  24.542  0.00  0.00    +0.009 C 
ATOM     25  C   UNL     1      10.968   3.404  23.431  0.00  0.00    +0.009 C 
ENDBRANCH   7  23
ENDBRANCH   3   7
ENDBRANCH   1   4
BRANCH   2  26
ATOM     26  C   UNL     1       8.377  -1.894  25.769  0.00  0.00    +0.159 C 
BRANCH  26  27
ATOM     27  O   UNL     1       8.804  -2.972  26.610  0.00  0.00    -0.386 OA
ATOM     28  H   UNL     1       9.223  -2.541  27.379  0.00  0.00    +0.210 HD
ENDBRANCH  26  27
BRANCH  26  29
ATOM     29  C   UNL     1       7.148  -1.191  26.442  0.00  0.00    +0.113 C 
BRANCH  29  30
ATOM     30  N   UNL     1       6.165  -2.190  26.897  0.00  0.00    -0.275 N 
ATOM     31  H   UNL     1       6.203  -2.475  27.868  0.00  0.00    +0.152 HD
ATOM     32  C   UNL     1       4.926  -2.318  26.335  0.00  0.00    +0.401 C 
ATOM     33  O   UNL     1       4.559  -1.748  25.316  0.00  0.00    -0.226 OA
BRANCH  32  34
ATOM     34  O   UNL     1       4.140  -3.086  27.120  0.00  0.00    -0.445 OA
BRANCH  34  35
ATOM     35  C   UNL     1       4.011  -4.450  26.689  0.00  0.00    +0.278 C 
BRANCH  35  36
ATOM     36  C   UNL     1       4.714  -5.357  27.638  0.00  0.00    +0.046 A 
ATOM     37  S   UNL     1       4.992  -4.907  29.272  0.00  0.00    -0.077 S 
ATOM     38  C   UNL     1       5.590  -6.483  29.591  0.00  0.00    +0.156 A 
ATOM     39  N   UNL     1       5.631  -7.304  28.566  0.00  0.00    -0.255 NA
ATOM     40  C   UNL     1       5.141  -6.658  27.446  0.00  0.00    +0.125 A 
ENDBRANCH  35  36
ENDBRANCH  34  35
ENDBRANCH  32  34
ENDBRANCH  29  30
BRANCH  29  41
ATOM     41  C   UNL     1       7.579  -0.237  27.584  0.00  0.00    +0.060 C 
BRANCH  41  42
ATOM     42  C   UNL     1       7.241   1.236  27.475  0.00  0.00    -0.046 A 
ATOM     43  C   UNL     1       7.300   1.952  26.273  0.00  0.00    +0.004 A 
ATOM     44  C   UNL     1       7.103   3.338  26.262  0.00  0.00    +0.000 A 
ATOM     45  C   UNL     1       6.857   4.024  27.450  0.00  0.00    +0.000 A 
ATOM     46  C   UNL     1       6.797   3.327  28.651  0.00  0.00    +0.000 A 
ATOM     47  C   UNL     1       6.989   1.945  28.663  0.00  0.00    +0.004 A 
ENDBRANCH  41  42
ENDBRANCH  29  41
ENDBRANCH  26  29
ENDBRANCH   2  26
BRANCH   1  48
ATOM     48  C   UNL     1       7.631  -2.616  21.948  0.00  0.00    +0.085 C 
BRANCH  48  49
ATOM     49  C   UNL     1       6.690  -3.796  22.166  0.00  0.00    -0.042 A 
ATOM     50  C   UNL     1       7.095  -5.126  21.958  0.00  0.00    +0.004 A 
ATOM     51  C   UNL     1       6.232  -6.191  22.248  0.00  0.00    +0.000 A 
ATOM     52  C   UNL     1       4.951  -5.940  22.739  0.00  0.00    +0.000 A 
ATOM     53  C   UNL     1       4.527  -4.621  22.904  0.00  0.00    +0.000 A 
ATOM     54  C   UNL     1       5.382  -3.562  22.607  0.00  0.00    +0.004 A 
ENDBRANCH  48  49
ENDBRANCH   1  48
TORSDOF 18
ENDMDL
