MODEL 1
REMARK VINA RESULT:      -5.9      0.000      0.000
REMARK  Name = 
REMARK  9 active torsions:
REMARK  status: ('A' for Active; 'I' for Inactive)
REMARK    1  A    between atoms: N_3  and  C_9
REMARK    2  A    between atoms: C_9  and  C_10
REMARK    3  A    between atoms: C_10  and  C_12
REMARK    4  A    between atoms: C_10  and  O_14
REMARK    5  A    between atoms: C_12  and  O_13
REMARK    6  A    between atoms: O_14  and  C_15
REMARK    7  A    between atoms: C_15  and  P_16
REMARK    8  A    between atoms: P_16  and  O_18
REMARK    9  A    between atoms: P_16  and  O_19
REMARK                            x       y       z     vdW  Elec       q    Type
REMARK                         _______ _______ _______ _____ _____    ______ ____
ROOT
ATOM      1  C   UNL     1       8.200  -3.190  24.369  0.00  0.00    +0.164 C 
ENDROOT
BRANCH   1   2
ATOM      2  C   UNL     1       9.635  -2.683  24.151  0.00  0.00    +0.160 C 
BRANCH   2  11
ATOM      3  C   UNL     1       9.516  -0.363  21.302  0.00  0.00    +0.061 A 
ATOM      4  C   UNL     1       9.608   0.889  22.080  0.00  0.00    +0.123 A 
ATOM      5  N   UNL     1       9.420   2.090  21.454  0.00  0.00    -0.343 N 
ATOM      6  H   UNL     1       9.688   2.169  20.481  0.00  0.00    +0.144 HD
ATOM      7  H   UNL     1       9.705   2.879  22.027  0.00  0.00    +0.144 HD
ATOM      8  N   UNL     1       9.852   0.923  23.351  0.00  0.00    -0.178 NA
ATOM      9  C   UNL     1       9.976  -0.249  24.054  0.00  0.00    +0.350 A 
ATOM     10  O   UNL     1      10.232  -0.246  25.256  0.00  0.00    -0.244 OA
ATOM     11  N   UNL     1       9.778  -1.457  23.372  0.00  0.00    -0.296 N 
ATOM     12  C   UNL     1       9.588  -1.485  22.009  0.00  0.00    +0.094 A 
ENDBRANCH   2  11
ENDBRANCH   1   2
BRANCH   1  13
ATOM     13  O   UNL     1       7.976  -3.437  25.774  0.00  0.00    -0.360 OA
BRANCH  13  14
ATOM     14  C   UNL     1       6.628  -3.790  26.133  0.00  0.00    +0.286 C 
BRANCH  14  15
ATOM     15  P   UNL     1       6.808  -5.250  27.171  0.00  0.00    +0.353 P 
ATOM     16  O   UNL     1       6.419  -5.119  28.605  0.00  0.00    -0.256 OA
BRANCH  15  17
ATOM     17  O   UNL     1       8.285  -5.832  26.969  0.00  0.00    -0.323 OA
ATOM     18  H   UNL     1       8.281  -6.802  27.108  0.00  0.00    +0.220 HD
ENDBRANCH  15  17
BRANCH  15  19
ATOM     19  O   UNL     1       5.941  -6.370  26.411  0.00  0.00    -0.323 OA
ATOM     20  H   UNL     1       5.822  -7.160  26.976  0.00  0.00    +0.220 HD
ENDBRANCH  15  19
ENDBRANCH  14  15
ENDBRANCH  13  14
ENDBRANCH   1  13
BRANCH   1  21
ATOM     21  C   UNL     1       7.965  -4.540  23.669  0.00  0.00    +0.189 C 
BRANCH  21  22
ATOM     22  O   UNL     1       8.947  -5.492  24.085  0.00  0.00    -0.392 OA
ATOM     23  H   UNL     1       9.769  -4.991  24.237  0.00  0.00    +0.210 HD
ENDBRANCH  21  22
ENDBRANCH   1  21
TORSDOF 9
ENDMDL
MODEL 2
REMARK VINA RESULT:      -5.9      1.906      2.498
REMARK  Name = 
REMARK  9 active torsions:
REMARK  status: ('A' for Active; 'I' for Inactive)
REMARK    1  A    between atoms: N_3  and  C_9
REMARK    2  A    between atoms: C_9  and  C_10
REMARK    3  A    between atoms: C_10  and  C_12
REMARK    4  A    between atoms: C_10  and  O_14
REMARK    5  A    between atoms: C_12  and  O_13
REMARK    6  A    between atoms: O_14  and  C_15
REMARK    7  A    between atoms: C_15  and  P_16
REMARK    8  A    between atoms: P_16  and  O_18
REMARK    9  A    between atoms: P_16  and  O_19
REMARK                            x       y       z     vdW  Elec       q    Type
REMARK                         _______ _______ _______ _____ _____    ______ ____
ROOT
ATOM      1  C   UNL     1       9.005  -2.671  23.721  0.00  0.00    +0.164 C 
ENDROOT
BRANCH   1   2
ATOM      2  C   UNL     1      10.162  -1.914  23.047  0.00  0.00    +0.160 C 
BRANCH   2  11
ATOM      3  C   UNL     1      10.695   1.498  24.307  0.00  0.00    +0.061 A 
ATOM      4  C   UNL     1      10.433   2.206  23.038  0.00  0.00    +0.123 A 
ATOM      5  N   UNL     1      10.688   3.546  22.946  0.00  0.00    -0.343 N 
ATOM      6  H   UNL     1      10.588   4.111  23.781  0.00  0.00    +0.144 HD
ATOM      7  H   UNL     1      10.286   3.965  22.113  0.00  0.00    +0.144 HD
ATOM      8  N   UNL     1       9.975   1.623  21.977  0.00  0.00    -0.178 NA
ATOM      9  C   UNL     1       9.769   0.267  21.979  0.00  0.00    +0.350 A 
ATOM     10  O   UNL     1       9.311  -0.309  20.994  0.00  0.00    -0.244 OA
ATOM     11  N   UNL     1      10.117  -0.457  23.127  0.00  0.00    -0.296 N 
ATOM     12  C   UNL     1      10.537   0.179  24.273  0.00  0.00    +0.094 A 
ENDBRANCH   2  11
ENDBRANCH   1   2
BRANCH   1  13
ATOM     13  O   UNL     1       9.478  -3.936  24.230  0.00  0.00    -0.360 OA
BRANCH  13  14
ATOM     14  C   UNL     1       8.455  -4.891  24.563  0.00  0.00    +0.286 C 
BRANCH  14  15
ATOM     15  P   UNL     1       8.176  -4.652  26.326  0.00  0.00    +0.353 P 
ATOM     16  O   UNL     1       7.422  -3.434  26.739  0.00  0.00    -0.256 OA
BRANCH  15  17
ATOM     17  O   UNL     1       9.576  -4.814  27.084  0.00  0.00    -0.323 OA
ATOM     18  H   UNL     1       9.827  -3.965  27.502  0.00  0.00    +0.220 HD
ENDBRANCH  15  17
BRANCH  15  19
ATOM     19  O   UNL     1       7.433  -6.004  26.783  0.00  0.00    -0.323 OA
ATOM     20  H   UNL     1       7.850  -6.786  26.368  0.00  0.00    +0.220 HD
ENDBRANCH  15  19
ENDBRANCH  14  15
ENDBRANCH  13  14
ENDBRANCH   1  13
BRANCH   1  21
ATOM     21  C   UNL     1       7.895  -3.019  22.714  0.00  0.00    +0.189 C 
BRANCH  21  22
ATOM     22  O   UNL     1       7.036  -1.893  22.514  0.00  0.00    -0.392 OA
ATOM     23  H   UNL     1       6.156  -2.253  22.297  0.00  0.00    +0.210 HD
ENDBRANCH  21  22
ENDBRANCH   1  21
TORSDOF 9
ENDMDL
MODEL 3
REMARK VINA RESULT:      -5.9      2.250      2.944
REMARK  Name = 
REMARK  9 active torsions:
REMARK  status: ('A' for Active; 'I' for Inactive)
REMARK    1  A    between atoms: N_3  and  C_9
REMARK    2  A    between atoms: C_9  and  C_10
REMARK    3  A    between atoms: C_10  and  C_12
REMARK    4  A    between atoms: C_10  and  O_14
REMARK    5  A    between atoms: C_12  and  O_13
REMARK    6  A    between atoms: O_14  and  C_15
REMARK    7  A    between atoms: C_15  and  P_16
REMARK    8  A    between atoms: P_16  and  O_18
REMARK    9  A    between atoms: P_16  and  O_19
REMARK                            x       y       z     vdW  Elec       q    Type
REMARK                         _______ _______ _______ _____ _____    ______ ____
ROOT
ATOM      1  C   UNL     1       8.414  -3.807  23.837  0.00  0.00    +0.164 C 
ENDROOT
BRANCH   1   2
ATOM      2  C   UNL     1       8.921  -2.545  24.553  0.00  0.00    +0.160 C 
BRANCH   2  11
ATOM      3  C   UNL     1       9.468  -0.517  21.537  0.00  0.00    +0.061 A 
ATOM      4  C   UNL     1       9.766   0.756  22.222  0.00  0.00    +0.123 A 
ATOM      5  N   UNL     1       9.871   1.908  21.494  0.00  0.00    -0.343 N 
ATOM      6  H   UNL     1      10.212   1.844  20.542  0.00  0.00    +0.144 HD
ATOM      7  H   UNL     1      10.275   2.673  22.026  0.00  0.00    +0.144 HD
ATOM      8  N   UNL     1       9.929   0.856  23.503  0.00  0.00    -0.178 NA
ATOM      9  C   UNL     1       9.763  -0.248  24.300  0.00  0.00    +0.350 A 
ATOM     10  O   UNL     1       9.935  -0.187  25.515  0.00  0.00    -0.244 OA
ATOM     11  N   UNL     1       9.364  -1.448  23.698  0.00  0.00    -0.296 N 
ATOM     12  C   UNL     1       9.261  -1.562  22.331  0.00  0.00    +0.094 A 
ENDBRANCH   2  11
ENDBRANCH   1   2
BRANCH   1  13
ATOM     13  O   UNL     1       6.972  -3.785  23.767  0.00  0.00    -0.360 OA
BRANCH  13  14
ATOM     14  C   UNL     1       6.324  -5.059  23.938  0.00  0.00    +0.286 C 
BRANCH  14  15
ATOM     15  P   UNL     1       5.676  -5.455  22.306  0.00  0.00    +0.353 P 
ATOM     16  O   UNL     1       5.796  -4.407  21.251  0.00  0.00    -0.256 OA
BRANCH  15  17
ATOM     17  O   UNL     1       4.183  -6.007  22.478  0.00  0.00    -0.323 OA
ATOM     18  H   UNL     1       3.684  -5.431  23.091  0.00  0.00    +0.220 HD
ENDBRANCH  15  17
BRANCH  15  19
ATOM     19  O   UNL     1       6.448  -6.806  21.904  0.00  0.00    -0.323 OA
ATOM     20  H   UNL     1       6.540  -7.398  22.679  0.00  0.00    +0.220 HD
ENDBRANCH  15  19
ENDBRANCH  14  15
ENDBRANCH  13  14
ENDBRANCH   1  13
BRANCH   1  21
ATOM     21  C   UNL     1       8.771  -5.083  24.619  0.00  0.00    +0.189 C 
BRANCH  21  22
ATOM     22  O   UNL     1      10.185  -5.164  24.818  0.00  0.00    -0.392 OA
ATOM     23  H   UNL     1      10.509  -4.246  24.867  0.00  0.00    +0.210 HD
ENDBRANCH  21  22
ENDBRANCH   1  21
TORSDOF 9
ENDMDL
MODEL 4
REMARK VINA RESULT:      -5.7      1.976      2.606
REMARK  Name = 
REMARK  9 active torsions:
REMARK  status: ('A' for Active; 'I' for Inactive)
REMARK    1  A    between atoms: N_3  and  C_9
REMARK    2  A    between atoms: C_9  and  C_10
REMARK    3  A    between atoms: C_10  and  C_12
REMARK    4  A    between atoms: C_10  and  O_14
REMARK    5  A    between atoms: C_12  and  O_13
REMARK    6  A    between atoms: O_14  and  C_15
REMARK    7  A    between atoms: C_15  and  P_16
REMARK    8  A    between atoms: P_16  and  O_18
REMARK    9  A    between atoms: P_16  and  O_19
REMARK                            x       y       z     vdW  Elec       q    Type
REMARK                         _______ _______ _______ _____ _____    ______ ____
ROOT
ATOM      1  C   UNL     1       6.526  -3.874  23.538  0.00  0.00    +0.164 C 
ENDROOT
BRANCH   1   2
ATOM      2  C   UNL     1       7.686  -3.383  22.658  0.00  0.00    +0.160 C 
BRANCH   2  11
ATOM      3  C   UNL     1       8.326   0.168  23.365  0.00  0.00    +0.061 A 
ATOM      4  C   UNL     1       9.424  -0.032  24.333  0.00  0.00    +0.123 A 
ATOM      5  N   UNL     1       9.902   1.033  25.044  0.00  0.00    -0.343 N 
ATOM      6  H   UNL     1       9.872   1.949  24.611  0.00  0.00    +0.144 HD
ATOM      7  H   UNL     1      10.776   0.828  25.517  0.00  0.00    +0.144 HD
ATOM      8  N   UNL     1       9.970  -1.183  24.564  0.00  0.00    -0.178 NA
ATOM      9  C   UNL     1       9.488  -2.305  23.940  0.00  0.00    +0.350 A 
ATOM     10  O   UNL     1      10.004  -3.406  24.123  0.00  0.00    -0.244 OA
ATOM     11  N   UNL     1       8.371  -2.174  23.105  0.00  0.00    -0.296 N 
ATOM     12  C   UNL     1       7.841  -0.938  22.811  0.00  0.00    +0.094 A 
ENDBRANCH   2  11
ENDBRANCH   1   2
BRANCH   1  13
ATOM     13  O   UNL     1       6.869  -5.142  24.138  0.00  0.00    -0.360 OA
BRANCH  13  14
ATOM     14  C   UNL     1       6.406  -5.335  25.486  0.00  0.00    +0.286 C 
BRANCH  14  15
ATOM     15  P   UNL     1       7.867  -5.070  26.504  0.00  0.00    +0.353 P 
ATOM     16  O   UNL     1       8.151  -3.673  26.942  0.00  0.00    -0.256 OA
BRANCH  15  17
ATOM     17  O   UNL     1       9.114  -5.771  25.787  0.00  0.00    -0.323 OA
ATOM     18  H   UNL     1       9.582  -5.121  25.224  0.00  0.00    +0.220 HD
ENDBRANCH  15  17
BRANCH  15  19
ATOM     19  O   UNL     1       7.649  -6.059  27.753  0.00  0.00    -0.323 OA
ATOM     20  H   UNL     1       8.071  -6.927  27.587  0.00  0.00    +0.220 HD
ENDBRANCH  15  19
ENDBRANCH  14  15
ENDBRANCH  13  14
ENDBRANCH   1  13
BRANCH   1  21
ATOM     21  C   UNL     1       5.258  -4.139  22.707  0.00  0.00    +0.189 C 
BRANCH  21  22
ATOM     22  O   UNL     1       5.444  -3.687  21.362  0.00  0.00    -0.392 OA
ATOM     23  H   UNL     1       4.564  -3.423  21.037  0.00  0.00    +0.210 HD
ENDBRANCH  21  22
ENDBRANCH   1  21
TORSDOF 9
ENDMDL
MODEL 5
REMARK VINA RESULT:      -5.6      4.030      6.837
REMARK  Name = 
REMARK  9 active torsions:
REMARK  status: ('A' for Active; 'I' for Inactive)
REMARK    1  A    between atoms: N_3  and  C_9
REMARK    2  A    between atoms: C_9  and  C_10
REMARK    3  A    between atoms: C_10  and  C_12
REMARK    4  A    between atoms: C_10  and  O_14
REMARK    5  A    between atoms: C_12  and  O_13
REMARK    6  A    between atoms: O_14  and  C_15
REMARK    7  A    between atoms: C_15  and  P_16
REMARK    8  A    between atoms: P_16  and  O_18
REMARK    9  A    between atoms: P_16  and  O_19
REMARK                            x       y       z     vdW  Elec       q    Type
REMARK                         _______ _______ _______ _____ _____    ______ ____
ROOT
ATOM      1  C   UNL     1       8.856  -1.538  23.434  0.00  0.00    +0.164 C 
ENDROOT
BRANCH   1   2
ATOM      2  C   UNL     1       8.230  -2.899  23.087  0.00  0.00    +0.160 C 
BRANCH   2  11
ATOM      3  C   UNL     1       9.098  -4.699  26.173  0.00  0.00    +0.061 A 
ATOM      4  C   UNL     1       7.797  -5.371  26.366  0.00  0.00    +0.123 A 
ATOM      5  N   UNL     1       7.552  -6.049  27.528  0.00  0.00    -0.343 N 
ATOM      6  H   UNL     1       8.334  -6.484  28.002  0.00  0.00    +0.144 HD
ATOM      7  H   UNL     1       6.725  -6.636  27.472  0.00  0.00    +0.144 HD
ATOM      8  N   UNL     1       6.846  -5.351  25.488  0.00  0.00    -0.178 NA
ATOM      9  C   UNL     1       6.999  -4.626  24.333  0.00  0.00    +0.350 A 
ATOM     10  O   UNL     1       6.122  -4.610  23.472  0.00  0.00    -0.244 OA
ATOM     11  N   UNL     1       8.173  -3.880  24.167  0.00  0.00    -0.296 N 
ATOM     12  C   UNL     1       9.206  -3.962  25.073  0.00  0.00    +0.094 A 
ENDBRANCH   2  11
ENDBRANCH   1   2
BRANCH   1  13
ATOM     13  O   UNL     1       8.051  -0.475  22.882  0.00  0.00    -0.360 OA
BRANCH  13  14
ATOM     14  C   UNL     1       8.228   0.816  23.492  0.00  0.00    +0.286 C 
BRANCH  14  15
ATOM     15  P   UNL     1       8.289   1.963  22.105  0.00  0.00    +0.353 P 
ATOM     16  O   UNL     1       7.061   2.761  21.825  0.00  0.00    -0.256 OA
BRANCH  15  17
ATOM     17  O   UNL     1       8.835   1.176  20.823  0.00  0.00    -0.323 OA
ATOM     18  H   UNL     1       8.092   0.971  20.219  0.00  0.00    +0.220 HD
ENDBRANCH  15  17
BRANCH  15  19
ATOM     19  O   UNL     1       9.553   2.900  22.438  0.00  0.00    -0.323 OA
ATOM     20  H   UNL     1       9.838   2.782  23.367  0.00  0.00    +0.220 HD
ENDBRANCH  15  19
ENDBRANCH  14  15
ENDBRANCH  13  14
ENDBRANCH   1  13
BRANCH   1  21
ATOM     21  C   UNL     1      10.247  -1.377  22.797  0.00  0.00    +0.189 C 
BRANCH  21  22
ATOM     22  O   UNL     1      10.157  -1.482  21.373  0.00  0.00    -0.392 OA
ATOM     23  H   UNL     1      10.505  -0.646  21.013  0.00  0.00    +0.210 HD
ENDBRANCH  21  22
ENDBRANCH   1  21
TORSDOF 9
ENDMDL
MODEL 6
REMARK VINA RESULT:      -5.5      2.685      3.335
REMARK  Name = 
REMARK  9 active torsions:
REMARK  status: ('A' for Active; 'I' for Inactive)
REMARK    1  A    between atoms: N_3  and  C_9
REMARK    2  A    between atoms: C_9  and  C_10
REMARK    3  A    between atoms: C_10  and  C_12
REMARK    4  A    between atoms: C_10  and  O_14
REMARK    5  A    between atoms: C_12  and  O_13
REMARK    6  A    between atoms: O_14  and  C_15
REMARK    7  A    between atoms: C_15  and  P_16
REMARK    8  A    between atoms: P_16  and  O_18
REMARK    9  A    between atoms: P_16  and  O_19
REMARK                            x       y       z     vdW  Elec       q    Type
REMARK                         _______ _______ _______ _____ _____    ______ ____
ROOT
ATOM      1  C   UNL     1       8.703  -3.414  24.066  0.00  0.00    +0.164 C 
ENDROOT
BRANCH   1   2
ATOM      2  C   UNL     1       8.430  -2.105  24.823  0.00  0.00    +0.160 C 
BRANCH   2  11
ATOM      3  C   UNL     1      10.588   0.569  23.518  0.00  0.00    +0.061 A 
ATOM      4  C   UNL     1       9.625   1.127  22.548  0.00  0.00    +0.123 A 
ATOM      5  N   UNL     1      10.037   2.074  21.652  0.00  0.00    -0.343 N 
ATOM      6  H   UNL     1      10.780   2.704  21.930  0.00  0.00    +0.144 HD
ATOM      7  H   UNL     1       9.263   2.530  21.180  0.00  0.00    +0.144 HD
ATOM      8  N   UNL     1       8.385   0.761  22.484  0.00  0.00    -0.178 NA
ATOM      9  C   UNL     1       7.924  -0.238  23.303  0.00  0.00    +0.350 A 
ATOM     10  O   UNL     1       6.746  -0.588  23.280  0.00  0.00    -0.244 OA
ATOM     11  N   UNL     1       8.838  -0.873  24.155  0.00  0.00    -0.296 N 
ATOM     12  C   UNL     1      10.136  -0.431  24.267  0.00  0.00    +0.094 A 
ENDBRANCH   2  11
ENDBRANCH   1   2
BRANCH   1  13
ATOM     13  O   UNL     1       7.535  -3.794  23.307  0.00  0.00    -0.360 OA
BRANCH  13  14
ATOM     14  C   UNL     1       7.493  -5.167  22.879  0.00  0.00    +0.286 C 
BRANCH  14  15
ATOM     15  P   UNL     1       5.864  -5.357  22.138  0.00  0.00    +0.353 P 
ATOM     16  O   UNL     1       4.934  -4.194  22.224  0.00  0.00    -0.256 OA
BRANCH  15  17
ATOM     17  O   UNL     1       5.221  -6.720  22.679  0.00  0.00    -0.323 OA
ATOM     18  H   UNL     1       4.515  -6.519  23.327  0.00  0.00    +0.220 HD
ENDBRANCH  15  17
BRANCH  15  19
ATOM     19  O   UNL     1       6.181  -5.764  20.615  0.00  0.00    -0.323 OA
ATOM     20  H   UNL     1       6.056  -4.998  20.018  0.00  0.00    +0.220 HD
ENDBRANCH  15  19
ENDBRANCH  14  15
ENDBRANCH  13  14
ENDBRANCH   1  13
BRANCH   1  21
ATOM     21  C   UNL     1       8.965  -4.583  25.032  0.00  0.00    +0.189 C 
BRANCH  21  22
ATOM     22  O   UNL     1      10.299  -5.073  24.867  0.00  0.00    -0.392 OA
ATOM     23  H   UNL     1      10.422  -5.219  23.911  0.00  0.00    +0.210 HD
ENDBRANCH  21  22
ENDBRANCH   1  21
TORSDOF 9
ENDMDL
MODEL 7
REMARK VINA RESULT:      -5.4      3.604      5.767
REMARK  Name = 
REMARK  9 active torsions:
REMARK  status: ('A' for Active; 'I' for Inactive)
REMARK    1  A    between atoms: N_3  and  C_9
REMARK    2  A    between atoms: C_9  and  C_10
REMARK    3  A    between atoms: C_10  and  C_12
REMARK    4  A    between atoms: C_10  and  O_14
REMARK    5  A    between atoms: C_12  and  O_13
REMARK    6  A    between atoms: O_14  and  C_15
REMARK    7  A    between atoms: C_15  and  P_16
REMARK    8  A    between atoms: P_16  and  O_18
REMARK    9  A    between atoms: P_16  and  O_19
REMARK                            x       y       z     vdW  Elec       q    Type
REMARK                         _______ _______ _______ _____ _____    ______ ____
ROOT
ATOM      1  C   UNL     1       8.085  -1.402  25.737  0.00  0.00    +0.164 C 
ENDROOT
BRANCH   1   2
ATOM      2  C   UNL     1       8.232  -2.867  26.179  0.00  0.00    +0.160 C 
BRANCH   2  11
ATOM      3  C   UNL     1       6.019  -4.748  23.926  0.00  0.00    +0.061 A 
ATOM      4  C   UNL     1       7.078  -5.438  23.162  0.00  0.00    +0.123 A 
ATOM      5  N   UNL     1       6.748  -6.152  22.043  0.00  0.00    -0.343 N 
ATOM      6  H   UNL     1       5.837  -6.593  22.008  0.00  0.00    +0.144 HD
ATOM      7  H   UNL     1       7.507  -6.745  21.720  0.00  0.00    +0.144 HD
ATOM      8  N   UNL     1       8.330  -5.401  23.485  0.00  0.00    -0.178 NA
ATOM      9  C   UNL     1       8.738  -4.642  24.552  0.00  0.00    +0.350 A 
ATOM     10  O   UNL     1       9.917  -4.608  24.896  0.00  0.00    -0.244 OA
ATOM     11  N   UNL     1       7.778  -3.879  25.230  0.00  0.00    -0.296 N 
ATOM     12  C   UNL     1       6.440  -3.978  24.924  0.00  0.00    +0.094 A 
ENDBRANCH   2  11
ENDBRANCH   1   2
BRANCH   1  13
ATOM     13  O   UNL     1       9.238  -1.005  24.965  0.00  0.00    -0.360 OA
BRANCH  13  14
ATOM     14  C   UNL     1       8.953  -0.297  23.745  0.00  0.00    +0.286 C 
BRANCH  14  15
ATOM     15  P   UNL     1       9.476  -1.422  22.440  0.00  0.00    +0.353 P 
ATOM     16  O   UNL     1      10.689  -2.249  22.698  0.00  0.00    -0.256 OA
BRANCH  15  17
ATOM     17  O   UNL     1       9.553  -0.600  21.068  0.00  0.00    -0.323 OA
ATOM     18  H   UNL     1      10.339  -0.017  21.074  0.00  0.00    +0.220 HD
ENDBRANCH  15  17
BRANCH  15  19
ATOM     19  O   UNL     1       8.175  -2.328  22.171  0.00  0.00    -0.323 OA
ATOM     20  H   UNL     1       7.396  -1.965  22.639  0.00  0.00    +0.220 HD
ENDBRANCH  15  19
ENDBRANCH  14  15
ENDBRANCH  13  14
ENDBRANCH   1  13
BRANCH   1  21
ATOM     21  C   UNL     1       8.046  -0.448  26.944  0.00  0.00    +0.189 C 
BRANCH  21  22
ATOM     22  O   UNL     1       9.295  -0.480  27.640  0.00  0.00    -0.392 OA
ATOM     23  H   UNL     1       9.976  -0.696  26.977  0.00  0.00    +0.210 HD
ENDBRANCH  21  22
ENDBRANCH   1  21
TORSDOF 9
ENDMDL
MODEL 8
REMARK VINA RESULT:      -5.4      4.429      6.785
REMARK  Name = 
REMARK  9 active torsions:
REMARK  status: ('A' for Active; 'I' for Inactive)
REMARK    1  A    between atoms: N_3  and  C_9
REMARK    2  A    between atoms: C_9  and  C_10
REMARK    3  A    between atoms: C_10  and  C_12
REMARK    4  A    between atoms: C_10  and  O_14
REMARK    5  A    between atoms: C_12  and  O_13
REMARK    6  A    between atoms: O_14  and  C_15
REMARK    7  A    between atoms: C_15  and  P_16
REMARK    8  A    between atoms: P_16  and  O_18
REMARK    9  A    between atoms: P_16  and  O_19
REMARK                            x       y       z     vdW  Elec       q    Type
REMARK                         _______ _______ _______ _____ _____    ______ ____
ROOT
ATOM      1  C   UNL     1       8.672  -1.814  23.383  0.00  0.00    +0.164 C 
ENDROOT
BRANCH   1   2
ATOM      2  C   UNL     1       7.698  -2.336  22.315  0.00  0.00    +0.160 C 
BRANCH   2  11
ATOM      3  C   UNL     1       6.815  -5.456  24.047  0.00  0.00    +0.061 A 
ATOM      4  C   UNL     1       5.587  -5.750  23.281  0.00  0.00    +0.123 A 
ATOM      5  N   UNL     1       4.764  -6.764  23.686  0.00  0.00    -0.343 N 
ATOM      6  H   UNL     1       5.181  -7.561  24.152  0.00  0.00    +0.144 HD
ATOM      7  H   UNL     1       4.073  -7.011  22.985  0.00  0.00    +0.144 HD
ATOM      8  N   UNL     1       5.225  -5.087  22.230  0.00  0.00    -0.178 NA
ATOM      9  C   UNL     1       5.966  -4.009  21.815  0.00  0.00    +0.350 A 
ATOM     10  O   UNL     1       5.659  -3.377  20.806  0.00  0.00    -0.244 OA
ATOM     11  N   UNL     1       7.072  -3.627  22.584  0.00  0.00    -0.296 N 
ATOM     12  C   UNL     1       7.489  -4.379  23.659  0.00  0.00    +0.094 A 
ENDBRANCH   2  11
ENDBRANCH   1   2
BRANCH   1  13
ATOM     13  O   UNL     1       8.311  -0.467  23.758  0.00  0.00    -0.360 OA
BRANCH  13  14
ATOM     14  C   UNL     1       7.354   0.179  22.899  0.00  0.00    +0.286 C 
BRANCH  14  15
ATOM     15  P   UNL     1       8.214   1.638  22.286  0.00  0.00    +0.353 P 
ATOM     16  O   UNL     1       9.214   2.272  23.193  0.00  0.00    -0.256 OA
BRANCH  15  17
ATOM     17  O   UNL     1       7.123   2.669  21.732  0.00  0.00    -0.323 OA
ATOM     18  H   UNL     1       7.511   3.210  21.014  0.00  0.00    +0.220 HD
ENDBRANCH  15  17
BRANCH  15  19
ATOM     19  O   UNL     1       8.879   1.140  20.909  0.00  0.00    -0.323 OA
ATOM     20  H   UNL     1       8.556   0.248  20.670  0.00  0.00    +0.220 HD
ENDBRANCH  15  19
ENDBRANCH  14  15
ENDBRANCH  13  14
ENDBRANCH   1  13
BRANCH   1  21
ATOM     21  C   UNL     1      10.110  -1.721  22.842  0.00  0.00    +0.189 C 
BRANCH  21  22
ATOM     22  O   UNL     1      10.095  -1.574  21.419  0.00  0.00    -0.392 OA
ATOM     23  H   UNL     1      10.324  -0.645  21.236  0.00  0.00    +0.210 HD
ENDBRANCH  21  22
ENDBRANCH   1  21
TORSDOF 9
ENDMDL
MODEL 9
REMARK VINA RESULT:      -5.4      2.162      2.892
REMARK  Name = 
REMARK  9 active torsions:
REMARK  status: ('A' for Active; 'I' for Inactive)
REMARK    1  A    between atoms: N_3  and  C_9
REMARK    2  A    between atoms: C_9  and  C_10
REMARK    3  A    between atoms: C_10  and  C_12
REMARK    4  A    between atoms: C_10  and  O_14
REMARK    5  A    between atoms: C_12  and  O_13
REMARK    6  A    between atoms: O_14  and  C_15
REMARK    7  A    between atoms: C_15  and  P_16
REMARK    8  A    between atoms: P_16  and  O_18
REMARK    9  A    between atoms: P_16  and  O_19
REMARK                            x       y       z     vdW  Elec       q    Type
REMARK                         _______ _______ _______ _____ _____    ______ ____
ROOT
ATOM      1  C   UNL     1       8.443  -3.624  23.665  0.00  0.00    +0.164 C 
ENDROOT
BRANCH   1   2
ATOM      2  C   UNL     1       9.624  -2.706  24.016  0.00  0.00    +0.160 C 
BRANCH   2  11
ATOM      3  C   UNL     1       9.437  -0.293  21.249  0.00  0.00    +0.061 A 
ATOM      4  C   UNL     1       9.400   0.931  22.073  0.00  0.00    +0.123 A 
ATOM      5  N   UNL     1       9.144   2.137  21.483  0.00  0.00    -0.343 N 
ATOM      6  H   UNL     1       9.443   2.274  20.525  0.00  0.00    +0.144 HD
ATOM      7  H   UNL     1       9.344   2.923  22.095  0.00  0.00    +0.144 HD
ATOM      8  N   UNL     1       9.590   0.934  23.354  0.00  0.00    -0.178 NA
ATOM      9  C   UNL     1       9.778  -0.250  24.019  0.00  0.00    +0.350 A 
ATOM     10  O   UNL     1       9.985  -0.274  25.231  0.00  0.00    -0.244 OA
ATOM     11  N   UNL     1       9.702  -1.443  23.288  0.00  0.00    -0.296 N 
ATOM     12  C   UNL     1       9.568  -1.434  21.918  0.00  0.00    +0.094 A 
ENDBRANCH   2  11
ENDBRANCH   1   2
BRANCH   1  13
ATOM     13  O   UNL     1       7.197  -2.942  23.927  0.00  0.00    -0.360 OA
BRANCH  13  14
ATOM     14  C   UNL     1       7.001  -2.512  25.286  0.00  0.00    +0.286 C 
BRANCH  14  15
ATOM     15  P   UNL     1       6.136  -0.940  25.139  0.00  0.00    +0.353 P 
ATOM     16  O   UNL     1       4.692  -0.918  25.513  0.00  0.00    -0.256 OA
BRANCH  15  17
ATOM     17  O   UNL     1       6.418  -0.344  23.680  0.00  0.00    -0.323 OA
ATOM     18  H   UNL     1       7.372  -0.413  23.472  0.00  0.00    +0.220 HD
ENDBRANCH  15  17
BRANCH  15  19
ATOM     19  O   UNL     1       7.008   0.064  26.043  0.00  0.00    -0.323 OA
ATOM     20  H   UNL     1       7.718   0.480  25.513  0.00  0.00    +0.220 HD
ENDBRANCH  15  19
ENDBRANCH  14  15
ENDBRANCH  13  14
ENDBRANCH   1  13
BRANCH   1  21
ATOM     21  C   UNL     1       8.420  -4.881  24.553  0.00  0.00    +0.189 C 
BRANCH  21  22
ATOM     22  O   UNL     1       9.753  -5.336  24.803  0.00  0.00    -0.392 OA
ATOM     23  H   UNL     1      10.052  -5.776  23.986  0.00  0.00    +0.210 HD
ENDBRANCH  21  22
ENDBRANCH   1  21
TORSDOF 9
ENDMDL
