MODEL 1
REMARK VINA RESULT:      -6.4      0.000      0.000
REMARK  Name = 
REMARK  21 active torsions:
REMARK  status: ('A' for Active; 'I' for Inactive)
REMARK    1  A    between atoms: C_1  and  C_2
REMARK    2  A    between atoms: C_2  and  C_3
REMARK    3  A    between atoms: C_2  and  C_4
REMARK    4  A    between atoms: C_2  and  C_5
REMARK    5  A    between atoms: C_5  and  C_7
REMARK    6  A    between atoms: C_5  and  N_47
REMARK    7  A    between atoms: C_11  and  O_33
REMARK    8  A    between atoms: C_13  and  C_15
REMARK    9  A    between atoms: N_17  and  S_27
REMARK   10  A    between atoms: C_18  and  C_20
REMARK   11  A    between atoms: C_20  and  N_26
REMARK   12  A    between atoms: C_22  and  C_24
REMARK   13  A    between atoms: S_27  and  C_30
REMARK   14  A    between atoms: O_33  and  C_34
REMARK   15  A    between atoms: C_37  and  O_45
REMARK   16  A    between atoms: O_45  and  C_46
REMARK   17  A    between atoms: C_48  and  O_50
REMARK   18  A    between atoms: O_50  and  C_51
REMARK   19  A    between atoms: C_51  and  C_52
REMARK   20  A    between atoms: C_51  and  C_53
REMARK   21  A    between atoms: C_51  and  C_54
REMARK                            x       y       z     vdW  Elec       q    Type
REMARK                         _______ _______ _______ _____ _____    ______ ____
ROOT
ATOM      1  C   UNL     1       8.993   0.367  24.810  0.00  0.00    +0.237 C 
ATOM      2  N   UNL     1       8.188   0.017  25.887  0.00  0.00    -0.285 N 
ATOM      3  C   UNL     1       6.791   0.436  26.126  0.00  0.00    +0.168 C 
ATOM      4  C   UNL     1       6.184  -0.731  26.943  0.00  0.00    +0.078 C 
ATOM      5  C   UNL     1       7.249  -1.856  27.030  0.00  0.00    +0.195 C 
ATOM      6  C   UNL     1       8.552  -1.110  26.749  0.00  0.00    +0.153 C 
ATOM      7  O   UNL     1      10.078  -0.197  24.622  0.00  0.00    -0.274 OA
ENDROOT
BRANCH   3   8
ATOM      8  C   UNL     1       6.575   1.831  26.877  0.00  0.00    +0.262 C 
ATOM      9  N   UNL     1       5.494   2.695  26.481  0.00  0.00    -0.107 N 
ATOM     10  C   UNL     1       5.237   3.940  27.158  0.00  0.00    +0.262 C 
ATOM     11  O   UNL     1       4.252   4.614  26.871  0.00  0.00    -0.272 OA
ATOM     12  O   UNL     1       7.320   2.100  27.820  0.00  0.00    -0.272 OA
BRANCH   9  13
ATOM     13  S   UNL     1       4.365   2.362  25.260  0.00  0.00    +0.057 S 
ATOM     14  O   UNL     1       3.131   1.930  25.887  0.00  0.00    -0.154 OA
ATOM     15  O   UNL     1       4.956   1.519  24.246  0.00  0.00    -0.154 OA
BRANCH  13  16
ATOM     16  C   UNL     1       4.025   3.959  24.432  0.00  0.00    +0.152 C 
ATOM     17  C   UNL     1       2.702   4.081  23.730  0.00  0.00    +0.030 C 
ATOM     18  C   UNL     1       3.947   3.816  22.928  0.00  0.00    +0.030 C 
ENDBRANCH  13  16
ENDBRANCH   9  13
BRANCH  10  19
ATOM     19  C   UNL     1       6.165   4.587  28.195  0.00  0.00    +0.103 C 
ATOM     20  C   UNL     1       5.969   4.353  29.683  0.00  0.00    +0.042 C 
ATOM     21  C   UNL     1       5.512   5.652  29.105  0.00  0.00    +0.042 C 
BRANCH  19  22
ATOM     22  N   UNL     1       7.443   5.064  27.617  0.00  0.00    -0.317 NA
ATOM     23  H   UNL     1       7.455   4.936  26.607  0.00  0.00    +0.119 HD
ATOM     24  H   UNL     1       8.231   4.533  27.991  0.00  0.00    +0.119 HD
ENDBRANCH  19  22
BRANCH  20  25
ATOM     25  C   UNL     1       4.943   3.417  30.156  0.00  0.00    -0.029 C 
ATOM     26  C   UNL     1       5.165   2.138  30.485  0.00  0.00    +0.004 C 
ENDBRANCH  20  25
ENDBRANCH  10  19
ENDBRANCH   3   8
BRANCH   1  27
ATOM     27  C   UNL     1       8.577   1.562  23.896  0.00  0.00    +0.168 C 
BRANCH  27  29
ATOM     28  C   UNL     1       7.951   2.167  21.498  0.00  0.00    +0.013 C 
ATOM     29  C   UNL     1       8.983   1.444  22.381  0.00  0.00    -0.011 C 
ATOM     30  C   UNL     1      10.348   2.132  22.117  0.00  0.00    +0.013 C 
ATOM     31  C   UNL     1       9.122  -0.016  21.906  0.00  0.00    +0.013 C 
ENDBRANCH  27  29
BRANCH  27  32
ATOM     32  N   UNL     1       9.165   2.742  24.526  0.00  0.00    -0.269 N 
ATOM     33  H   UNL     1      10.111   2.688  24.892  0.00  0.00    +0.153 HD
ATOM     34  C   UNL     1       8.527   3.932  24.581  0.00  0.00    +0.401 C 
ATOM     35  O   UNL     1       7.384   4.104  24.185  0.00  0.00    -0.226 OA
BRANCH  34  36
ATOM     36  O   UNL     1       9.331   4.886  25.098  0.00  0.00    -0.445 OA
BRANCH  36  37
ATOM     37  C   UNL     1       9.908   5.889  24.218  0.00  0.00    +0.107 C 
ATOM     38  C   UNL     1      11.237   5.412  23.615  0.00  0.00    +0.055 C 
ATOM     39  C   UNL     1      10.200   7.108  25.106  0.00  0.00    +0.055 C 
ATOM     40  C   UNL     1       8.908   6.309  23.135  0.00  0.00    +0.055 C 
ENDBRANCH  36  37
ENDBRANCH  34  36
ENDBRANCH  27  32
ENDBRANCH   1  27
BRANCH   5  41
ATOM     41  O   UNL     1       6.950  -2.824  26.013  0.00  0.00    -0.471 OA
BRANCH  41  42
ATOM     42  C   UNL     1       6.011  -3.823  26.269  0.00  0.00    +0.223 A 
ATOM     43  C   UNL     1       5.679  -4.642  25.168  0.00  0.00    +0.049 A 
ATOM     44  C   UNL     1       6.156  -4.398  23.862  0.00  0.00    +0.034 A 
ATOM     45  C   UNL     1       5.796  -5.220  22.796  0.00  0.00    +0.042 A 
ATOM     46 CL   UNL     1       6.363  -4.859  21.213  0.00  0.00    -0.084 Cl
ATOM     47  C   UNL     1       4.974  -6.318  23.002  0.00  0.00    +0.021 A 
ATOM     48  C   UNL     1       4.492  -6.579  24.284  0.00  0.00    +0.014 A 
ATOM     49  C   UNL     1       4.816  -5.745  25.382  0.00  0.00    +0.030 A 
ATOM     50  C   UNL     1       4.307  -5.974  26.676  0.00  0.00    +0.146 A 
ATOM     51  C   UNL     1       4.664  -5.069  27.675  0.00  0.00    +0.160 A 
ATOM     52  N   UNL     1       5.510  -4.002  27.513  0.00  0.00    -0.217 NA
BRANCH  50  53
ATOM     53  O   UNL     1       3.500  -7.075  26.809  0.00  0.00    -0.493 OA
ATOM     54  C   UNL     1       2.165  -6.921  27.264  0.00  0.00    +0.277 C 
ENDBRANCH  50  53
ENDBRANCH  41  42
ENDBRANCH   5  41
TORSDOF 14
ENDMDL
MODEL 2
REMARK VINA RESULT:      -6.0      1.665      2.177
REMARK  Name = 
REMARK  21 active torsions:
REMARK  status: ('A' for Active; 'I' for Inactive)
REMARK    1  A    between atoms: C_1  and  C_2
REMARK    2  A    between atoms: C_2  and  C_3
REMARK    3  A    between atoms: C_2  and  C_4
REMARK    4  A    between atoms: C_2  and  C_5
REMARK    5  A    between atoms: C_5  and  C_7
REMARK    6  A    between atoms: C_5  and  N_47
REMARK    7  A    between atoms: C_11  and  O_33
REMARK    8  A    between atoms: C_13  and  C_15
REMARK    9  A    between atoms: N_17  and  S_27
REMARK   10  A    between atoms: C_18  and  C_20
REMARK   11  A    between atoms: C_20  and  N_26
REMARK   12  A    between atoms: C_22  and  C_24
REMARK   13  A    between atoms: S_27  and  C_30
REMARK   14  A    between atoms: O_33  and  C_34
REMARK   15  A    between atoms: C_37  and  O_45
REMARK   16  A    between atoms: O_45  and  C_46
REMARK   17  A    between atoms: C_48  and  O_50
REMARK   18  A    between atoms: O_50  and  C_51
REMARK   19  A    between atoms: C_51  and  C_52
REMARK   20  A    between atoms: C_51  and  C_53
REMARK   21  A    between atoms: C_51  and  C_54
REMARK                            x       y       z     vdW  Elec       q    Type
REMARK                         _______ _______ _______ _____ _____    ______ ____
ROOT
ATOM      1  C   UNL     1       9.248   0.365  24.739  0.00  0.00    +0.237 C 
ATOM      2  N   UNL     1       8.508  -0.153  25.795  0.00  0.00    -0.285 N 
ATOM      3  C   UNL     1       7.078   0.088  26.079  0.00  0.00    +0.168 C 
ATOM      4  C   UNL     1       6.620  -1.197  26.813  0.00  0.00    +0.078 C 
ATOM      5  C   UNL     1       7.805  -2.198  26.804  0.00  0.00    +0.195 C 
ATOM      6  C   UNL     1       9.011  -1.292  26.566  0.00  0.00    +0.153 C 
ATOM      7  O   UNL     1      10.385  -0.059  24.498  0.00  0.00    -0.274 OA
ENDROOT
BRANCH   3   8
ATOM      8  C   UNL     1       6.722   1.391  26.935  0.00  0.00    +0.262 C 
ATOM      9  N   UNL     1       5.542   2.153  26.619  0.00  0.00    -0.107 N 
ATOM     10  C   UNL     1       5.161   3.307  27.390  0.00  0.00    +0.262 C 
ATOM     11  O   UNL     1       4.101   3.884  27.167  0.00  0.00    -0.272 OA
ATOM     12  O   UNL     1       7.451   1.673  27.887  0.00  0.00    -0.272 OA
BRANCH   9  13
ATOM     13  S   UNL     1       4.433   1.784  25.390  0.00  0.00    +0.057 S 
ATOM     14  O   UNL     1       3.253   1.204  26.001  0.00  0.00    -0.154 OA
ATOM     15  O   UNL     1       5.086   1.057  24.326  0.00  0.00    -0.154 OA
BRANCH  13  16
ATOM     16  C   UNL     1       3.935   3.385  24.657  0.00  0.00    +0.152 C 
ATOM     17  C   UNL     1       2.686   3.380  23.821  0.00  0.00    +0.030 C 
ATOM     18  C   UNL     1       4.031   3.375  23.147  0.00  0.00    +0.030 C 
ENDBRANCH  13  16
ENDBRANCH   9  13
BRANCH  10  19
ATOM     19  C   UNL     1       6.032   3.979  28.462  0.00  0.00    +0.103 C 
ATOM     20  C   UNL     1       5.866   3.646  29.935  0.00  0.00    +0.042 C 
ATOM     21  C   UNL     1       5.289   4.927  29.430  0.00  0.00    +0.042 C 
BRANCH  19  22
ATOM     22  N   UNL     1       7.258   4.601  27.911  0.00  0.00    -0.317 NA
ATOM     23  H   UNL     1       7.587   4.092  27.092  0.00  0.00    +0.119 HD
ATOM     24  H   UNL     1       8.015   4.579  28.596  0.00  0.00    +0.119 HD
ENDBRANCH  19  22
BRANCH  20  25
ATOM     25  C   UNL     1       4.931   2.595  30.355  0.00  0.00    -0.029 C 
ATOM     26  C   UNL     1       5.233   1.294  30.450  0.00  0.00    +0.004 C 
ENDBRANCH  20  25
ENDBRANCH  10  19
ENDBRANCH   3   8
BRANCH   1  27
ATOM     27  C   UNL     1       8.684   1.569  23.922  0.00  0.00    +0.168 C 
BRANCH  27  29
ATOM     28  C   UNL     1       8.944   0.095  21.856  0.00  0.00    +0.013 C 
ATOM     29  C   UNL     1       8.966   1.544  22.375  0.00  0.00    -0.011 C 
ATOM     30  C   UNL     1       7.861   2.307  21.598  0.00  0.00    +0.013 C 
ATOM     31  C   UNL     1      10.309   2.198  21.996  0.00  0.00    +0.013 C 
ENDBRANCH  27  29
BRANCH  27  32
ATOM     32  N   UNL     1       9.251   2.755  24.559  0.00  0.00    -0.269 N 
ATOM     33  H   UNL     1      10.245   2.780  24.765  0.00  0.00    +0.153 HD
ATOM     34  C   UNL     1       8.519   3.860  24.824  0.00  0.00    +0.401 C 
ATOM     35  O   UNL     1       7.315   3.933  24.629  0.00  0.00    -0.226 OA
BRANCH  34  36
ATOM     36  O   UNL     1       9.300   4.855  25.295  0.00  0.00    -0.445 OA
BRANCH  36  37
ATOM     37  C   UNL     1       9.818   5.853  24.374  0.00  0.00    +0.107 C 
ATOM     38  C   UNL     1      11.151   5.410  23.754  0.00  0.00    +0.055 C 
ATOM     39  C   UNL     1      10.083   7.108  25.221  0.00  0.00    +0.055 C 
ATOM     40  C   UNL     1       8.779   6.205  23.303  0.00  0.00    +0.055 C 
ENDBRANCH  36  37
ENDBRANCH  34  36
ENDBRANCH  27  32
ENDBRANCH   1  27
BRANCH   5  41
ATOM     41  O   UNL     1       7.597  -3.116  25.720  0.00  0.00    -0.471 OA
BRANCH  41  42
ATOM     42  C   UNL     1       6.297  -3.474  25.361  0.00  0.00    +0.223 A 
ATOM     43  C   UNL     1       5.658  -4.389  26.225  0.00  0.00    +0.049 A 
ATOM     44  C   UNL     1       6.318  -5.008  27.308  0.00  0.00    +0.034 A 
ATOM     45  C   UNL     1       5.659  -5.917  28.133  0.00  0.00    +0.042 A 
ATOM     46 CL   UNL     1       6.514  -6.682  29.413  0.00  0.00    -0.084 Cl
ATOM     47  C   UNL     1       4.321  -6.217  27.920  0.00  0.00    +0.021 A 
ATOM     48  C   UNL     1       3.648  -5.616  26.856  0.00  0.00    +0.014 A 
ATOM     49  C   UNL     1       4.299  -4.711  25.983  0.00  0.00    +0.030 A 
ATOM     50  C   UNL     1       3.644  -4.124  24.882  0.00  0.00    +0.146 A 
ATOM     51  C   UNL     1       4.392  -3.274  24.068  0.00  0.00    +0.160 A 
ATOM     52  N   UNL     1       5.701  -2.923  24.279  0.00  0.00    -0.217 NA
BRANCH  50  53
ATOM     53  O   UNL     1       2.324  -4.465  24.728  0.00  0.00    -0.493 OA
ATOM     54  C   UNL     1       1.902  -5.142  23.555  0.00  0.00    +0.277 C 
ENDBRANCH  50  53
ENDBRANCH  41  42
ENDBRANCH   5  41
TORSDOF 14
ENDMDL
MODEL 3
REMARK VINA RESULT:      -5.6      2.942      9.150
REMARK  Name = 
REMARK  21 active torsions:
REMARK  status: ('A' for Active; 'I' for Inactive)
REMARK    1  A    between atoms: C_1  and  C_2
REMARK    2  A    between atoms: C_2  and  C_3
REMARK    3  A    between atoms: C_2  and  C_4
REMARK    4  A    between atoms: C_2  and  C_5
REMARK    5  A    between atoms: C_5  and  C_7
REMARK    6  A    between atoms: C_5  and  N_47
REMARK    7  A    between atoms: C_11  and  O_33
REMARK    8  A    between atoms: C_13  and  C_15
REMARK    9  A    between atoms: N_17  and  S_27
REMARK   10  A    between atoms: C_18  and  C_20
REMARK   11  A    between atoms: C_20  and  N_26
REMARK   12  A    between atoms: C_22  and  C_24
REMARK   13  A    between atoms: S_27  and  C_30
REMARK   14  A    between atoms: O_33  and  C_34
REMARK   15  A    between atoms: C_37  and  O_45
REMARK   16  A    between atoms: O_45  and  C_46
REMARK   17  A    between atoms: C_48  and  O_50
REMARK   18  A    between atoms: O_50  and  C_51
REMARK   19  A    between atoms: C_51  and  C_52
REMARK   20  A    between atoms: C_51  and  C_53
REMARK   21  A    between atoms: C_51  and  C_54
REMARK                            x       y       z     vdW  Elec       q    Type
REMARK                         _______ _______ _______ _____ _____    ______ ____
ROOT
ATOM      1  C   UNL     1       5.758  -2.267  24.101  0.00  0.00    +0.237 C 
ATOM      2  N   UNL     1       5.422  -1.437  25.163  0.00  0.00    -0.285 N 
ATOM      3  C   UNL     1       5.401  -1.793  26.597  0.00  0.00    +0.168 C 
ATOM      4  C   UNL     1       5.698  -0.456  27.319  0.00  0.00    +0.078 C 
ATOM      5  C   UNL     1       6.010   0.611  26.238  0.00  0.00    +0.195 C 
ATOM      6  C   UNL     1       5.375   0.016  24.983  0.00  0.00    +0.153 C 
ATOM      7  O   UNL     1       5.923  -1.804  22.965  0.00  0.00    -0.274 OA
ENDROOT
BRANCH   3   8
ATOM      8  C   UNL     1       4.058  -2.458  27.155  0.00  0.00    +0.262 C 
ATOM      9  N   UNL     1       4.132  -3.648  27.962  0.00  0.00    -0.107 N 
ATOM     10  C   UNL     1       2.952  -4.255  28.521  0.00  0.00    +0.262 C 
ATOM     11  O   UNL     1       3.045  -5.210  29.287  0.00  0.00    -0.272 OA
ATOM     12  O   UNL     1       2.991  -1.890  26.919  0.00  0.00    -0.272 OA
BRANCH   9  13
ATOM     13  S   UNL     1       5.561  -4.441  28.417  0.00  0.00    +0.057 S 
ATOM     14  O   UNL     1       5.635  -4.450  29.864  0.00  0.00    -0.154 OA
ATOM     15  O   UNL     1       6.683  -3.919  27.672  0.00  0.00    -0.154 OA
BRANCH  13  16
ATOM     16  C   UNL     1       5.375  -6.177  27.870  0.00  0.00    +0.152 C 
ATOM     17  C   UNL     1       5.100  -7.192  28.944  0.00  0.00    +0.030 C 
ATOM     18  C   UNL     1       6.491  -7.060  28.385  0.00  0.00    +0.030 C 
ENDBRANCH  13  16
ENDBRANCH   9  13
BRANCH  10  19
ATOM     19  C   UNL     1       1.510  -3.865  28.170  0.00  0.00    +0.103 C 
ATOM     20  C   UNL     1       0.771  -2.792  28.951  0.00  0.00    +0.042 C 
ATOM     21  C   UNL     1       0.443  -4.222  29.230  0.00  0.00    +0.042 C 
BRANCH  19  22
ATOM     22  N   UNL     1       1.103  -4.294  26.812  0.00  0.00    -0.317 NA
ATOM     23  H   UNL     1       0.093  -4.418  26.758  0.00  0.00    +0.119 HD
ATOM     24  H   UNL     1       1.523  -5.194  26.575  0.00  0.00    +0.119 HD
ENDBRANCH  19  22
BRANCH  20  25
ATOM     25  C   UNL     1       1.462  -2.032  30.000  0.00  0.00    -0.029 C 
ATOM     26  C   UNL     1       1.597  -0.700  30.020  0.00  0.00    +0.004 C 
ENDBRANCH  20  25
ENDBRANCH  10  19
ENDBRANCH   3   8
BRANCH   1  27
ATOM     27  C   UNL     1       5.817  -3.811  24.320  0.00  0.00    +0.168 C 
BRANCH  27  29
ATOM     28  C   UNL     1       7.326  -5.786  24.896  0.00  0.00    +0.013 C 
ATOM     29  C   UNL     1       7.215  -4.489  24.075  0.00  0.00    -0.011 C 
ATOM     30  C   UNL     1       7.380  -4.895  22.586  0.00  0.00    +0.013 C 
ATOM     31  C   UNL     1       8.401  -3.567  24.418  0.00  0.00    +0.013 C 
ENDBRANCH  27  29
BRANCH  27  32
ATOM     32  N   UNL     1       4.786  -4.357  23.442  0.00  0.00    -0.269 N 
ATOM     33  H   UNL     1       4.889  -4.258  22.436  0.00  0.00    +0.153 HD
ATOM     34  C   UNL     1       3.727  -5.055  23.907  0.00  0.00    +0.401 C 
ATOM     35  O   UNL     1       3.499  -5.222  25.095  0.00  0.00    -0.226 OA
BRANCH  34  36
ATOM     36  O   UNL     1       2.993  -5.555  22.889  0.00  0.00    -0.445 OA
BRANCH  36  37
ATOM     37  C   UNL     1       1.650  -6.047  23.149  0.00  0.00    +0.107 C 
ATOM     38  C   UNL     1       1.625  -7.010  24.345  0.00  0.00    +0.055 C 
ATOM     39  C   UNL     1       1.242  -6.836  21.896  0.00  0.00    +0.055 C 
ATOM     40  C   UNL     1       0.666  -4.886  23.330  0.00  0.00    +0.055 C 
ENDBRANCH  36  37
ENDBRANCH  34  36
ENDBRANCH  27  32
ENDBRANCH   1  27
BRANCH   5  41
ATOM     41  O   UNL     1       7.437   0.715  26.124  0.00  0.00    -0.471 OA
BRANCH  41  42
ATOM     42  C   UNL     1       7.999   1.849  25.537  0.00  0.00    +0.223 A 
ATOM     43  C   UNL     1       8.723   1.623  24.346  0.00  0.00    +0.049 A 
ATOM     44  C   UNL     1       8.979   0.330  23.841  0.00  0.00    +0.034 A 
ATOM     45  C   UNL     1       9.708   0.144  22.669  0.00  0.00    +0.042 A 
ATOM     46 CL   UNL     1      10.036  -1.450  22.114  0.00  0.00    -0.084 Cl
ATOM     47  C   UNL     1      10.181   1.235  21.955  0.00  0.00    +0.021 A 
ATOM     48  C   UNL     1       9.939   2.522  22.434  0.00  0.00    +0.014 A 
ATOM     49  C   UNL     1       9.227   2.742  23.638  0.00  0.00    +0.030 A 
ATOM     50  C   UNL     1       9.005   4.034  24.155  0.00  0.00    +0.146 A 
ATOM     51  C   UNL     1       8.321   4.132  25.366  0.00  0.00    +0.160 A 
ATOM     52  N   UNL     1       7.802   3.076  26.071  0.00  0.00    -0.217 NA
BRANCH  50  53
ATOM     53  O   UNL     1       9.501   5.067  23.401  0.00  0.00    -0.493 OA
ATOM     54  C   UNL     1      10.487   5.929  23.945  0.00  0.00    +0.277 C 
ENDBRANCH  50  53
ENDBRANCH  41  42
ENDBRANCH   5  41
TORSDOF 14
ENDMDL
MODEL 4
REMARK VINA RESULT:      -5.2      1.661      1.983
REMARK  Name = 
REMARK  21 active torsions:
REMARK  status: ('A' for Active; 'I' for Inactive)
REMARK    1  A    between atoms: C_1  and  C_2
REMARK    2  A    between atoms: C_2  and  C_3
REMARK    3  A    between atoms: C_2  and  C_4
REMARK    4  A    between atoms: C_2  and  C_5
REMARK    5  A    between atoms: C_5  and  C_7
REMARK    6  A    between atoms: C_5  and  N_47
REMARK    7  A    between atoms: C_11  and  O_33
REMARK    8  A    between atoms: C_13  and  C_15
REMARK    9  A    between atoms: N_17  and  S_27
REMARK   10  A    between atoms: C_18  and  C_20
REMARK   11  A    between atoms: C_20  and  N_26
REMARK   12  A    between atoms: C_22  and  C_24
REMARK   13  A    between atoms: S_27  and  C_30
REMARK   14  A    between atoms: O_33  and  C_34
REMARK   15  A    between atoms: C_37  and  O_45
REMARK   16  A    between atoms: O_45  and  C_46
REMARK   17  A    between atoms: C_48  and  O_50
REMARK   18  A    between atoms: O_50  and  C_51
REMARK   19  A    between atoms: C_51  and  C_52
REMARK   20  A    between atoms: C_51  and  C_53
REMARK   21  A    between atoms: C_51  and  C_54
REMARK                            x       y       z     vdW  Elec       q    Type
REMARK                         _______ _______ _______ _____ _____    ______ ____
ROOT
ATOM      1  C   UNL     1       7.493   1.272  25.488  0.00  0.00    +0.237 C 
ATOM      2  N   UNL     1       6.429   0.961  26.325  0.00  0.00    -0.285 N 
ATOM      3  C   UNL     1       5.057   1.505  26.259  0.00  0.00    +0.168 C 
ATOM      4  C   UNL     1       4.176   0.372  26.841  0.00  0.00    +0.078 C 
ATOM      5  C   UNL     1       5.088  -0.854  27.103  0.00  0.00    +0.195 C 
ATOM      6  C   UNL     1       6.480  -0.230  27.177  0.00  0.00    +0.153 C 
ATOM      7  O   UNL     1       8.538   0.611  25.521  0.00  0.00    -0.274 OA
ENDROOT
BRANCH   3   8
ATOM      8  C   UNL     1       4.791   2.885  27.024  0.00  0.00    +0.262 C 
ATOM      9  N   UNL     1       3.786   3.791  26.534  0.00  0.00    -0.107 N 
ATOM     10  C   UNL     1       3.484   5.023  27.215  0.00  0.00    +0.262 C 
ATOM     11  O   UNL     1       2.557   5.733  26.839  0.00  0.00    -0.272 OA
ATOM     12  O   UNL     1       5.428   3.105  28.055  0.00  0.00    -0.272 OA
BRANCH   9  13
ATOM     13  S   UNL     1       2.798   3.526  25.181  0.00  0.00    +0.057 S 
ATOM     14  O   UNL     1       1.991   4.711  24.967  0.00  0.00    -0.154 OA
ATOM     15  O   UNL     1       2.133   2.248  25.287  0.00  0.00    -0.154 OA
BRANCH  13  16
ATOM     16  C   UNL     1       3.928   3.372  23.749  0.00  0.00    +0.152 C 
ATOM     17  C   UNL     1       4.032   4.569  22.846  0.00  0.00    +0.030 C 
ATOM     18  C   UNL     1       3.185   3.397  22.431  0.00  0.00    +0.030 C 
ENDBRANCH  13  16
ENDBRANCH   9  13
BRANCH  10  19
ATOM     19  C   UNL     1       4.302   5.613  28.373  0.00  0.00    +0.103 C 
ATOM     20  C   UNL     1       3.890   5.399  29.819  0.00  0.00    +0.042 C 
ATOM     21  C   UNL     1       3.601   6.722  29.190  0.00  0.00    +0.042 C 
BRANCH  19  22
ATOM     22  N   UNL     1       5.675   6.003  27.977  0.00  0.00    -0.317 NA
ATOM     23  H   UNL     1       6.356   5.675  28.661  0.00  0.00    +0.119 HD
ATOM     24  H   UNL     1       5.766   7.019  27.935  0.00  0.00    +0.119 HD
ENDBRANCH  19  22
BRANCH  20  25
ATOM     25  C   UNL     1       2.750   4.533  30.143  0.00  0.00    -0.029 C 
ATOM     26  C   UNL     1       2.807   3.200  30.258  0.00  0.00    +0.004 C 
ENDBRANCH  20  25
ENDBRANCH  10  19
ENDBRANCH   3   8
BRANCH   1  27
ATOM     27  C   UNL     1       7.409   2.538  24.577  0.00  0.00    +0.168 C 
BRANCH  27  29
ATOM     28  C   UNL     1       9.162   1.966  22.813  0.00  0.00    +0.013 C 
ATOM     29  C   UNL     1       7.679   2.302  23.045  0.00  0.00    -0.011 C 
ATOM     30  C   UNL     1       6.864   1.091  22.519  0.00  0.00    +0.013 C 
ATOM     31  C   UNL     1       7.290   3.512  22.172  0.00  0.00    +0.013 C 
ENDBRANCH  27  29
BRANCH  27  32
ATOM     32  N   UNL     1       8.359   3.484  25.157  0.00  0.00    -0.269 N 
ATOM     33  H   UNL     1       9.334   3.213  25.249  0.00  0.00    +0.153 HD
ATOM     34  C   UNL     1       8.010   4.738  25.516  0.00  0.00    +0.401 C 
ATOM     35  O   UNL     1       6.865   5.162  25.461  0.00  0.00    -0.226 OA
BRANCH  34  36
ATOM     36  O   UNL     1       9.091   5.447  25.905  0.00  0.00    -0.445 OA
BRANCH  36  37
ATOM     37  C   UNL     1       9.849   6.197  24.916  0.00  0.00    +0.107 C 
ATOM     38  C   UNL     1      10.684   5.268  24.023  0.00  0.00    +0.055 C 
ATOM     39  C   UNL     1      10.816   7.085  25.713  0.00  0.00    +0.055 C 
ATOM     40  C   UNL     1       8.928   7.104  24.092  0.00  0.00    +0.055 C 
ENDBRANCH  36  37
ENDBRANCH  34  36
ENDBRANCH  27  32
ENDBRANCH   1  27
BRANCH   5  41
ATOM     41  O   UNL     1       4.955  -1.747  25.987  0.00  0.00    -0.471 OA
BRANCH  41  42
ATOM     42  C   UNL     1       4.124  -2.863  26.094  0.00  0.00    +0.223 A 
ATOM     43  C   UNL     1       4.505  -3.981  25.320  0.00  0.00    +0.049 A 
ATOM     44  C   UNL     1       5.574  -3.945  24.400  0.00  0.00    +0.034 A 
ATOM     45  C   UNL     1       5.914  -5.065  23.643  0.00  0.00    +0.042 A 
ATOM     46 CL   UNL     1       7.194  -4.965  22.500  0.00  0.00    -0.084 Cl
ATOM     47  C   UNL     1       5.217  -6.254  23.797  0.00  0.00    +0.021 A 
ATOM     48  C   UNL     1       4.158  -6.313  24.702  0.00  0.00    +0.014 A 
ATOM     49  C   UNL     1       3.770  -5.184  25.463  0.00  0.00    +0.030 A 
ATOM     50  C   UNL     1       2.679  -5.215  26.354  0.00  0.00    +0.146 A 
ATOM     51  C   UNL     1       2.365  -4.035  27.027  0.00  0.00    +0.160 A 
ATOM     52  N   UNL     1       3.061  -2.858  26.930  0.00  0.00    -0.217 NA
BRANCH  50  53
ATOM     53  O   UNL     1       2.034  -6.421  26.458  0.00  0.00    -0.493 OA
ATOM     54  C   UNL     1       2.011  -7.105  27.700  0.00  0.00    +0.277 C 
ENDBRANCH  50  53
ENDBRANCH  41  42
ENDBRANCH   5  41
TORSDOF 14
ENDMDL
MODEL 5
REMARK VINA RESULT:      -5.1      1.901      2.387
REMARK  Name = 
REMARK  21 active torsions:
REMARK  status: ('A' for Active; 'I' for Inactive)
REMARK    1  A    between atoms: C_1  and  C_2
REMARK    2  A    between atoms: C_2  and  C_3
REMARK    3  A    between atoms: C_2  and  C_4
REMARK    4  A    between atoms: C_2  and  C_5
REMARK    5  A    between atoms: C_5  and  C_7
REMARK    6  A    between atoms: C_5  and  N_47
REMARK    7  A    between atoms: C_11  and  O_33
REMARK    8  A    between atoms: C_13  and  C_15
REMARK    9  A    between atoms: N_17  and  S_27
REMARK   10  A    between atoms: C_18  and  C_20
REMARK   11  A    between atoms: C_20  and  N_26
REMARK   12  A    between atoms: C_22  and  C_24
REMARK   13  A    between atoms: S_27  and  C_30
REMARK   14  A    between atoms: O_33  and  C_34
REMARK   15  A    between atoms: C_37  and  O_45
REMARK   16  A    between atoms: O_45  and  C_46
REMARK   17  A    between atoms: C_48  and  O_50
REMARK   18  A    between atoms: O_50  and  C_51
REMARK   19  A    between atoms: C_51  and  C_52
REMARK   20  A    between atoms: C_51  and  C_53
REMARK   21  A    between atoms: C_51  and  C_54
REMARK                            x       y       z     vdW  Elec       q    Type
REMARK                         _______ _______ _______ _____ _____    ______ ____
ROOT
ATOM      1  C   UNL     1       7.775   0.865  25.452  0.00  0.00    +0.237 C 
ATOM      2  N   UNL     1       6.739   0.787  26.375  0.00  0.00    -0.285 N 
ATOM      3  C   UNL     1       5.422   1.453  26.291  0.00  0.00    +0.168 C 
ATOM      4  C   UNL     1       4.476   0.511  27.075  0.00  0.00    +0.078 C 
ATOM      5  C   UNL     1       5.284  -0.751  27.476  0.00  0.00    +0.195 C 
ATOM      6  C   UNL     1       6.730  -0.266  27.393  0.00  0.00    +0.153 C 
ATOM      7  O   UNL     1       8.754   0.114  25.537  0.00  0.00    -0.274 OA
ENDROOT
BRANCH   3   8
ATOM      8  C   UNL     1       5.333   2.948  26.851  0.00  0.00    +0.262 C 
ATOM      9  N   UNL     1       4.420   3.884  26.247  0.00  0.00    -0.107 N 
ATOM     10  C   UNL     1       4.277   5.226  26.748  0.00  0.00    +0.262 C 
ATOM     11  O   UNL     1       3.423   5.976  26.284  0.00  0.00    -0.272 OA
ATOM     12  O   UNL     1       6.019   3.238  27.832  0.00  0.00    -0.272 OA
BRANCH   9  13
ATOM     13  S   UNL     1       3.372   3.543  24.959  0.00  0.00    +0.057 S 
ATOM     14  O   UNL     1       2.011   3.589  25.456  0.00  0.00    -0.154 OA
ATOM     15  O   UNL     1       3.809   2.360  24.256  0.00  0.00    -0.154 OA
BRANCH  13  16
ATOM     16  C   UNL     1       3.564   4.920  23.769  0.00  0.00    +0.152 C 
ATOM     17  C   UNL     1       2.306   5.424  23.119  0.00  0.00    +0.030 C 
ATOM     18  C   UNL     1       3.220   4.504  22.355  0.00  0.00    +0.030 C 
ENDBRANCH  13  16
ENDBRANCH   9  13
BRANCH  10  19
ATOM     19  C   UNL     1       5.187   5.878  27.798  0.00  0.00    +0.103 C 
ATOM     20  C   UNL     1       4.840   5.838  29.277  0.00  0.00    +0.042 C 
ATOM     21  C   UNL     1       4.596   7.106  28.527  0.00  0.00    +0.042 C 
BRANCH  19  22
ATOM     22  N   UNL     1       6.558   6.139  27.300  0.00  0.00    -0.317 NA
ATOM     23  H   UNL     1       6.533   6.553  26.370  0.00  0.00    +0.119 HD
ATOM     24  H   UNL     1       7.087   5.270  27.221  0.00  0.00    +0.119 HD
ENDBRANCH  19  22
BRANCH  20  25
ATOM     25  C   UNL     1       3.671   5.083  29.741  0.00  0.00    -0.029 C 
ATOM     26  C   UNL     1       2.535   5.629  30.193  0.00  0.00    +0.004 C 
ENDBRANCH  20  25
ENDBRANCH  10  19
ENDBRANCH   3   8
BRANCH   1  27
ATOM     27  C   UNL     1       7.756   1.988  24.367  0.00  0.00    +0.168 C 
BRANCH  27  29
ATOM     28  C   UNL     1       7.568   2.419  21.859  0.00  0.00    +0.013 C 
ATOM     29  C   UNL     1       8.267   1.573  22.939  0.00  0.00    -0.011 C 
ATOM     30  C   UNL     1       9.788   1.844  22.794  0.00  0.00    +0.013 C 
ATOM     31  C   UNL     1       8.051   0.078  22.631  0.00  0.00    +0.013 C 
ENDBRANCH  27  29
BRANCH  27  32
ATOM     32  N   UNL     1       8.548   3.075  24.934  0.00  0.00    -0.269 N 
ATOM     33  H   UNL     1       9.462   2.869  25.327  0.00  0.00    +0.153 HD
ATOM     34  C   UNL     1       8.147   4.365  24.897  0.00  0.00    +0.401 C 
ATOM     35  O   UNL     1       7.063   4.722  24.461  0.00  0.00    -0.226 OA
BRANCH  34  36
ATOM     36  O   UNL     1       9.110   5.184  25.372  0.00  0.00    -0.445 OA
BRANCH  36  37
ATOM     37  C   UNL     1       9.838   6.042  24.450  0.00  0.00    +0.107 C 
ATOM     38  C   UNL     1      10.914   5.260  23.682  0.00  0.00    +0.055 C 
ATOM     39  C   UNL     1      10.545   7.090  25.323  0.00  0.00    +0.055 C 
ATOM     40  C   UNL     1       8.877   6.770  23.504  0.00  0.00    +0.055 C 
ENDBRANCH  36  37
ENDBRANCH  34  36
ENDBRANCH  27  32
ENDBRANCH   1  27
BRANCH   5  41
ATOM     41  O   UNL     1       5.002  -1.778  26.514  0.00  0.00    -0.471 OA
BRANCH  41  42
ATOM     42  C   UNL     1       6.009  -2.670  26.145  0.00  0.00    +0.223 A 
ATOM     43  C   UNL     1       5.642  -3.640  25.187  0.00  0.00    +0.049 A 
ATOM     44  C   UNL     1       4.318  -3.791  24.721  0.00  0.00    +0.034 A 
ATOM     45  C   UNL     1       3.989  -4.768  23.784  0.00  0.00    +0.042 A 
ATOM     46 CL   UNL     1       2.356  -4.948  23.278  0.00  0.00    -0.084 Cl
ATOM     47  C   UNL     1       4.968  -5.604  23.267  0.00  0.00    +0.021 A 
ATOM     48  C   UNL     1       6.284  -5.471  23.712  0.00  0.00    +0.014 A 
ATOM     49  C   UNL     1       6.643  -4.508  24.685  0.00  0.00    +0.030 A 
ATOM     50  C   UNL     1       7.960  -4.385  25.173  0.00  0.00    +0.146 A 
ATOM     51  C   UNL     1       8.194  -3.425  26.156  0.00  0.00    +0.160 A 
ATOM     52  N   UNL     1       7.257  -2.555  26.653  0.00  0.00    -0.217 NA
BRANCH  50  53
ATOM     53  O   UNL     1       8.877  -5.242  24.621  0.00  0.00    -0.493 OA
ATOM     54  C   UNL     1      10.097  -5.502  25.297  0.00  0.00    +0.277 C 
ENDBRANCH  50  53
ENDBRANCH  41  42
ENDBRANCH   5  41
TORSDOF 14
ENDMDL
MODEL 6
REMARK VINA RESULT:      -5.0      2.818      9.110
REMARK  Name = 
REMARK  21 active torsions:
REMARK  status: ('A' for Active; 'I' for Inactive)
REMARK    1  A    between atoms: C_1  and  C_2
REMARK    2  A    between atoms: C_2  and  C_3
REMARK    3  A    between atoms: C_2  and  C_4
REMARK    4  A    between atoms: C_2  and  C_5
REMARK    5  A    between atoms: C_5  and  C_7
REMARK    6  A    between atoms: C_5  and  N_47
REMARK    7  A    between atoms: C_11  and  O_33
REMARK    8  A    between atoms: C_13  and  C_15
REMARK    9  A    between atoms: N_17  and  S_27
REMARK   10  A    between atoms: C_18  and  C_20
REMARK   11  A    between atoms: C_20  and  N_26
REMARK   12  A    between atoms: C_22  and  C_24
REMARK   13  A    between atoms: S_27  and  C_30
REMARK   14  A    between atoms: O_33  and  C_34
REMARK   15  A    between atoms: C_37  and  O_45
REMARK   16  A    between atoms: O_45  and  C_46
REMARK   17  A    between atoms: C_48  and  O_50
REMARK   18  A    between atoms: O_50  and  C_51
REMARK   19  A    between atoms: C_51  and  C_52
REMARK   20  A    between atoms: C_51  and  C_53
REMARK   21  A    between atoms: C_51  and  C_54
REMARK                            x       y       z     vdW  Elec       q    Type
REMARK                         _______ _______ _______ _____ _____    ______ ____
ROOT
ATOM      1  C   UNL     1       6.491  -1.470  24.461  0.00  0.00    +0.237 C 
ATOM      2  N   UNL     1       5.526  -0.901  25.283  0.00  0.00    -0.285 N 
ATOM      3  C   UNL     1       4.995  -1.456  26.545  0.00  0.00    +0.168 C 
ATOM      4  C   UNL     1       4.585  -0.204  27.361  0.00  0.00    +0.078 C 
ATOM      5  C   UNL     1       5.028   1.050  26.564  0.00  0.00    +0.195 C 
ATOM      6  C   UNL     1       5.171   0.513  25.141  0.00  0.00    +0.153 C 
ATOM      7  O   UNL     1       6.992  -0.824  23.533  0.00  0.00    -0.274 OA
ENDROOT
BRANCH   3   8
ATOM      8  C   UNL     1       3.775  -2.483  26.425  0.00  0.00    +0.262 C 
ATOM      9  N   UNL     1       3.671  -3.580  27.351  0.00  0.00    -0.107 N 
ATOM     10  C   UNL     1       2.567  -4.503  27.306  0.00  0.00    +0.262 C 
ATOM     11  O   UNL     1       2.444  -5.371  28.165  0.00  0.00    -0.272 OA
ATOM     12  O   UNL     1       2.921  -2.267  25.564  0.00  0.00    -0.272 OA
BRANCH   9  13
ATOM     13  S   UNL     1       4.746  -3.897  28.625  0.00  0.00    +0.057 S 
ATOM     14  O   UNL     1       4.220  -3.281  29.827  0.00  0.00    -0.154 OA
ATOM     15  O   UNL     1       6.100  -3.590  28.227  0.00  0.00    -0.154 OA
BRANCH  13  16
ATOM     16  C   UNL     1       4.709  -5.709  28.881  0.00  0.00    +0.152 C 
ATOM     17  C   UNL     1       5.987  -6.345  29.353  0.00  0.00    +0.030 C 
ATOM     18  C   UNL     1       5.601  -6.442  27.902  0.00  0.00    +0.030 C 
ENDBRANCH  13  16
ENDBRANCH   9  13
BRANCH  10  19
ATOM     19  C   UNL     1       1.520  -4.572  26.185  0.00  0.00    +0.103 C 
ATOM     20  C   UNL     1       1.279  -5.855  25.409  0.00  0.00    +0.042 C 
ATOM     21  C   UNL     1       2.080  -4.776  24.759  0.00  0.00    +0.042 C 
BRANCH  19  22
ATOM     22  N   UNL     1       0.535  -3.467  26.238  0.00  0.00    -0.317 NA
ATOM     23  H   UNL     1      -0.127  -3.534  25.467  0.00  0.00    +0.119 HD
ATOM     24  H   UNL     1       0.999  -2.562  26.151  0.00  0.00    +0.119 HD
ENDBRANCH  19  22
BRANCH  20  25
ATOM     25  C   UNL     1       1.976  -7.090  25.787  0.00  0.00    -0.029 C 
ATOM     26  C   UNL     1       3.108  -7.534  25.226  0.00  0.00    +0.004 C 
ENDBRANCH  20  25
ENDBRANCH  10  19
ENDBRANCH   3   8
BRANCH   1  27
ATOM     27  C   UNL     1       6.863  -2.976  24.641  0.00  0.00    +0.168 C 
BRANCH  27  29
ATOM     28  C   UNL     1       9.373  -3.259  24.279  0.00  0.00    +0.013 C 
ATOM     29  C   UNL     1       8.248  -3.266  25.329  0.00  0.00    -0.011 C 
ATOM     30  C   UNL     1       8.598  -2.158  26.357  0.00  0.00    +0.013 C 
ATOM     31  C   UNL     1       8.273  -4.605  26.092  0.00  0.00    +0.013 C 
ENDBRANCH  27  29
BRANCH  27  32
ATOM     32  N   UNL     1       6.793  -3.545  23.298  0.00  0.00    -0.269 N 
ATOM     33  H   UNL     1       7.649  -3.858  22.847  0.00  0.00    +0.153 HD
ATOM     34  C   UNL     1       5.625  -3.741  22.649  0.00  0.00    +0.401 C 
ATOM     35  O   UNL     1       4.541  -3.391  23.092  0.00  0.00    -0.226 OA
BRANCH  34  36
ATOM     36  O   UNL     1       5.823  -4.393  21.483  0.00  0.00    -0.445 OA
BRANCH  36  37
ATOM     37  C   UNL     1       6.164  -5.806  21.503  0.00  0.00    +0.107 C 
ATOM     38  C   UNL     1       7.590  -6.035  22.025  0.00  0.00    +0.055 C 
ATOM     39  C   UNL     1       6.113  -6.271  20.040  0.00  0.00    +0.055 C 
ATOM     40  C   UNL     1       5.129  -6.609  22.300  0.00  0.00    +0.055 C 
ENDBRANCH  36  37
ENDBRANCH  34  36
ENDBRANCH  27  32
ENDBRANCH   1  27
BRANCH   5  41
ATOM     41  O   UNL     1       6.282   1.493  27.103  0.00  0.00    -0.471 OA
BRANCH  41  42
ATOM     42  C   UNL     1       6.771   2.754  26.761  0.00  0.00    +0.223 A 
ATOM     43  C   UNL     1       7.824   2.763  25.820  0.00  0.00    +0.049 A 
ATOM     44  C   UNL     1       8.437   1.582  25.347  0.00  0.00    +0.034 A 
ATOM     45  C   UNL     1       9.483   1.630  24.428  0.00  0.00    +0.042 A 
ATOM     46 CL   UNL     1      10.232   0.170  23.914  0.00  0.00    -0.084 Cl
ATOM     47  C   UNL     1       9.932   2.846  23.937  0.00  0.00    +0.021 A 
ATOM     48  C   UNL     1       9.340   4.026  24.388  0.00  0.00    +0.014 A 
ATOM     49  C   UNL     1       8.295   4.011  25.344  0.00  0.00    +0.030 A 
ATOM     50  C   UNL     1       7.712   5.195  25.839  0.00  0.00    +0.146 A 
ATOM     51  C   UNL     1       6.714   5.064  26.804  0.00  0.00    +0.160 A 
ATOM     52  N   UNL     1       6.218   3.875  27.276  0.00  0.00    -0.217 NA
BRANCH  50  53
ATOM     53  O   UNL     1       8.203   6.362  25.312  0.00  0.00    -0.493 OA
ATOM     54  C   UNL     1       7.417   7.108  24.396  0.00  0.00    +0.277 C 
ENDBRANCH  50  53
ENDBRANCH  41  42
ENDBRANCH   5  41
TORSDOF 14
ENDMDL
MODEL 7
REMARK VINA RESULT:      -4.9      3.071      9.545
REMARK  Name = 
REMARK  21 active torsions:
REMARK  status: ('A' for Active; 'I' for Inactive)
REMARK    1  A    between atoms: C_1  and  C_2
REMARK    2  A    between atoms: C_2  and  C_3
REMARK    3  A    between atoms: C_2  and  C_4
REMARK    4  A    between atoms: C_2  and  C_5
REMARK    5  A    between atoms: C_5  and  C_7
REMARK    6  A    between atoms: C_5  and  N_47
REMARK    7  A    between atoms: C_11  and  O_33
REMARK    8  A    between atoms: C_13  and  C_15
REMARK    9  A    between atoms: N_17  and  S_27
REMARK   10  A    between atoms: C_18  and  C_20
REMARK   11  A    between atoms: C_20  and  N_26
REMARK   12  A    between atoms: C_22  and  C_24
REMARK   13  A    between atoms: S_27  and  C_30
REMARK   14  A    between atoms: O_33  and  C_34
REMARK   15  A    between atoms: C_37  and  O_45
REMARK   16  A    between atoms: O_45  and  C_46
REMARK   17  A    between atoms: C_48  and  O_50
REMARK   18  A    between atoms: O_50  and  C_51
REMARK   19  A    between atoms: C_51  and  C_52
REMARK   20  A    between atoms: C_51  and  C_53
REMARK   21  A    between atoms: C_51  and  C_54
REMARK                            x       y       z     vdW  Elec       q    Type
REMARK                         _______ _______ _______ _____ _____    ______ ____
ROOT
ATOM      1  C   UNL     1       5.531  -2.610  23.775  0.00  0.00    +0.237 C 
ATOM      2  N   UNL     1       5.334  -2.050  25.031  0.00  0.00    -0.285 N 
ATOM      3  C   UNL     1       5.507  -2.716  26.338  0.00  0.00    +0.168 C 
ATOM      4  C   UNL     1       5.888  -1.563  27.299  0.00  0.00    +0.078 C 
ATOM      5  C   UNL     1       6.047  -0.272  26.455  0.00  0.00    +0.195 C 
ATOM      6  C   UNL     1       5.254  -0.595  25.190  0.00  0.00    +0.153 C 
ATOM      7  O   UNL     1       5.541  -1.901  22.761  0.00  0.00    -0.274 OA
ENDROOT
BRANCH   3   8
ATOM      8  C   UNL     1       4.254  -3.537  26.900  0.00  0.00    +0.262 C 
ATOM      9  N   UNL     1       4.460  -4.823  27.513  0.00  0.00    -0.107 N 
ATOM     10  C   UNL     1       3.367  -5.576  28.070  0.00  0.00    +0.262 C 
ATOM     11  O   UNL     1       3.576  -6.624  28.676  0.00  0.00    -0.272 OA
ATOM     12  O   UNL     1       3.143  -3.009  26.838  0.00  0.00    -0.272 OA
BRANCH   9  13
ATOM     13  S   UNL     1       5.962  -5.582  27.726  0.00  0.00    +0.057 S 
ATOM     14  O   UNL     1       5.800  -6.997  27.457  0.00  0.00    -0.154 OA
ATOM     15  O   UNL     1       6.552  -5.183  28.982  0.00  0.00    -0.154 OA
BRANCH  13  16
ATOM     16  C   UNL     1       7.062  -4.904  26.430  0.00  0.00    +0.152 C 
ATOM     17  C   UNL     1       8.376  -5.607  26.231  0.00  0.00    +0.030 C 
ATOM     18  C   UNL     1       8.333  -4.320  27.009  0.00  0.00    +0.030 C 
ENDBRANCH  13  16
ENDBRANCH   9  13
BRANCH  10  19
ATOM     19  C   UNL     1       1.881  -5.231  27.900  0.00  0.00    +0.103 C 
ATOM     20  C   UNL     1       0.876  -6.275  27.444  0.00  0.00    +0.042 C 
ATOM     21  C   UNL     1       1.348  -5.265  26.450  0.00  0.00    +0.042 C 
BRANCH  19  22
ATOM     22  N   UNL     1       1.487  -3.988  28.605  0.00  0.00    -0.317 NA
ATOM     23  H   UNL     1       2.129  -3.786  29.369  0.00  0.00    +0.119 HD
ATOM     24  H   UNL     1       0.558  -4.085  29.017  0.00  0.00    +0.119 HD
ENDBRANCH  19  22
BRANCH  20  25
ATOM     25  C   UNL     1       1.293  -7.669  27.252  0.00  0.00    -0.029 C 
ATOM     26  C   UNL     1       0.577  -8.740  27.613  0.00  0.00    +0.004 C 
ENDBRANCH  20  25
ENDBRANCH  10  19
ENDBRANCH   3   8
BRANCH   1  27
ATOM     27  C   UNL     1       5.629  -4.162  23.632  0.00  0.00    +0.168 C 
BRANCH  27  29
ATOM     28  C   UNL     1       7.037  -6.209  23.053  0.00  0.00    +0.013 C 
ATOM     29  C   UNL     1       6.854  -4.701  22.806  0.00  0.00    -0.011 C 
ATOM     30  C   UNL     1       6.614  -4.531  21.282  0.00  0.00    +0.013 C 
ATOM     31  C   UNL     1       8.171  -3.970  23.132  0.00  0.00    +0.013 C 
ENDBRANCH  27  29
BRANCH  27  32
ATOM     32  N   UNL     1       4.355  -4.567  23.044  0.00  0.00    -0.269 N 
ATOM     33  H   UNL     1       4.012  -4.080  22.220  0.00  0.00    +0.153 HD
ATOM     34  C   UNL     1       3.640  -5.616  23.506  0.00  0.00    +0.401 C 
ATOM     35  O   UNL     1       3.953  -6.262  24.495  0.00  0.00    -0.226 OA
BRANCH  34  36
ATOM     36  O   UNL     1       2.573  -5.859  22.716  0.00  0.00    -0.445 OA
BRANCH  36  37
ATOM     37  C   UNL     1       1.680  -6.960  23.038  0.00  0.00    +0.107 C 
ATOM     38  C   UNL     1       0.444  -6.477  23.810  0.00  0.00    +0.055 C 
ATOM     39  C   UNL     1       2.480  -7.893  23.960  0.00  0.00    +0.055 C 
ATOM     40  C   UNL     1       1.296  -7.742  21.777  0.00  0.00    +0.055 C 
ENDBRANCH  36  37
ENDBRANCH  34  36
ENDBRANCH  27  32
ENDBRANCH   1  27
BRANCH   5  41
ATOM     41  O   UNL     1       7.445  -0.093  26.184  0.00  0.00    -0.471 OA
BRANCH  41  42
ATOM     42  C   UNL     1       7.894   1.118  25.657  0.00  0.00    +0.223 A 
ATOM     43  C   UNL     1       8.643   1.023  24.465  0.00  0.00    +0.049 A 
ATOM     44  C   UNL     1       9.030  -0.213  23.902  0.00  0.00    +0.034 A 
ATOM     45  C   UNL     1       9.780  -0.269  22.729  0.00  0.00    +0.042 A 
ATOM     46 CL   UNL     1      10.269  -1.795  22.103  0.00  0.00    -0.084 Cl
ATOM     47  C   UNL     1      10.146   0.896  22.073  0.00  0.00    +0.021 A 
ATOM     48  C   UNL     1       9.775   2.129  22.610  0.00  0.00    +0.014 A 
ATOM     49  C   UNL     1       9.037   2.219  23.815  0.00  0.00    +0.030 A 
ATOM     50  C   UNL     1       8.685   3.456  24.391  0.00  0.00    +0.146 A 
ATOM     51  C   UNL     1       7.988   3.427  25.598  0.00  0.00    +0.160 A 
ATOM     52  N   UNL     1       7.573   2.292  26.248  0.00  0.00    -0.217 NA
BRANCH  50  53
ATOM     53  O   UNL     1       9.079   4.568  23.692  0.00  0.00    -0.493 OA
ATOM     54  C   UNL     1       8.249   5.718  23.667  0.00  0.00    +0.277 C 
ENDBRANCH  50  53
ENDBRANCH  41  42
ENDBRANCH   5  41
TORSDOF 14
ENDMDL
MODEL 8
REMARK VINA RESULT:      -4.7      3.500      9.763
REMARK  Name = 
REMARK  21 active torsions:
REMARK  status: ('A' for Active; 'I' for Inactive)
REMARK    1  A    between atoms: C_1  and  C_2
REMARK    2  A    between atoms: C_2  and  C_3
REMARK    3  A    between atoms: C_2  and  C_4
REMARK    4  A    between atoms: C_2  and  C_5
REMARK    5  A    between atoms: C_5  and  C_7
REMARK    6  A    between atoms: C_5  and  N_47
REMARK    7  A    between atoms: C_11  and  O_33
REMARK    8  A    between atoms: C_13  and  C_15
REMARK    9  A    between atoms: N_17  and  S_27
REMARK   10  A    between atoms: C_18  and  C_20
REMARK   11  A    between atoms: C_20  and  N_26
REMARK   12  A    between atoms: C_22  and  C_24
REMARK   13  A    between atoms: S_27  and  C_30
REMARK   14  A    between atoms: O_33  and  C_34
REMARK   15  A    between atoms: C_37  and  O_45
REMARK   16  A    between atoms: O_45  and  C_46
REMARK   17  A    between atoms: C_48  and  O_50
REMARK   18  A    between atoms: O_50  and  C_51
REMARK   19  A    between atoms: C_51  and  C_52
REMARK   20  A    between atoms: C_51  and  C_53
REMARK   21  A    between atoms: C_51  and  C_54
REMARK                            x       y       z     vdW  Elec       q    Type
REMARK                         _______ _______ _______ _____ _____    ______ ____
ROOT
ATOM      1  C   UNL     1       4.098  -0.747  27.570  0.00  0.00    +0.237 C 
ATOM      2  N   UNL     1       5.046  -0.385  26.621  0.00  0.00    -0.285 N 
ATOM      3  C   UNL     1       5.349  -1.085  25.355  0.00  0.00    +0.168 C 
ATOM      4  C   UNL     1       5.856   0.038  24.418  0.00  0.00    +0.078 C 
ATOM      5  C   UNL     1       5.697   1.389  25.162  0.00  0.00    +0.195 C 
ATOM      6  C   UNL     1       5.626   0.961  26.627  0.00  0.00    +0.153 C 
ATOM      7  O   UNL     1       3.804   0.022  28.494  0.00  0.00    -0.274 OA
ENDROOT
BRANCH   3   8
ATOM      8  C   UNL     1       6.403  -2.286  25.431  0.00  0.00    +0.262 C 
ATOM      9  N   UNL     1       6.187  -3.476  24.650  0.00  0.00    -0.107 N 
ATOM     10  C   UNL     1       7.132  -4.563  24.655  0.00  0.00    +0.262 C 
ATOM     11  O   UNL     1       6.979  -5.525  23.908  0.00  0.00    -0.272 OA
ATOM     12  O   UNL     1       7.410  -2.127  26.123  0.00  0.00    -0.272 OA
BRANCH   9  13
ATOM     13  S   UNL     1       4.882  -3.740  23.600  0.00  0.00    +0.057 S 
ATOM     14  O   UNL     1       5.269  -3.297  22.274  0.00  0.00    -0.154 OA
ATOM     15  O   UNL     1       3.663  -3.218  24.172  0.00  0.00    -0.154 OA
BRANCH  13  16
ATOM     16  C   UNL     1       4.650  -5.553  23.522  0.00  0.00    +0.152 C 
ATOM     17  C   UNL     1       3.332  -6.038  22.986  0.00  0.00    +0.030 C 
ATOM     18  C   UNL     1       3.573  -6.032  24.471  0.00  0.00    +0.030 C 
ENDBRANCH  13  16
ENDBRANCH   9  13
BRANCH  10  19
ATOM     19  C   UNL     1       8.326  -4.689  25.611  0.00  0.00    +0.103 C 
ATOM     20  C   UNL     1       9.678  -4.085  25.268  0.00  0.00    +0.042 C 
ATOM     21  C   UNL     1       9.499  -5.559  25.105  0.00  0.00    +0.042 C 
BRANCH  19  22
ATOM     22  N   UNL     1       7.931  -5.044  26.994  0.00  0.00    -0.317 NA
ATOM     23  H   UNL     1       8.236  -4.328  27.653  0.00  0.00    +0.119 HD
ATOM     24  H   UNL     1       8.372  -5.918  27.284  0.00  0.00    +0.119 HD
ENDBRANCH  19  22
BRANCH  20  25
ATOM     25  C   UNL     1       9.841  -3.279  24.053  0.00  0.00    -0.029 C 
ATOM     26  C   UNL     1       9.873  -1.941  24.019  0.00  0.00    +0.004 C 
ENDBRANCH  20  25
ENDBRANCH  10  19
ENDBRANCH   3   8
BRANCH   1  27
ATOM     27  C   UNL     1       3.483  -2.181  27.534  0.00  0.00    +0.168 C 
BRANCH  27  29
ATOM     28  C   UNL     1       1.749  -2.020  29.398  0.00  0.00    +0.013 C 
ATOM     29  C   UNL     1       1.956  -2.285  27.897  0.00  0.00    -0.011 C 
ATOM     30  C   UNL     1       1.133  -1.209  27.141  0.00  0.00    +0.013 C 
ATOM     31  C   UNL     1       1.342  -3.651  27.533  0.00  0.00    +0.013 C 
ENDBRANCH  27  29
BRANCH  27  32
ATOM     32  N   UNL     1       4.312  -2.970  28.441  0.00  0.00    -0.269 N 
ATOM     33  H   UNL     1       4.479  -2.628  29.384  0.00  0.00    +0.153 HD
ATOM     34  C   UNL     1       4.814  -4.179  28.105  0.00  0.00    +0.401 C 
ATOM     35  O   UNL     1       4.686  -4.677  26.996  0.00  0.00    -0.226 OA
BRANCH  34  36
ATOM     36  O   UNL     1       5.435  -4.753  29.157  0.00  0.00    -0.445 OA
BRANCH  36  37
ATOM     37  C   UNL     1       5.006  -6.066  29.611  0.00  0.00    +0.107 C 
ATOM     38  C   UNL     1       3.746  -5.975  30.484  0.00  0.00    +0.055 C 
ATOM     39  C   UNL     1       6.150  -6.603  30.485  0.00  0.00    +0.055 C 
ATOM     40  C   UNL     1       4.813  -7.021  28.428  0.00  0.00    +0.055 C 
ENDBRANCH  36  37
ENDBRANCH  34  36
ENDBRANCH  27  32
ENDBRANCH   1  27
BRANCH   5  41
ATOM     41  O   UNL     1       4.475   1.996  24.717  0.00  0.00    -0.471 OA
BRANCH  41  42
ATOM     42  C   UNL     1       4.028   3.168  25.325  0.00  0.00    +0.223 A 
ATOM     43  C   UNL     1       4.492   4.369  24.747  0.00  0.00    +0.049 A 
ATOM     44  C   UNL     1       5.447   4.398  23.707  0.00  0.00    +0.034 A 
ATOM     45  C   UNL     1       5.892   5.604  23.170  0.00  0.00    +0.042 A 
ATOM     46 CL   UNL     1       7.090   5.595  21.935  0.00  0.00    -0.084 Cl
ATOM     47  C   UNL     1       5.386   6.809  23.632  0.00  0.00    +0.021 A 
ATOM     48  C   UNL     1       4.441   6.805  24.658  0.00  0.00    +0.014 A 
ATOM     49  C   UNL     1       3.991   5.598  25.245  0.00  0.00    +0.030 A 
ATOM     50  C   UNL     1       3.065   5.577  26.308  0.00  0.00    +0.146 A 
ATOM     51  C   UNL     1       2.718   4.333  26.832  0.00  0.00    +0.160 A 
ATOM     52  N   UNL     1       3.166   3.123  26.367  0.00  0.00    -0.217 NA
BRANCH  50  53
ATOM     53  O   UNL     1       2.607   6.803  26.717  0.00  0.00    -0.493 OA
ATOM     54  C   UNL     1       2.412   7.058  28.098  0.00  0.00    +0.277 C 
ENDBRANCH  50  53
ENDBRANCH  41  42
ENDBRANCH   5  41
TORSDOF 14
ENDMDL
MODEL 9
REMARK VINA RESULT:      -4.5      3.068      8.896
REMARK  Name = 
REMARK  21 active torsions:
REMARK  status: ('A' for Active; 'I' for Inactive)
REMARK    1  A    between atoms: C_1  and  C_2
REMARK    2  A    between atoms: C_2  and  C_3
REMARK    3  A    between atoms: C_2  and  C_4
REMARK    4  A    between atoms: C_2  and  C_5
REMARK    5  A    between atoms: C_5  and  C_7
REMARK    6  A    between atoms: C_5  and  N_47
REMARK    7  A    between atoms: C_11  and  O_33
REMARK    8  A    between atoms: C_13  and  C_15
REMARK    9  A    between atoms: N_17  and  S_27
REMARK   10  A    between atoms: C_18  and  C_20
REMARK   11  A    between atoms: C_20  and  N_26
REMARK   12  A    between atoms: C_22  and  C_24
REMARK   13  A    between atoms: S_27  and  C_30
REMARK   14  A    between atoms: O_33  and  C_34
REMARK   15  A    between atoms: C_37  and  O_45
REMARK   16  A    between atoms: O_45  and  C_46
REMARK   17  A    between atoms: C_48  and  O_50
REMARK   18  A    between atoms: O_50  and  C_51
REMARK   19  A    between atoms: C_51  and  C_52
REMARK   20  A    between atoms: C_51  and  C_53
REMARK   21  A    between atoms: C_51  and  C_54
REMARK                            x       y       z     vdW  Elec       q    Type
REMARK                         _______ _______ _______ _____ _____    ______ ____
ROOT
ATOM      1  C   UNL     1       4.872  -0.060  28.751  0.00  0.00    +0.237 C 
ATOM      2  N   UNL     1       5.938   0.720  28.317  0.00  0.00    -0.285 N 
ATOM      3  C   UNL     1       6.157   1.244  26.953  0.00  0.00    +0.168 C 
ATOM      4  C   UNL     1       6.965   2.546  27.178  0.00  0.00    +0.078 C 
ATOM      5  C   UNL     1       7.066   2.787  28.707  0.00  0.00    +0.195 C 
ATOM      6  C   UNL     1       6.804   1.397  29.285  0.00  0.00    +0.153 C 
ATOM      7  O   UNL     1       4.699  -0.277  29.957  0.00  0.00    -0.274 OA
ENDROOT
BRANCH   3   8
ATOM      8  C   UNL     1       6.906   0.278  25.921  0.00  0.00    +0.262 C 
ATOM      9  N   UNL     1       6.822   0.541  24.508  0.00  0.00    -0.107 N 
ATOM     10  C   UNL     1       7.516  -0.277  23.548  0.00  0.00    +0.262 C 
ATOM     11  O   UNL     1       7.513   0.021  22.357  0.00  0.00    -0.272 OA
ATOM     12  O   UNL     1       7.586  -0.640  26.380  0.00  0.00    -0.272 OA
BRANCH   9  13
ATOM     13  S   UNL     1       5.991   1.835  23.796  0.00  0.00    +0.057 S 
ATOM     14  O   UNL     1       4.710   1.975  24.461  0.00  0.00    -0.154 OA
ATOM     15  O   UNL     1       6.010   1.714  22.357  0.00  0.00    -0.154 OA
BRANCH  13  16
ATOM     16  C   UNL     1       6.967   3.336  24.174  0.00  0.00    +0.152 C 
ATOM     17  C   UNL     1       7.377   4.182  23.001  0.00  0.00    +0.030 C 
ATOM     18  C   UNL     1       8.377   3.251  23.631  0.00  0.00    +0.030 C 
ENDBRANCH  13  16
ENDBRANCH   9  13
BRANCH  10  19
ATOM     19  C   UNL     1       8.224  -1.602  23.865  0.00  0.00    +0.103 C 
ATOM     20  C   UNL     1       9.734  -1.674  24.011  0.00  0.00    +0.042 C 
ATOM     21  C   UNL     1       9.122  -2.167  22.741  0.00  0.00    +0.042 C 
BRANCH  19  22
ATOM     22  N   UNL     1       7.312  -2.633  24.414  0.00  0.00    -0.317 NA
ATOM     23  H   UNL     1       6.447  -2.674  23.878  0.00  0.00    +0.119 HD
ATOM     24  H   UNL     1       7.054  -2.414  25.376  0.00  0.00    +0.119 HD
ENDBRANCH  19  22
BRANCH  20  25
ATOM     25  C   UNL     1      10.542  -0.451  23.950  0.00  0.00    -0.029 C 
ATOM     26  C   UNL     1      10.551   0.510  24.882  0.00  0.00    +0.004 C 
ENDBRANCH  20  25
ENDBRANCH  10  19
ENDBRANCH   3   8
BRANCH   1  27
ATOM     27  C   UNL     1       3.954  -0.760  27.701  0.00  0.00    +0.168 C 
BRANCH  27  29
ATOM     28  C   UNL     1       1.957   0.490  28.682  0.00  0.00    +0.013 C 
ATOM     29  C   UNL     1       2.426  -0.841  28.068  0.00  0.00    -0.011 C 
ATOM     30  C   UNL     1       1.563  -1.069  26.799  0.00  0.00    +0.013 C 
ATOM     31  C   UNL     1       2.100  -1.992  29.040  0.00  0.00    +0.013 C 
ENDBRANCH  27  29
BRANCH  27  32
ATOM     32  N   UNL     1       4.538  -2.084  27.511  0.00  0.00    -0.269 N 
ATOM     33  H   UNL     1       4.781  -2.641  28.326  0.00  0.00    +0.153 HD
ATOM     34  C   UNL     1       4.709  -2.637  26.290  0.00  0.00    +0.401 C 
ATOM     35  O   UNL     1       4.464  -2.053  25.245  0.00  0.00    -0.226 OA
BRANCH  34  36
ATOM     36  O   UNL     1       5.148  -3.910  26.393  0.00  0.00    -0.445 OA
BRANCH  36  37
ATOM     37  C   UNL     1       4.316  -4.996  25.901  0.00  0.00    +0.107 C 
ATOM     38  C   UNL     1       2.824  -4.708  26.123  0.00  0.00    +0.055 C 
ATOM     39  C   UNL     1       4.691  -6.226  26.742  0.00  0.00    +0.055 C 
ATOM     40  C   UNL     1       4.626  -5.303  24.432  0.00  0.00    +0.055 C 
ENDBRANCH  36  37
ENDBRANCH  34  36
ENDBRANCH  27  32
ENDBRANCH   1  27
BRANCH   5  41
ATOM     41  O   UNL     1       6.044   3.726  29.073  0.00  0.00    -0.471 OA
BRANCH  41  42
ATOM     42  C   UNL     1       5.256   4.307  28.079  0.00  0.00    +0.223 A 
ATOM     43  C   UNL     1       5.916   5.238  27.247  0.00  0.00    +0.049 A 
ATOM     44  C   UNL     1       7.244   5.658  27.473  0.00  0.00    +0.034 A 
ATOM     45  C   UNL     1       7.859   6.589  26.638  0.00  0.00    +0.042 A 
ATOM     46 CL   UNL     1       9.463   7.108  26.976  0.00  0.00    -0.084 Cl
ATOM     47  C   UNL     1       7.181   7.108  25.545  0.00  0.00    +0.021 A 
ATOM     48  C   UNL     1       5.868   6.706  25.301  0.00  0.00    +0.014 A 
ATOM     49  C   UNL     1       5.206   5.784  26.149  0.00  0.00    +0.030 A 
ATOM     50  C   UNL     1       3.868   5.396  25.939  0.00  0.00    +0.146 A 
ATOM     51  C   UNL     1       3.306   4.508  26.856  0.00  0.00    +0.160 A 
ATOM     52  N   UNL     1       3.963   3.944  27.919  0.00  0.00    -0.217 NA
BRANCH  50  53
ATOM     53  O   UNL     1       3.257   5.947  24.842  0.00  0.00    -0.493 OA
ATOM     54  C   UNL     1       2.112   6.767  25.009  0.00  0.00    +0.277 C 
ENDBRANCH  50  53
ENDBRANCH  41  42
ENDBRANCH   5  41
TORSDOF 14
ENDMDL
