MODEL 1
REMARK VINA RESULT:      -5.4      0.000      0.000
REMARK  Name = 
REMARK  4 active torsions:
REMARK  status: ('A' for Active; 'I' for Inactive)
REMARK    1  A    between atoms: C_3  and  C_11
REMARK    2  A    between atoms: C_6  and  C_7
REMARK    3  A    between atoms: C_11  and  C_12
REMARK    4  A    between atoms: C_12  and  O_14
REMARK                            x       y       z     vdW  Elec       q    Type
REMARK                         _______ _______ _______ _____ _____    ______ ____
ROOT
ATOM      1  C   UNL     1       7.748  -2.000  22.379  0.00  0.00    +0.015 A 
ATOM      2  C   UNL     1       8.962  -1.342  22.567  0.00  0.00    +0.073 A 
ATOM      3  C   UNL     1       9.907  -1.969  23.362  0.00  0.00    +0.123 A 
ATOM      4  N   UNL     1       9.707  -3.160  23.975  0.00  0.00    -0.259 NA
ATOM      5  C   UNL     1       8.517  -3.788  23.791  0.00  0.00    +0.052 A 
ATOM      6  C   UNL     1       7.515  -3.224  23.006  0.00  0.00    +0.024 A 
ENDROOT
BRANCH   2   7
ATOM      7  C   UNL     1       9.263  -0.001  21.975  0.00  0.00    +0.419 C 
ATOM      8  F   UNL     1       9.284  -0.018  20.614  0.00  0.00    -0.166 F 
ATOM      9  F   UNL     1      10.482   0.473  22.360  0.00  0.00    -0.166 F 
ATOM     10  F   UNL     1       8.365   0.962  22.323  0.00  0.00    -0.166 F 
ENDBRANCH   2   7
BRANCH   5  11
ATOM     11  C   UNL     1       8.323  -5.032  24.619  0.00  0.00    +0.175 C 
BRANCH  11  12
ATOM     12  C   UNL     1       9.015  -5.105  25.958  0.00  0.00    +0.311 C 
ATOM     13  O   UNL     1       8.534  -4.839  27.048  0.00  0.00    -0.251 OA
BRANCH  12  14
ATOM     14  O   UNL     1      10.311  -5.499  25.839  0.00  0.00    -0.480 OA
ATOM     15  H   UNL     1      10.546  -6.283  26.373  0.00  0.00    +0.295 HD
ENDBRANCH  12  14
ENDBRANCH  11  12
ENDBRANCH   5  11
TORSDOF 4
ENDMDL
MODEL 2
REMARK VINA RESULT:      -5.3      1.701      2.255
REMARK  Name = 
REMARK  4 active torsions:
REMARK  status: ('A' for Active; 'I' for Inactive)
REMARK    1  A    between atoms: C_3  and  C_11
REMARK    2  A    between atoms: C_6  and  C_7
REMARK    3  A    between atoms: C_11  and  C_12
REMARK    4  A    between atoms: C_12  and  O_14
REMARK                            x       y       z     vdW  Elec       q    Type
REMARK                         _______ _______ _______ _____ _____    ______ ____
ROOT
ATOM      1  C   UNL     1       9.109  -0.917  25.259  0.00  0.00    +0.015 A 
ATOM      2  C   UNL     1       9.927  -0.522  24.202  0.00  0.00    +0.073 A 
ATOM      3  C   UNL     1      10.168  -1.452  23.205  0.00  0.00    +0.123 A 
ATOM      4  N   UNL     1       9.675  -2.713  23.212  0.00  0.00    -0.259 NA
ATOM      5  C   UNL     1       8.884  -3.089  24.251  0.00  0.00    +0.052 A 
ATOM      6  C   UNL     1       8.594  -2.213  25.294  0.00  0.00    +0.024 A 
ENDROOT
BRANCH   2   7
ATOM      7  C   UNL     1      10.561   0.830  24.124  0.00  0.00    +0.419 C 
ATOM      8  F   UNL     1      11.845   0.838  24.579  0.00  0.00    -0.166 F 
ATOM      9  F   UNL     1       9.897   1.757  24.871  0.00  0.00    -0.166 F 
ATOM     10  F   UNL     1      10.610   1.339  22.861  0.00  0.00    -0.166 F 
ENDBRANCH   2   7
BRANCH   5  11
ATOM     11  C   UNL     1       8.496  -4.546  24.256  0.00  0.00    +0.175 C 
BRANCH  11  12
ATOM     12  C   UNL     1       8.919  -5.385  25.436  0.00  0.00    +0.311 C 
ATOM     13  O   UNL     1       8.217  -5.752  26.365  0.00  0.00    -0.251 OA
BRANCH  12  14
ATOM     14  O   UNL     1      10.240  -5.704  25.385  0.00  0.00    -0.480 OA
ATOM     15  H   UNL     1      10.463  -6.399  24.735  0.00  0.00    +0.295 HD
ENDBRANCH  12  14
ENDBRANCH  11  12
ENDBRANCH   5  11
TORSDOF 4
ENDMDL
MODEL 3
REMARK VINA RESULT:      -5.2      2.960      4.179
REMARK  Name = 
REMARK  4 active torsions:
REMARK  status: ('A' for Active; 'I' for Inactive)
REMARK    1  A    between atoms: C_3  and  C_11
REMARK    2  A    between atoms: C_6  and  C_7
REMARK    3  A    between atoms: C_11  and  C_12
REMARK    4  A    between atoms: C_12  and  O_14
REMARK                            x       y       z     vdW  Elec       q    Type
REMARK                         _______ _______ _______ _____ _____    ______ ____
ROOT
ATOM      1  C   UNL     1       9.632   1.879  22.124  0.00  0.00    +0.015 A 
ATOM      2  C   UNL     1       9.801   2.385  23.412  0.00  0.00    +0.073 A 
ATOM      3  C   UNL     1      10.181   1.491  24.399  0.00  0.00    +0.123 A 
ATOM      4  N   UNL     1      10.375   0.168  24.186  0.00  0.00    -0.259 NA
ATOM      5  C   UNL     1      10.200  -0.315  22.928  0.00  0.00    +0.052 A 
ATOM      6  C   UNL     1       9.817   0.518  21.880  0.00  0.00    +0.024 A 
ENDROOT
BRANCH   2   7
ATOM      7  C   UNL     1       9.565   3.819  23.761  0.00  0.00    +0.419 C 
ATOM      8  F   UNL     1       9.113   3.985  25.035  0.00  0.00    -0.166 F 
ATOM      9  F   UNL     1       8.630   4.401  22.958  0.00  0.00    -0.166 F 
ATOM     10  F   UNL     1      10.678   4.598  23.656  0.00  0.00    -0.166 F 
ENDBRANCH   2   7
BRANCH   5  11
ATOM     11  C   UNL     1      10.292  -1.815  22.807  0.00  0.00    +0.175 C 
BRANCH  11  12
ATOM     12  C   UNL     1       9.620  -2.652  23.866  0.00  0.00    +0.311 C 
ATOM     13  O   UNL     1      10.009  -3.719  24.314  0.00  0.00    -0.251 OA
BRANCH  12  14
ATOM     14  O   UNL     1       8.457  -2.093  24.294  0.00  0.00    -0.480 OA
ATOM     15  H   UNL     1       8.074  -1.437  23.680  0.00  0.00    +0.295 HD
ENDBRANCH  12  14
ENDBRANCH  11  12
ENDBRANCH   5  11
TORSDOF 4
ENDMDL
MODEL 4
REMARK VINA RESULT:      -5.1      4.291      5.313
REMARK  Name = 
REMARK  4 active torsions:
REMARK  status: ('A' for Active; 'I' for Inactive)
REMARK    1  A    between atoms: C_3  and  C_11
REMARK    2  A    between atoms: C_6  and  C_7
REMARK    3  A    between atoms: C_11  and  C_12
REMARK    4  A    between atoms: C_12  and  O_14
REMARK                            x       y       z     vdW  Elec       q    Type
REMARK                         _______ _______ _______ _____ _____    ______ ____
ROOT
ATOM      1  C   UNL     1       7.806  -5.139  23.590  0.00  0.00    +0.015 A 
ATOM      2  C   UNL     1       7.051  -4.901  22.443  0.00  0.00    +0.073 A 
ATOM      3  C   UNL     1       7.155  -3.647  21.865  0.00  0.00    +0.123 A 
ATOM      4  N   UNL     1       7.924  -2.648  22.360  0.00  0.00    -0.259 NA
ATOM      5  C   UNL     1       8.649  -2.890  23.483  0.00  0.00    +0.052 A 
ATOM      6  C   UNL     1       8.600  -4.124  24.125  0.00  0.00    +0.024 A 
ENDROOT
BRANCH   2   7
ATOM      7  C   UNL     1       6.134  -5.920  21.845  0.00  0.00    +0.419 C 
ATOM      8  F   UNL     1       4.874  -5.863  22.359  0.00  0.00    -0.166 F 
ATOM      9  F   UNL     1       6.565  -7.195  22.060  0.00  0.00    -0.166 F 
ATOM     10  F   UNL     1       5.991  -5.801  20.495  0.00  0.00    -0.166 F 
ENDBRANCH   2   7
BRANCH   5  11
ATOM     11  C   UNL     1       9.361  -1.687  24.047  0.00  0.00    +0.175 C 
BRANCH  11  12
ATOM     12  C   UNL     1      10.249  -0.893  23.122  0.00  0.00    +0.311 C 
ATOM     13  O   UNL     1      10.618   0.262  23.271  0.00  0.00    -0.251 OA
BRANCH  12  14
ATOM     14  O   UNL     1      10.613  -1.611  22.026  0.00  0.00    -0.480 OA
ATOM     15  H   UNL     1      10.931  -1.070  21.276  0.00  0.00    +0.295 HD
ENDBRANCH  12  14
ENDBRANCH  11  12
ENDBRANCH   5  11
TORSDOF 4
ENDMDL
MODEL 5
REMARK VINA RESULT:      -5.0      2.119      2.659
REMARK  Name = 
REMARK  4 active torsions:
REMARK  status: ('A' for Active; 'I' for Inactive)
REMARK    1  A    between atoms: C_3  and  C_11
REMARK    2  A    between atoms: C_6  and  C_7
REMARK    3  A    between atoms: C_11  and  C_12
REMARK    4  A    between atoms: C_12  and  O_14
REMARK                            x       y       z     vdW  Elec       q    Type
REMARK                         _______ _______ _______ _____ _____    ______ ____
ROOT
ATOM      1  C   UNL     1       9.663  -1.578  23.899  0.00  0.00    +0.015 A 
ATOM      2  C   UNL     1       9.806  -0.447  24.701  0.00  0.00    +0.073 A 
ATOM      3  C   UNL     1       9.222  -0.482  25.957  0.00  0.00    +0.123 A 
ATOM      4  N   UNL     1       8.513  -1.534  26.431  0.00  0.00    -0.259 NA
ATOM      5  C   UNL     1       8.374  -2.628  25.637  0.00  0.00    +0.052 A 
ATOM      6  C   UNL     1       8.930  -2.671  24.361  0.00  0.00    +0.024 A 
ENDROOT
BRANCH   2   7
ATOM      7  C   UNL     1      10.528   0.784  24.253  0.00  0.00    +0.419 C 
ATOM      8  F   UNL     1       9.969   1.928  24.736  0.00  0.00    -0.166 F 
ATOM      9  F   UNL     1      10.532   0.916  22.897  0.00  0.00    -0.166 F 
ATOM     10  F   UNL     1      11.836   0.818  24.632  0.00  0.00    -0.166 F 
ENDBRANCH   2   7
BRANCH   5  11
ATOM     11  C   UNL     1       7.453  -3.690  26.179  0.00  0.00    +0.175 C 
BRANCH  11  12
ATOM     12  C   UNL     1       8.075  -4.927  26.777  0.00  0.00    +0.311 C 
ATOM     13  O   UNL     1       7.514  -5.982  27.029  0.00  0.00    -0.251 OA
BRANCH  12  14
ATOM     14  O   UNL     1       9.396  -4.752  27.047  0.00  0.00    -0.480 OA
ATOM     15  H   UNL     1       9.608  -4.682  27.998  0.00  0.00    +0.295 HD
ENDBRANCH  12  14
ENDBRANCH  11  12
ENDBRANCH   5  11
TORSDOF 4
ENDMDL
MODEL 6
REMARK VINA RESULT:      -5.0      1.618      2.428
REMARK  Name = 
REMARK  4 active torsions:
REMARK  status: ('A' for Active; 'I' for Inactive)
REMARK    1  A    between atoms: C_3  and  C_11
REMARK    2  A    between atoms: C_6  and  C_7
REMARK    3  A    between atoms: C_11  and  C_12
REMARK    4  A    between atoms: C_12  and  O_14
REMARK                            x       y       z     vdW  Elec       q    Type
REMARK                         _______ _______ _______ _____ _____    ______ ____
ROOT
ATOM      1  C   UNL     1       9.648  -0.302  21.973  0.00  0.00    +0.015 A 
ATOM      2  C   UNL     1       9.865   0.545  23.058  0.00  0.00    +0.073 A 
ATOM      3  C   UNL     1       9.748  -0.003  24.324  0.00  0.00    +0.123 A 
ATOM      4  N   UNL     1       9.418  -1.296  24.560  0.00  0.00    -0.259 NA
ATOM      5  C   UNL     1       9.202  -2.110  23.495  0.00  0.00    +0.052 A 
ATOM      6  C   UNL     1       9.300  -1.636  22.189  0.00  0.00    +0.024 A 
ENDROOT
BRANCH   2   7
ATOM      7  C   UNL     1      10.185   1.998  22.906  0.00  0.00    +0.419 C 
ATOM      8  F   UNL     1       9.092   2.797  23.052  0.00  0.00    -0.166 F 
ATOM      9  F   UNL     1      10.697   2.290  21.677  0.00  0.00    -0.166 F 
ATOM     10  F   UNL     1      11.101   2.452  23.806  0.00  0.00    -0.166 F 
ENDBRANCH   2   7
BRANCH   5  11
ATOM     11  C   UNL     1       8.701  -3.489  23.843  0.00  0.00    +0.175 C 
BRANCH  11  12
ATOM     12  C   UNL     1       9.317  -4.185  25.030  0.00  0.00    +0.311 C 
ATOM     13  O   UNL     1      10.233  -4.992  25.015  0.00  0.00    -0.251 OA
BRANCH  12  14
ATOM     14  O   UNL     1       8.712  -3.833  26.196  0.00  0.00    -0.480 OA
ATOM     15  H   UNL     1       8.797  -2.887  26.426  0.00  0.00    +0.295 HD
ENDBRANCH  12  14
ENDBRANCH  11  12
ENDBRANCH   5  11
TORSDOF 4
ENDMDL
MODEL 7
REMARK VINA RESULT:      -5.0      4.476      5.541
REMARK  Name = 
REMARK  4 active torsions:
REMARK  status: ('A' for Active; 'I' for Inactive)
REMARK    1  A    between atoms: C_3  and  C_11
REMARK    2  A    between atoms: C_6  and  C_7
REMARK    3  A    between atoms: C_11  and  C_12
REMARK    4  A    between atoms: C_12  and  O_14
REMARK                            x       y       z     vdW  Elec       q    Type
REMARK                         _______ _______ _______ _____ _____    ______ ____
ROOT
ATOM      1  C   UNL     1       7.888  -3.311  23.128  0.00  0.00    +0.015 A 
ATOM      2  C   UNL     1       8.816  -3.489  24.153  0.00  0.00    +0.073 A 
ATOM      3  C   UNL     1       9.859  -2.581  24.229  0.00  0.00    +0.123 A 
ATOM      4  N   UNL     1      10.033  -1.557  23.360  0.00  0.00    -0.259 NA
ATOM      5  C   UNL     1       9.127  -1.398  22.360  0.00  0.00    +0.052 A 
ATOM      6  C   UNL     1       8.051  -2.269  22.214  0.00  0.00    +0.024 A 
ENDROOT
BRANCH   2   7
ATOM      7  C   UNL     1       8.741  -4.615  25.134  0.00  0.00    +0.419 C 
ATOM      8  F   UNL     1       8.957  -4.213  26.417  0.00  0.00    -0.166 F 
ATOM      9  F   UNL     1       9.670  -5.580  24.886  0.00  0.00    -0.166 F 
ATOM     10  F   UNL     1       7.537  -5.253  25.141  0.00  0.00    -0.166 F 
ENDBRANCH   2   7
BRANCH   5  11
ATOM     11  C   UNL     1       9.473  -0.329  21.356  0.00  0.00    +0.175 C 
BRANCH  11  12
ATOM     12  C   UNL     1       8.969   1.070  21.611  0.00  0.00    +0.311 C 
ATOM     13  O   UNL     1       7.822   1.403  21.860  0.00  0.00    -0.251 OA
BRANCH  12  14
ATOM     14  O   UNL     1       9.963   1.993  21.513  0.00  0.00    -0.480 OA
ATOM     15  H   UNL     1       9.656   2.897  21.305  0.00  0.00    +0.295 HD
ENDBRANCH  12  14
ENDBRANCH  11  12
ENDBRANCH   5  11
TORSDOF 4
ENDMDL
MODEL 8
REMARK VINA RESULT:      -4.9      4.135      5.066
REMARK  Name = 
REMARK  4 active torsions:
REMARK  status: ('A' for Active; 'I' for Inactive)
REMARK    1  A    between atoms: C_3  and  C_11
REMARK    2  A    between atoms: C_6  and  C_7
REMARK    3  A    between atoms: C_11  and  C_12
REMARK    4  A    between atoms: C_12  and  O_14
REMARK                            x       y       z     vdW  Elec       q    Type
REMARK                         _______ _______ _______ _____ _____    ______ ____
ROOT
ATOM      1  C   UNL     1       7.727  -2.685  22.461  0.00  0.00    +0.015 A 
ATOM      2  C   UNL     1       8.059  -3.666  23.393  0.00  0.00    +0.073 A 
ATOM      3  C   UNL     1       9.123  -3.402  24.240  0.00  0.00    +0.123 A 
ATOM      4  N   UNL     1       9.859  -2.266  24.196  0.00  0.00    -0.259 NA
ATOM      5  C   UNL     1       9.530  -1.320  23.279  0.00  0.00    +0.052 A 
ATOM      6  C   UNL     1       8.475  -1.509  22.391  0.00  0.00    +0.024 A 
ENDROOT
BRANCH   2   7
ATOM      7  C   UNL     1       7.342  -4.975  23.489  0.00  0.00    +0.419 C 
ATOM      8  F   UNL     1       7.296  -5.459  24.761  0.00  0.00    -0.166 F 
ATOM      9  F   UNL     1       7.938  -5.948  22.743  0.00  0.00    -0.166 F 
ATOM     10  F   UNL     1       6.050  -4.922  23.062  0.00  0.00    -0.166 F 
ENDBRANCH   2   7
BRANCH   5  11
ATOM     11  C   UNL     1      10.483  -0.155  23.201  0.00  0.00    +0.175 C 
BRANCH  11  12
ATOM     12  C   UNL     1      10.396   0.904  24.272  0.00  0.00    +0.311 C 
ATOM     13  O   UNL     1      10.384   2.114  24.109  0.00  0.00    -0.251 OA
BRANCH  12  14
ATOM     14  O   UNL     1      10.347   0.363  25.518  0.00  0.00    -0.480 OA
ATOM     15  H   UNL     1       9.703   0.787  26.119  0.00  0.00    +0.295 HD
ENDBRANCH  12  14
ENDBRANCH  11  12
ENDBRANCH   5  11
TORSDOF 4
ENDMDL
MODEL 9
REMARK VINA RESULT:      -4.9      2.232      2.735
REMARK  Name = 
REMARK  4 active torsions:
REMARK  status: ('A' for Active; 'I' for Inactive)
REMARK    1  A    between atoms: C_3  and  C_11
REMARK    2  A    between atoms: C_6  and  C_7
REMARK    3  A    between atoms: C_11  and  C_12
REMARK    4  A    between atoms: C_12  and  O_14
REMARK                            x       y       z     vdW  Elec       q    Type
REMARK                         _______ _______ _______ _____ _____    ______ ____
ROOT
ATOM      1  C   UNL     1       9.122   0.879  24.987  0.00  0.00    +0.015 A 
ATOM      2  C   UNL     1       9.726   0.896  23.731  0.00  0.00    +0.073 A 
ATOM      3  C   UNL     1       9.923  -0.323  23.105  0.00  0.00    +0.123 A 
ATOM      4  N   UNL     1       9.582  -1.515  23.650  0.00  0.00    -0.259 NA
ATOM      5  C   UNL     1       9.000  -1.520  24.878  0.00  0.00    +0.052 A 
ATOM      6  C   UNL     1       8.769  -0.336  25.574  0.00  0.00    +0.024 A 
ENDROOT
BRANCH   2   7
ATOM      7  C   UNL     1      10.184   2.154  23.064  0.00  0.00    +0.419 C 
ATOM      8  F   UNL     1      10.507   1.970  21.754  0.00  0.00    -0.166 F 
ATOM      9  F   UNL     1      11.298   2.675  23.651  0.00  0.00    -0.166 F 
ATOM     10  F   UNL     1       9.256   3.151  23.083  0.00  0.00    -0.166 F 
ENDBRANCH   2   7
BRANCH   5  11
ATOM     11  C   UNL     1       8.786  -2.889  25.472  0.00  0.00    +0.175 C 
BRANCH  11  12
ATOM     12  C   UNL     1       9.257  -4.084  24.681  0.00  0.00    +0.311 C 
ATOM     13  O   UNL     1      10.200  -4.814  24.945  0.00  0.00    -0.251 OA
BRANCH  12  14
ATOM     14  O   UNL     1       8.506  -4.283  23.565  0.00  0.00    -0.480 OA
ATOM     15  H   UNL     1       7.597  -3.928  23.621  0.00  0.00    +0.295 HD
ENDBRANCH  12  14
ENDBRANCH  11  12
ENDBRANCH   5  11
TORSDOF 4
ENDMDL
