MODEL 1
REMARK VINA RESULT:      -6.4      0.000      0.000
REMARK  Name = 
REMARK  11 active torsions:
REMARK  status: ('A' for Active; 'I' for Inactive)
REMARK    1  A    between atoms: C_1  and  C_2
REMARK    2  A    between atoms: C_2  and  C_3
REMARK    3  A    between atoms: C_2  and  C_4
REMARK    4  A    between atoms: C_4  and  C_6
REMARK    5  A    between atoms: C_4  and  N_24
REMARK    6  A    between atoms: C_6  and  O_8
REMARK    7  A    between atoms: O_8  and  C_9
REMARK    8  A    between atoms: C_9  and  C_10
REMARK    9  A    between atoms: C_10  and  O_11
REMARK   10  A    between atoms: O_11  and  C_12
REMARK   11  A    between atoms: C_12  and  N_13
REMARK                            x       y       z     vdW  Elec       q    Type
REMARK                         _______ _______ _______ _____ _____    ______ ____
ROOT
ATOM      1  C   UNL     1       7.217  -3.180  22.144  0.00  0.00    +0.287 C 
ENDROOT
BRANCH   1   2
ATOM      2  N   UNL     1       6.683  -3.851  23.312  0.00  0.00    -0.291 N 
ATOM      3  C   UNL     1       7.394  -4.480  24.295  0.00  0.00    +0.171 A 
ATOM      4  N   UNL     1       8.740  -4.629  24.367  0.00  0.00    -0.196 NA
ATOM      5  C   UNL     1       9.131  -5.286  25.428  0.00  0.00    +0.195 A 
ATOM      6  N   UNL     1      10.447  -5.540  25.631  0.00  0.00    -0.329 N 
ATOM      7  H   UNL     1      10.774  -5.635  26.582  0.00  0.00    +0.145 HD
ATOM      8  H   UNL     1      11.060  -4.990  25.038  0.00  0.00    +0.145 HD
ATOM      9  N   UNL     1       8.271  -5.759  26.400  0.00  0.00    -0.293 N 
ATOM     10  H   UNL     1       8.626  -6.276  27.187  0.00  0.00    +0.172 HD
ATOM     11  C   UNL     1       6.890  -5.638  26.358  0.00  0.00    +0.280 A 
ATOM     12  O   UNL     1       6.174  -6.096  27.246  0.00  0.00    -0.265 OA
ATOM     13  C   UNL     1       6.440  -4.935  25.181  0.00  0.00    +0.172 A 
ATOM     14  N   UNL     1       5.170  -4.640  24.756  0.00  0.00    -0.229 NA
ATOM     15  C   UNL     1       5.352  -3.996  23.620  0.00  0.00    +0.203 A 
ENDBRANCH   1   2
BRANCH   1  16
ATOM     16  O   UNL     1       7.824  -1.957  22.566  0.00  0.00    -0.356 OA
BRANCH  16  17
ATOM     17  C   UNL     1       9.123  -1.768  22.004  0.00  0.00    +0.203 C 
BRANCH  17  18
ATOM     18  C   UNL     1      10.124  -1.579  23.147  0.00  0.00    +0.260 C 
BRANCH  18  19
ATOM     19  O   UNL     1       9.523  -0.879  24.254  0.00  0.00    -0.461 OA
BRANCH  19  20
ATOM     20  C   UNL     1      10.086   0.319  24.567  0.00  0.00    +0.324 C 
ATOM     21  O   UNL     1      11.265   0.480  24.866  0.00  0.00    -0.249 OA
BRANCH  20  22
ATOM     22  C   UNL     1       9.056   1.461  24.442  0.00  0.00    +0.163 C 
BRANCH  22  24
ATOM     23  C   UNL     1       8.347   3.492  23.061  0.00  0.00    +0.009 C 
ATOM     24  C   UNL     1       9.479   2.511  23.387  0.00  0.00    +0.010 C 
ATOM     25  C   UNL     1       9.939   1.847  22.081  0.00  0.00    +0.009 C 
ENDBRANCH  22  24
BRANCH  22  26
ATOM     26  N   UNL     1       7.744   0.865  24.072  0.00  0.00    -0.318 NA
ATOM     27  H   UNL     1       7.389   1.378  23.260  0.00  0.00    +0.119 HD
ATOM     28  H   UNL     1       7.902  -0.082  23.726  0.00  0.00    +0.119 HD
ENDBRANCH  22  26
ENDBRANCH  20  22
ENDBRANCH  19  20
ENDBRANCH  18  19
ENDBRANCH  17  18
ENDBRANCH  16  17
ENDBRANCH   1  16
TORSDOF 9
ENDMDL
MODEL 2
REMARK VINA RESULT:      -6.3      1.374      1.679
REMARK  Name = 
REMARK  11 active torsions:
REMARK  status: ('A' for Active; 'I' for Inactive)
REMARK    1  A    between atoms: C_1  and  C_2
REMARK    2  A    between atoms: C_2  and  C_3
REMARK    3  A    between atoms: C_2  and  C_4
REMARK    4  A    between atoms: C_4  and  C_6
REMARK    5  A    between atoms: C_4  and  N_24
REMARK    6  A    between atoms: C_6  and  O_8
REMARK    7  A    between atoms: O_8  and  C_9
REMARK    8  A    between atoms: C_9  and  C_10
REMARK    9  A    between atoms: C_10  and  O_11
REMARK   10  A    between atoms: O_11  and  C_12
REMARK   11  A    between atoms: C_12  and  N_13
REMARK                            x       y       z     vdW  Elec       q    Type
REMARK                         _______ _______ _______ _____ _____    ______ ____
ROOT
ATOM      1  C   UNL     1       6.667  -3.796  22.294  0.00  0.00    +0.287 C 
ENDROOT
BRANCH   1   2
ATOM      2  N   UNL     1       6.301  -4.349  23.582  0.00  0.00    -0.291 N 
ATOM      3  C   UNL     1       7.149  -4.812  24.548  0.00  0.00    +0.171 A 
ATOM      4  N   UNL     1       8.503  -4.873  24.491  0.00  0.00    -0.196 NA
ATOM      5  C   UNL     1       9.043  -5.372  25.572  0.00  0.00    +0.195 A 
ATOM      6  N   UNL     1      10.387  -5.524  25.659  0.00  0.00    -0.329 N 
ATOM      7  H   UNL     1      10.815  -5.483  26.573  0.00  0.00    +0.145 HD
ATOM      8  H   UNL     1      10.898  -5.016  24.944  0.00  0.00    +0.145 HD
ATOM      9  N   UNL     1       8.321  -5.772  26.679  0.00  0.00    -0.293 N 
ATOM     10  H   UNL     1       8.788  -6.167  27.478  0.00  0.00    +0.172 HD
ATOM     11  C   UNL     1       6.937  -5.736  26.774  0.00  0.00    +0.280 A 
ATOM     12  O   UNL     1       6.348  -6.122  27.780  0.00  0.00    -0.265 OA
ATOM     13  C   UNL     1       6.323  -5.208  25.579  0.00  0.00    +0.172 A 
ATOM     14  N   UNL     1       5.000  -5.041  25.262  0.00  0.00    -0.229 NA
ATOM     15  C   UNL     1       5.021  -4.531  24.047  0.00  0.00    +0.203 A 
ENDBRANCH   1   2
BRANCH   1  16
ATOM     16  O   UNL     1       6.261  -2.427  22.259  0.00  0.00    -0.356 OA
BRANCH  16  17
ATOM     17  C   UNL     1       7.257  -1.547  22.783  0.00  0.00    +0.203 C 
BRANCH  17  18
ATOM     18  C   UNL     1       8.612  -1.935  22.184  0.00  0.00    +0.260 C 
BRANCH  18  19
ATOM     19  O   UNL     1       9.199  -0.830  21.468  0.00  0.00    -0.461 OA
BRANCH  19  20
ATOM     20  C   UNL     1       9.779   0.128  22.238  0.00  0.00    +0.324 C 
ATOM     21  O   UNL     1      10.616  -0.088  23.108  0.00  0.00    -0.249 OA
BRANCH  20  22
ATOM     22  C   UNL     1       9.286   1.533  21.834  0.00  0.00    +0.163 C 
BRANCH  22  24
ATOM     23  C   UNL     1       6.910   2.433  22.122  0.00  0.00    +0.009 C 
ATOM     24  C   UNL     1       8.229   2.084  22.821  0.00  0.00    +0.010 C 
ATOM     25  C   UNL     1       8.737   3.334  23.554  0.00  0.00    +0.009 C 
ENDBRANCH  22  24
BRANCH  22  26
ATOM     26  N   UNL     1      10.462   2.442  21.785  0.00  0.00    -0.318 NA
ATOM     27  H   UNL     1      10.156   3.362  22.114  0.00  0.00    +0.119 HD
ATOM     28  H   UNL     1      11.141   2.134  22.482  0.00  0.00    +0.119 HD
ENDBRANCH  22  26
ENDBRANCH  20  22
ENDBRANCH  19  20
ENDBRANCH  18  19
ENDBRANCH  17  18
ENDBRANCH  16  17
ENDBRANCH   1  16
TORSDOF 9
ENDMDL
MODEL 3
REMARK VINA RESULT:      -6.3      1.410      2.042
REMARK  Name = 
REMARK  11 active torsions:
REMARK  status: ('A' for Active; 'I' for Inactive)
REMARK    1  A    between atoms: C_1  and  C_2
REMARK    2  A    between atoms: C_2  and  C_3
REMARK    3  A    between atoms: C_2  and  C_4
REMARK    4  A    between atoms: C_4  and  C_6
REMARK    5  A    between atoms: C_4  and  N_24
REMARK    6  A    between atoms: C_6  and  O_8
REMARK    7  A    between atoms: O_8  and  C_9
REMARK    8  A    between atoms: C_9  and  C_10
REMARK    9  A    between atoms: C_10  and  O_11
REMARK   10  A    between atoms: O_11  and  C_12
REMARK   11  A    between atoms: C_12  and  N_13
REMARK                            x       y       z     vdW  Elec       q    Type
REMARK                         _______ _______ _______ _____ _____    ______ ____
ROOT
ATOM      1  C   UNL     1       7.349  -3.103  22.096  0.00  0.00    +0.287 C 
ENDROOT
BRANCH   1   2
ATOM      2  N   UNL     1       6.780  -3.788  23.239  0.00  0.00    -0.291 N 
ATOM      3  C   UNL     1       7.461  -4.433  24.233  0.00  0.00    +0.171 A 
ATOM      4  N   UNL     1       8.804  -4.588  24.340  0.00  0.00    -0.196 NA
ATOM      5  C   UNL     1       9.162  -5.260  25.402  0.00  0.00    +0.195 A 
ATOM      6  N   UNL     1      10.471  -5.522  25.639  0.00  0.00    -0.329 N 
ATOM      7  H   UNL     1      10.772  -5.631  26.597  0.00  0.00    +0.145 HD
ATOM      8  H   UNL     1      11.103  -4.966  25.071  0.00  0.00    +0.145 HD
ATOM      9  N   UNL     1       8.274  -5.744  26.343  0.00  0.00    -0.293 N 
ATOM     10  H   UNL     1       8.605  -6.273  27.133  0.00  0.00    +0.172 HD
ATOM     11  C   UNL     1       6.895  -5.617  26.264  0.00  0.00    +0.280 A 
ATOM     12  O   UNL     1       6.153  -6.085  27.125  0.00  0.00    -0.265 OA
ATOM     13  C   UNL     1       6.481  -4.896  25.085  0.00  0.00    +0.172 A 
ATOM     14  N   UNL     1       5.225  -4.591  24.628  0.00  0.00    -0.229 NA
ATOM     15  C   UNL     1       5.440  -3.932  23.507  0.00  0.00    +0.203 A 
ENDBRANCH   1   2
BRANCH   1  16
ATOM     16  O   UNL     1       7.693  -1.774  22.493  0.00  0.00    -0.356 OA
BRANCH  16  17
ATOM     17  C   UNL     1       9.090  -1.508  22.361  0.00  0.00    +0.203 C 
BRANCH  17  18
ATOM     18  C   UNL     1       9.290  -0.520  21.208  0.00  0.00    +0.260 C 
BRANCH  18  19
ATOM     19  O   UNL     1       9.815   0.735  21.683  0.00  0.00    -0.461 OA
BRANCH  19  20
ATOM     20  C   UNL     1       8.888   1.670  22.019  0.00  0.00    +0.324 C 
ATOM     21  O   UNL     1       7.759   1.737  21.544  0.00  0.00    -0.249 OA
BRANCH  20  22
ATOM     22  C   UNL     1       9.424   2.607  23.122  0.00  0.00    +0.163 C 
BRANCH  22  24
ATOM     23  C   UNL     1      10.641   0.925  24.615  0.00  0.00    +0.009 C 
ATOM     24  C   UNL     1       9.471   1.911  24.503  0.00  0.00    +0.010 C 
ATOM     25  C   UNL     1       8.168   1.155  24.800  0.00  0.00    +0.009 C 
ENDBRANCH  22  24
BRANCH  22  26
ATOM     26  N   UNL     1      10.787   3.055  22.729  0.00  0.00    -0.318 NA
ATOM     27  H   UNL     1      11.419   2.845  23.507  0.00  0.00    +0.119 HD
ATOM     28  H   UNL     1      11.117   2.464  21.965  0.00  0.00    +0.119 HD
ENDBRANCH  22  26
ENDBRANCH  20  22
ENDBRANCH  19  20
ENDBRANCH  18  19
ENDBRANCH  17  18
ENDBRANCH  16  17
ENDBRANCH   1  16
TORSDOF 9
ENDMDL
MODEL 4
REMARK VINA RESULT:      -6.1      1.872      2.971
REMARK  Name = 
REMARK  11 active torsions:
REMARK  status: ('A' for Active; 'I' for Inactive)
REMARK    1  A    between atoms: C_1  and  C_2
REMARK    2  A    between atoms: C_2  and  C_3
REMARK    3  A    between atoms: C_2  and  C_4
REMARK    4  A    between atoms: C_4  and  C_6
REMARK    5  A    between atoms: C_4  and  N_24
REMARK    6  A    between atoms: C_6  and  O_8
REMARK    7  A    between atoms: O_8  and  C_9
REMARK    8  A    between atoms: C_9  and  C_10
REMARK    9  A    between atoms: C_10  and  O_11
REMARK   10  A    between atoms: O_11  and  C_12
REMARK   11  A    between atoms: C_12  and  N_13
REMARK                            x       y       z     vdW  Elec       q    Type
REMARK                         _______ _______ _______ _____ _____    ______ ____
ROOT
ATOM      1  C   UNL     1       8.023  -3.326  23.899  0.00  0.00    +0.287 C 
ENDROOT
BRANCH   1   2
ATOM      2  N   UNL     1       7.569  -4.067  25.058  0.00  0.00    -0.291 N 
ATOM      3  C   UNL     1       6.580  -5.010  25.094  0.00  0.00    +0.171 A 
ATOM      4  N   UNL     1       5.803  -5.425  24.062  0.00  0.00    -0.196 NA
ATOM      5  C   UNL     1       4.934  -6.339  24.406  0.00  0.00    +0.195 A 
ATOM      6  N   UNL     1       4.067  -6.839  23.492  0.00  0.00    -0.329 N 
ATOM      7  H   UNL     1       3.730  -7.782  23.618  0.00  0.00    +0.145 HD
ATOM      8  H   UNL     1       4.318  -6.616  22.534  0.00  0.00    +0.145 HD
ATOM      9  N   UNL     1       4.828  -6.860  25.681  0.00  0.00    -0.293 N 
ATOM     10  H   UNL     1       4.126  -7.549  25.894  0.00  0.00    +0.172 HD
ATOM     11  C   UNL     1       5.593  -6.454  26.765  0.00  0.00    +0.280 A 
ATOM     12  O   UNL     1       5.441  -6.942  27.882  0.00  0.00    -0.265 OA
ATOM     13  C   UNL     1       6.543  -5.428  26.407  0.00  0.00    +0.172 A 
ATOM     14  N   UNL     1       7.447  -4.749  27.183  0.00  0.00    -0.229 NA
ATOM     15  C   UNL     1       8.042  -3.928  26.340  0.00  0.00    +0.203 A 
ENDBRANCH   1   2
BRANCH   1  16
ATOM     16  O   UNL     1       9.451  -3.338  23.887  0.00  0.00    -0.356 OA
BRANCH  16  17
ATOM     17  C   UNL     1      10.005  -2.155  23.309  0.00  0.00    +0.203 C 
BRANCH  17  18
ATOM     18  C   UNL     1       9.222  -1.824  22.035  0.00  0.00    +0.260 C 
BRANCH  18  19
ATOM     19  O   UNL     1       9.290  -0.417  21.733  0.00  0.00    -0.461 OA
BRANCH  19  20
ATOM     20  C   UNL     1       8.321   0.352  22.297  0.00  0.00    +0.324 C 
ATOM     21  O   UNL     1       7.211  -0.052  22.626  0.00  0.00    -0.249 OA
BRANCH  20  22
ATOM     22  C   UNL     1       8.824   1.794  22.522  0.00  0.00    +0.163 C 
BRANCH  22  24
ATOM     23  C   UNL     1       9.206   3.534  24.355  0.00  0.00    +0.009 C 
ATOM     24  C   UNL     1       9.230   2.044  23.994  0.00  0.00    +0.010 C 
ATOM     25  C   UNL     1      10.632   1.493  24.295  0.00  0.00    +0.009 C 
ENDBRANCH  22  24
BRANCH  22  26
ATOM     26  N   UNL     1       9.986   2.026  21.624  0.00  0.00    -0.318 NA
ATOM     27  H   UNL     1       9.696   2.700  20.909  0.00  0.00    +0.119 HD
ATOM     28  H   UNL     1      10.714   2.510  22.151  0.00  0.00    +0.119 HD
ENDBRANCH  22  26
ENDBRANCH  20  22
ENDBRANCH  19  20
ENDBRANCH  18  19
ENDBRANCH  17  18
ENDBRANCH  16  17
ENDBRANCH   1  16
TORSDOF 9
ENDMDL
MODEL 5
REMARK VINA RESULT:      -6.1      3.298      8.153
REMARK  Name = 
REMARK  11 active torsions:
REMARK  status: ('A' for Active; 'I' for Inactive)
REMARK    1  A    between atoms: C_1  and  C_2
REMARK    2  A    between atoms: C_2  and  C_3
REMARK    3  A    between atoms: C_2  and  C_4
REMARK    4  A    between atoms: C_4  and  C_6
REMARK    5  A    between atoms: C_4  and  N_24
REMARK    6  A    between atoms: C_6  and  O_8
REMARK    7  A    between atoms: O_8  and  C_9
REMARK    8  A    between atoms: C_9  and  C_10
REMARK    9  A    between atoms: C_10  and  O_11
REMARK   10  A    between atoms: O_11  and  C_12
REMARK   11  A    between atoms: C_12  and  N_13
REMARK                            x       y       z     vdW  Elec       q    Type
REMARK                         _______ _______ _______ _____ _____    ______ ____
ROOT
ATOM      1  C   UNL     1      10.039   1.240  23.296  0.00  0.00    +0.287 C 
ENDROOT
BRANCH   1   2
ATOM      2  N   UNL     1       9.629   2.581  23.661  0.00  0.00    -0.291 N 
ATOM      3  C   UNL     1      10.401   3.709  23.644  0.00  0.00    +0.171 A 
ATOM      4  N   UNL     1      11.712   3.801  23.309  0.00  0.00    -0.196 NA
ATOM      5  C   UNL     1      12.182   5.018  23.395  0.00  0.00    +0.195 A 
ATOM      6  N   UNL     1      13.484   5.272  23.117  0.00  0.00    -0.329 N 
ATOM      7  H   UNL     1      13.729   6.186  22.766  0.00  0.00    +0.145 HD
ATOM      8  H   UNL     1      13.950   4.509  22.635  0.00  0.00    +0.145 HD
ATOM      9  N   UNL     1      11.422   6.113  23.759  0.00  0.00    -0.293 N 
ATOM     10  H   UNL     1      11.841   7.025  23.827  0.00  0.00    +0.172 HD
ATOM     11  C   UNL     1      10.083   6.059  24.120  0.00  0.00    +0.280 A 
ATOM     12  O   UNL     1       9.463   7.066  24.453  0.00  0.00    -0.265 OA
ATOM     13  C   UNL     1       9.555   4.718  24.053  0.00  0.00    +0.172 A 
ATOM     14  N   UNL     1       8.305   4.242  24.356  0.00  0.00    -0.229 NA
ATOM     15  C   UNL     1       8.387   2.948  24.119  0.00  0.00    +0.203 A 
ENDBRANCH   1   2
BRANCH   1  16
ATOM     16  O   UNL     1      10.011   1.132  21.872  0.00  0.00    -0.356 OA
BRANCH  16  17
ATOM     17  C   UNL     1       9.419  -0.089  21.427  0.00  0.00    +0.203 C 
BRANCH  17  18
ATOM     18  C   UNL     1      10.013  -1.243  22.240  0.00  0.00    +0.260 C 
BRANCH  18  19
ATOM     19  O   UNL     1       9.076  -2.331  22.361  0.00  0.00    -0.461 OA
BRANCH  19  20
ATOM     20  C   UNL     1       8.745  -2.683  23.631  0.00  0.00    +0.324 C 
ATOM     21  O   UNL     1       9.094  -2.075  24.638  0.00  0.00    -0.249 OA
BRANCH  20  22
ATOM     22  C   UNL     1       7.822  -3.919  23.638  0.00  0.00    +0.163 C 
BRANCH  22  24
ATOM     23  C   UNL     1       5.738  -3.543  22.205  0.00  0.00    +0.009 C 
ATOM     24  C   UNL     1       7.146  -4.147  22.264  0.00  0.00    +0.010 C 
ATOM     25  C   UNL     1       7.050  -5.641  21.922  0.00  0.00    +0.009 C 
ENDBRANCH  22  24
BRANCH  22  26
ATOM     26  N   UNL     1       8.638  -5.106  24.008  0.00  0.00    -0.318 NA
ATOM     27  H   UNL     1       7.994  -5.887  24.167  0.00  0.00    +0.119 HD
ATOM     28  H   UNL     1       9.189  -5.389  23.197  0.00  0.00    +0.119 HD
ENDBRANCH  22  26
ENDBRANCH  20  22
ENDBRANCH  19  20
ENDBRANCH  18  19
ENDBRANCH  17  18
ENDBRANCH  16  17
ENDBRANCH   1  16
TORSDOF 9
ENDMDL
MODEL 6
REMARK VINA RESULT:      -6.0      1.804      3.008
REMARK  Name = 
REMARK  11 active torsions:
REMARK  status: ('A' for Active; 'I' for Inactive)
REMARK    1  A    between atoms: C_1  and  C_2
REMARK    2  A    between atoms: C_2  and  C_3
REMARK    3  A    between atoms: C_2  and  C_4
REMARK    4  A    between atoms: C_4  and  C_6
REMARK    5  A    between atoms: C_4  and  N_24
REMARK    6  A    between atoms: C_6  and  O_8
REMARK    7  A    between atoms: O_8  and  C_9
REMARK    8  A    between atoms: C_9  and  C_10
REMARK    9  A    between atoms: C_10  and  O_11
REMARK   10  A    between atoms: O_11  and  C_12
REMARK   11  A    between atoms: C_12  and  N_13
REMARK                            x       y       z     vdW  Elec       q    Type
REMARK                         _______ _______ _______ _____ _____    ______ ____
ROOT
ATOM      1  C   UNL     1       7.552  -4.643  23.515  0.00  0.00    +0.287 C 
ENDROOT
BRANCH   1   2
ATOM      2  N   UNL     1       7.550  -4.787  24.957  0.00  0.00    -0.291 N 
ATOM      3  C   UNL     1       6.651  -5.488  25.712  0.00  0.00    +0.171 A 
ATOM      4  N   UNL     1       5.564  -6.170  25.271  0.00  0.00    -0.196 NA
ATOM      5  C   UNL     1       4.887  -6.738  26.234  0.00  0.00    +0.195 A 
ATOM      6  N   UNL     1       3.758  -7.436  25.958  0.00  0.00    -0.329 N 
ATOM      7  H   UNL     1       3.501  -8.193  26.574  0.00  0.00    +0.145 HD
ATOM      8  H   UNL     1       3.648  -7.653  24.972  0.00  0.00    +0.145 HD
ATOM      9  N   UNL     1       5.248  -6.684  27.566  0.00  0.00    -0.293 N 
ATOM     10  H   UNL     1       4.678  -7.125  28.267  0.00  0.00    +0.172 HD
ATOM     11  C   UNL     1       6.344  -5.990  28.058  0.00  0.00    +0.280 A 
ATOM     12  O   UNL     1       6.605  -5.963  29.258  0.00  0.00    -0.265 OA
ATOM     13  C   UNL     1       7.090  -5.337  27.010  0.00  0.00    +0.172 A 
ATOM     14  N   UNL     1       8.202  -4.537  27.080  0.00  0.00    -0.229 NA
ATOM     15  C   UNL     1       8.446  -4.214  25.826  0.00  0.00    +0.203 A 
ENDBRANCH   1   2
BRANCH   1  16
ATOM     16  O   UNL     1       6.401  -3.885  23.138  0.00  0.00    -0.356 OA
BRANCH  16  17
ATOM     17  C   UNL     1       6.597  -2.479  23.291  0.00  0.00    +0.203 C 
BRANCH  17  18
ATOM     18  C   UNL     1       7.947  -2.106  22.671  0.00  0.00    +0.260 C 
BRANCH  18  19
ATOM     19  O   UNL     1       8.720  -1.282  23.566  0.00  0.00    -0.461 OA
BRANCH  19  20
ATOM     20  C   UNL     1      10.012  -1.070  23.202  0.00  0.00    +0.324 C 
ATOM     21  O   UNL     1      10.664  -1.814  22.476  0.00  0.00    -0.249 OA
BRANCH  20  22
ATOM     22  C   UNL     1      10.536   0.263  23.776  0.00  0.00    +0.163 C 
BRANCH  22  24
ATOM     23  C   UNL     1       9.657   1.418  21.672  0.00  0.00    +0.009 C 
ATOM     24  C   UNL     1       9.777   1.482  23.199  0.00  0.00    +0.010 C 
ATOM     25  C   UNL     1      10.461   2.804  23.578  0.00  0.00    +0.009 C 
ENDBRANCH  22  24
BRANCH  22  26
ATOM     26  N   UNL     1      10.386   0.221  25.255  0.00  0.00    -0.318 NA
ATOM     27  H   UNL     1       9.542  -0.321  25.466  0.00  0.00    +0.119 HD
ATOM     28  H   UNL     1      11.150  -0.332  25.646  0.00  0.00    +0.119 HD
ENDBRANCH  22  26
ENDBRANCH  20  22
ENDBRANCH  19  20
ENDBRANCH  18  19
ENDBRANCH  17  18
ENDBRANCH  16  17
ENDBRANCH   1  16
TORSDOF 9
ENDMDL
MODEL 7
REMARK VINA RESULT:      -5.9      1.917      3.026
REMARK  Name = 
REMARK  11 active torsions:
REMARK  status: ('A' for Active; 'I' for Inactive)
REMARK    1  A    between atoms: C_1  and  C_2
REMARK    2  A    between atoms: C_2  and  C_3
REMARK    3  A    between atoms: C_2  and  C_4
REMARK    4  A    between atoms: C_4  and  C_6
REMARK    5  A    between atoms: C_4  and  N_24
REMARK    6  A    between atoms: C_6  and  O_8
REMARK    7  A    between atoms: O_8  and  C_9
REMARK    8  A    between atoms: C_9  and  C_10
REMARK    9  A    between atoms: C_10  and  O_11
REMARK   10  A    between atoms: O_11  and  C_12
REMARK   11  A    between atoms: C_12  and  N_13
REMARK                            x       y       z     vdW  Elec       q    Type
REMARK                         _______ _______ _______ _____ _____    ______ ____
ROOT
ATOM      1  C   UNL     1       9.212  -4.040  24.684  0.00  0.00    +0.287 C 
ENDROOT
BRANCH   1   2
ATOM      2  N   UNL     1       7.985  -4.661  25.141  0.00  0.00    -0.291 N 
ATOM      3  C   UNL     1       7.029  -5.258  24.367  0.00  0.00    +0.171 A 
ATOM      4  N   UNL     1       7.019  -5.368  23.015  0.00  0.00    -0.196 NA
ATOM      5  C   UNL     1       5.964  -5.989  22.556  0.00  0.00    +0.195 A 
ATOM      6  N   UNL     1       5.793  -6.157  21.222  0.00  0.00    -0.329 N 
ATOM      7  H   UNL     1       5.267  -6.958  20.904  0.00  0.00    +0.145 HD
ATOM      8  H   UNL     1       6.634  -5.977  20.682  0.00  0.00    +0.145 HD
ATOM      9  N   UNL     1       4.968  -6.510  23.359  0.00  0.00    -0.293 N 
ATOM     10  H   UNL     1       4.167  -6.962  22.950  0.00  0.00    +0.172 HD
ATOM     11  C   UNL     1       4.935  -6.409  24.742  0.00  0.00    +0.280 A 
ATOM     12  O   UNL     1       4.012  -6.878  25.402  0.00  0.00    -0.265 OA
ATOM     13  C   UNL     1       6.083  -5.706  25.264  0.00  0.00    +0.172 A 
ATOM     14  N   UNL     1       6.406  -5.371  26.553  0.00  0.00    -0.229 NA
ATOM     15  C   UNL     1       7.553  -4.732  26.443  0.00  0.00    +0.203 A 
ENDBRANCH   1   2
BRANCH   1  16
ATOM     16  O   UNL     1       9.021  -2.625  24.666  0.00  0.00    -0.356 OA
BRANCH  16  17
ATOM     17  C   UNL     1       9.849  -1.972  23.703  0.00  0.00    +0.203 C 
BRANCH  17  18
ATOM     18  C   UNL     1       9.085  -1.897  22.377  0.00  0.00    +0.260 C 
BRANCH  18  19
ATOM     19  O   UNL     1       9.086  -0.555  21.852  0.00  0.00    -0.461 OA
BRANCH  19  20
ATOM     20  C   UNL     1       8.160   0.286  22.385  0.00  0.00    +0.324 C 
ATOM     21  O   UNL     1       7.050  -0.057  22.779  0.00  0.00    -0.249 OA
BRANCH  20  22
ATOM     22  C   UNL     1       8.713   1.723  22.483  0.00  0.00    +0.163 C 
BRANCH  22  24
ATOM     23  C   UNL     1       9.136   3.553  24.217  0.00  0.00    +0.009 C 
ATOM     24  C   UNL     1       9.221   2.054  23.907  0.00  0.00    +0.010 C 
ATOM     25  C   UNL     1      10.673   1.597  24.110  0.00  0.00    +0.009 C 
ENDBRANCH  22  24
BRANCH  22  26
ATOM     26  N   UNL     1       9.820   1.863  21.500  0.00  0.00    -0.318 NA
ATOM     27  H   UNL     1       9.675   2.742  20.994  0.00  0.00    +0.119 HD
ATOM     28  H   UNL     1      10.693   2.002  22.010  0.00  0.00    +0.119 HD
ENDBRANCH  22  26
ENDBRANCH  20  22
ENDBRANCH  19  20
ENDBRANCH  18  19
ENDBRANCH  17  18
ENDBRANCH  16  17
ENDBRANCH   1  16
TORSDOF 9
ENDMDL
MODEL 8
REMARK VINA RESULT:      -5.9      2.167      3.219
REMARK  Name = 
REMARK  11 active torsions:
REMARK  status: ('A' for Active; 'I' for Inactive)
REMARK    1  A    between atoms: C_1  and  C_2
REMARK    2  A    between atoms: C_2  and  C_3
REMARK    3  A    between atoms: C_2  and  C_4
REMARK    4  A    between atoms: C_4  and  C_6
REMARK    5  A    between atoms: C_4  and  N_24
REMARK    6  A    between atoms: C_6  and  O_8
REMARK    7  A    between atoms: O_8  and  C_9
REMARK    8  A    between atoms: C_9  and  C_10
REMARK    9  A    between atoms: C_10  and  O_11
REMARK   10  A    between atoms: O_11  and  C_12
REMARK   11  A    between atoms: C_12  and  N_13
REMARK                            x       y       z     vdW  Elec       q    Type
REMARK                         _______ _______ _______ _____ _____    ______ ____
ROOT
ATOM      1  C   UNL     1      10.213  -1.104  23.183  0.00  0.00    +0.287 C 
ENDROOT
BRANCH   1   2
ATOM      2  N   UNL     1       8.997  -1.890  23.225  0.00  0.00    -0.291 N 
ATOM      3  C   UNL     1       8.820  -3.097  23.842  0.00  0.00    +0.171 A 
ATOM      4  N   UNL     1       9.750  -3.818  24.518  0.00  0.00    -0.196 NA
ATOM      5  C   UNL     1       9.284  -4.942  24.995  0.00  0.00    +0.195 A 
ATOM      6  N   UNL     1      10.097  -5.788  25.674  0.00  0.00    -0.329 N 
ATOM      7  H   UNL     1       9.687  -6.385  26.377  0.00  0.00    +0.145 HD
ATOM      8  H   UNL     1      10.975  -5.364  25.957  0.00  0.00    +0.145 HD
ATOM      9  N   UNL     1       7.972  -5.351  24.859  0.00  0.00    -0.293 N 
ATOM     10  H   UNL     1       7.672  -6.237  25.231  0.00  0.00    +0.172 HD
ATOM     11  C   UNL     1       6.994  -4.650  24.167  0.00  0.00    +0.280 A 
ATOM     12  O   UNL     1       5.846  -5.075  24.064  0.00  0.00    -0.265 OA
ATOM     13  C   UNL     1       7.498  -3.417  23.613  0.00  0.00    +0.172 A 
ATOM     14  N   UNL     1       6.872  -2.469  22.846  0.00  0.00    -0.229 NA
ATOM     15  C   UNL     1       7.807  -1.567  22.621  0.00  0.00    +0.203 A 
ENDBRANCH   1   2
BRANCH   1  16
ATOM     16  O   UNL     1      10.304  -0.349  24.393  0.00  0.00    -0.356 OA
BRANCH  16  17
ATOM     17  C   UNL     1      10.578   1.032  24.157  0.00  0.00    +0.203 C 
BRANCH  17  18
ATOM     18  C   UNL     1      10.189   1.366  22.714  0.00  0.00    +0.260 C 
BRANCH  18  19
ATOM     19  O   UNL     1       9.691   2.714  22.608  0.00  0.00    -0.461 OA
BRANCH  19  20
ATOM     20  C   UNL     1       8.356   2.832  22.385  0.00  0.00    +0.324 C 
ATOM     21  O   UNL     1       7.663   1.986  21.828  0.00  0.00    -0.249 OA
BRANCH  20  22
ATOM     22  C   UNL     1       7.812   4.149  22.978  0.00  0.00    +0.163 C 
BRANCH  22  24
ATOM     23  C   UNL     1       8.476   4.911  25.326  0.00  0.00    +0.009 C 
ATOM     24  C   UNL     1       8.868   4.876  23.844  0.00  0.00    +0.010 C 
ATOM     25  C   UNL     1       9.095   6.318  23.367  0.00  0.00    +0.009 C 
ENDBRANCH  22  24
BRANCH  22  26
ATOM     26  N   UNL     1       7.385   5.023  21.853  0.00  0.00    -0.318 NA
ATOM     27  H   UNL     1       8.074   5.775  21.765  0.00  0.00    +0.119 HD
ATOM     28  H   UNL     1       7.467   4.497  20.981  0.00  0.00    +0.119 HD
ENDBRANCH  22  26
ENDBRANCH  20  22
ENDBRANCH  19  20
ENDBRANCH  18  19
ENDBRANCH  17  18
ENDBRANCH  16  17
ENDBRANCH   1  16
TORSDOF 9
ENDMDL
MODEL 9
REMARK VINA RESULT:      -5.8      2.099      2.602
REMARK  Name = 
REMARK  11 active torsions:
REMARK  status: ('A' for Active; 'I' for Inactive)
REMARK    1  A    between atoms: C_1  and  C_2
REMARK    2  A    between atoms: C_2  and  C_3
REMARK    3  A    between atoms: C_2  and  C_4
REMARK    4  A    between atoms: C_4  and  C_6
REMARK    5  A    between atoms: C_4  and  N_24
REMARK    6  A    between atoms: C_6  and  O_8
REMARK    7  A    between atoms: O_8  and  C_9
REMARK    8  A    between atoms: C_9  and  C_10
REMARK    9  A    between atoms: C_10  and  O_11
REMARK   10  A    between atoms: O_11  and  C_12
REMARK   11  A    between atoms: C_12  and  N_13
REMARK                            x       y       z     vdW  Elec       q    Type
REMARK                         _______ _______ _______ _____ _____    ______ ____
ROOT
ATOM      1  C   UNL     1       7.417  -1.084  25.279  0.00  0.00    +0.287 C 
ENDROOT
BRANCH   1   2
ATOM      2  N   UNL     1       6.935  -2.200  26.067  0.00  0.00    -0.291 N 
ATOM      3  C   UNL     1       7.544  -3.413  26.232  0.00  0.00    +0.171 A 
ATOM      4  N   UNL     1       8.707  -3.830  25.672  0.00  0.00    -0.196 NA
ATOM      5  C   UNL     1       9.035  -5.049  26.012  0.00  0.00    +0.195 A 
ATOM      6  N   UNL     1      10.158  -5.621  25.515  0.00  0.00    -0.329 N 
ATOM      7  H   UNL     1      10.624  -6.324  26.071  0.00  0.00    +0.145 HD
ATOM      8  H   UNL     1      10.790  -4.957  25.079  0.00  0.00    +0.145 HD
ATOM      9  N   UNL     1       8.295  -5.832  26.878  0.00  0.00    -0.293 N 
ATOM     10  H   UNL     1       8.586  -6.772  27.089  0.00  0.00    +0.172 HD
ATOM     11  C   UNL     1       7.097  -5.448  27.461  0.00  0.00    +0.280 A 
ATOM     12  O   UNL     1       6.474  -6.196  28.210  0.00  0.00    -0.265 OA
ATOM     13  C   UNL     1       6.709  -4.112  27.077  0.00  0.00    +0.172 A 
ATOM     14  N   UNL     1       5.593  -3.385  27.404  0.00  0.00    -0.229 NA
ATOM     15  C   UNL     1       5.756  -2.241  26.770  0.00  0.00    +0.203 A 
ENDBRANCH   1   2
BRANCH   1  16
ATOM     16  O   UNL     1       8.363  -0.355  26.062  0.00  0.00    -0.356 OA
BRANCH  16  17
ATOM     17  C   UNL     1       9.464   0.122  25.287  0.00  0.00    +0.203 C 
BRANCH  17  18
ATOM     18  C   UNL     1       9.560  -0.717  24.010  0.00  0.00    +0.260 C 
BRANCH  18  19
ATOM     19  O   UNL     1       9.747   0.118  22.851  0.00  0.00    -0.461 OA
BRANCH  19  20
ATOM     20  C   UNL     1       8.616   0.665  22.332  0.00  0.00    +0.324 C 
ATOM     21  O   UNL     1       7.543   0.081  22.224  0.00  0.00    -0.249 OA
BRANCH  20  22
ATOM     22  C   UNL     1       8.844   2.142  21.948  0.00  0.00    +0.163 C 
BRANCH  22  24
ATOM     23  C   UNL     1       7.306   4.133  22.403  0.00  0.00    +0.009 C 
ATOM     24  C   UNL     1       8.277   3.113  23.011  0.00  0.00    +0.010 C 
ATOM     25  C   UNL     1       9.396   3.877  23.734  0.00  0.00    +0.009 C 
ENDBRANCH  22  24
BRANCH  22  26
ATOM     26  N   UNL     1      10.306   2.359  21.786  0.00  0.00    -0.318 NA
ATOM     27  H   UNL     1      10.467   3.370  21.749  0.00  0.00    +0.119 HD
ATOM     28  H   UNL     1      10.778   2.057  22.640  0.00  0.00    +0.119 HD
ENDBRANCH  22  26
ENDBRANCH  20  22
ENDBRANCH  19  20
ENDBRANCH  18  19
ENDBRANCH  17  18
ENDBRANCH  16  17
ENDBRANCH   1  16
TORSDOF 9
ENDMDL
