MODEL 1
REMARK VINA RESULT:      -6.7      0.000      0.000
REMARK  Name = 
REMARK  5 active torsions:
REMARK  status: ('A' for Active; 'I' for Inactive)
REMARK    1  A    between atoms: C_1  and  C_2
REMARK    2  A    between atoms: N_4  and  C_10
REMARK    3  A    between atoms: C_13  and  N_20
REMARK    4  A    between atoms: C_15  and  C_18
REMARK    5  A    between atoms: C_18  and  O_19
REMARK                            x       y       z     vdW  Elec       q    Type
REMARK                         _______ _______ _______ _____ _____    ______ ____
ROOT
ATOM      1  C   UNL     1       8.998  -2.912  24.014  0.00  0.00    +0.226 C 
ATOM      2  O   UNL     1      10.091  -2.103  24.499  0.00  0.00    -0.349 OA
ATOM      3  C   UNL     1       9.984  -0.791  23.883  0.00  0.00    +0.178 C 
ATOM      4  C   UNL     1       8.932  -0.935  22.784  0.00  0.00    +0.230 C 
ATOM      5  C   UNL     1       7.994  -1.956  23.389  0.00  0.00    +0.091 C 
ENDROOT
BRANCH   1  14
ATOM      6  C   UNL     1       5.499  -3.853  27.432  0.00  0.00    +0.051 C 
ATOM      7  C   UNL     1       6.771  -4.163  26.708  0.00  0.00    +0.030 A 
ATOM      8  C   UNL     1       7.544  -5.346  27.158  0.00  0.00    +0.257 A 
ATOM      9  O   UNL     1       7.184  -6.033  28.101  0.00  0.00    -0.267 OA
ATOM     10  N   UNL     1       8.677  -5.617  26.451  0.00  0.00    -0.275 N 
ATOM     11  H   UNL     1       9.209  -6.421  26.737  0.00  0.00    +0.173 HD
ATOM     12  C   UNL     1       9.171  -4.889  25.402  0.00  0.00    +0.331 A 
ATOM     13  O   UNL     1      10.193  -5.246  24.820  0.00  0.00    -0.246 OA
ATOM     14  N   UNL     1       8.448  -3.751  25.067  0.00  0.00    -0.274 N 
ATOM     15  C   UNL     1       7.260  -3.437  25.697  0.00  0.00    +0.101 A 
ENDBRANCH   1  14
BRANCH   4  16
ATOM     16  N   UNL     1       8.258   0.319  22.456  0.00  0.00    +0.125 NA
ATOM     17  N   UNL     1       8.984   1.213  21.991  0.00  0.00    +0.219 NA
ATOM     18  N   UNL     1       9.731   2.078  21.522  0.00  0.00    +0.104 NA
ATOM     19  H   UNL     1      10.706   1.890  21.767  0.00  0.00    +0.288 HD
ENDBRANCH   4  16
BRANCH   3  20
ATOM     20  C   UNL     1       9.639   0.200  25.003  0.00  0.00    +0.189 C 
BRANCH  20  21
ATOM     21  O   UNL     1      10.161   1.493  24.673  0.00  0.00    -0.392 OA
ATOM     22  H   UNL     1      11.115   1.371  24.507  0.00  0.00    +0.210 HD
ENDBRANCH  20  21
ENDBRANCH   3  20
TORSDOF 4
ENDMDL
MODEL 2
REMARK VINA RESULT:      -6.4      2.882      3.028
REMARK  Name = 
REMARK  5 active torsions:
REMARK  status: ('A' for Active; 'I' for Inactive)
REMARK    1  A    between atoms: C_1  and  C_2
REMARK    2  A    between atoms: N_4  and  C_10
REMARK    3  A    between atoms: C_13  and  N_20
REMARK    4  A    between atoms: C_15  and  C_18
REMARK    5  A    between atoms: C_18  and  O_19
REMARK                            x       y       z     vdW  Elec       q    Type
REMARK                         _______ _______ _______ _____ _____    ______ ____
ROOT
ATOM      1  C   UNL     1       7.568  -3.729  22.584  0.00  0.00    +0.226 C 
ATOM      2  O   UNL     1       8.784  -3.671  23.360  0.00  0.00    -0.349 OA
ATOM      3  C   UNL     1       9.199  -2.280  23.437  0.00  0.00    +0.178 C 
ATOM      4  C   UNL     1       8.327  -1.532  22.430  0.00  0.00    +0.230 C 
ATOM      5  C   UNL     1       7.031  -2.308  22.511  0.00  0.00    +0.091 C 
ENDROOT
BRANCH   1  14
ATOM      6  C   UNL     1       5.491  -6.025  26.486  0.00  0.00    +0.051 C 
ATOM      7  C   UNL     1       5.670  -5.791  25.019  0.00  0.00    +0.030 A 
ATOM      8  C   UNL     1       4.906  -6.657  24.089  0.00  0.00    +0.257 A 
ATOM      9  O   UNL     1       4.177  -7.551  24.490  0.00  0.00    -0.267 OA
ATOM     10  N   UNL     1       5.068  -6.389  22.763  0.00  0.00    -0.275 N 
ATOM     11  H   UNL     1       4.551  -6.962  22.117  0.00  0.00    +0.173 HD
ATOM     12  C   UNL     1       5.882  -5.430  22.223  0.00  0.00    +0.331 A 
ATOM     13  O   UNL     1       5.928  -5.261  21.007  0.00  0.00    -0.246 OA
ATOM     14  N   UNL     1       6.630  -4.694  23.134  0.00  0.00    -0.274 N 
ATOM     15  C   UNL     1       6.482  -4.866  24.497  0.00  0.00    +0.101 A 
ENDBRANCH   1  14
BRANCH   4  16
ATOM     16  N   UNL     1       8.153  -0.117  22.749  0.00  0.00    +0.125 NA
ATOM     17  N   UNL     1       8.925   0.663  22.170  0.00  0.00    +0.219 NA
ATOM     18  N   UNL     1       9.702   1.414  21.571  0.00  0.00    +0.104 NA
ATOM     19  H   UNL     1      10.524   0.901  21.242  0.00  0.00    +0.288 HD
ENDBRANCH   4  16
BRANCH   3  20
ATOM     20  C   UNL     1       9.040  -1.847  24.900  0.00  0.00    +0.189 C 
BRANCH  20  21
ATOM     21  O   UNL     1       9.668  -0.574  25.092  0.00  0.00    -0.392 OA
ATOM     22  H   UNL     1       9.592  -0.098  24.244  0.00  0.00    +0.210 HD
ENDBRANCH  20  21
ENDBRANCH   3  20
TORSDOF 4
ENDMDL
MODEL 3
REMARK VINA RESULT:      -6.3      3.017      6.116
REMARK  Name = 
REMARK  5 active torsions:
REMARK  status: ('A' for Active; 'I' for Inactive)
REMARK    1  A    between atoms: C_1  and  C_2
REMARK    2  A    between atoms: N_4  and  C_10
REMARK    3  A    between atoms: C_13  and  N_20
REMARK    4  A    between atoms: C_15  and  C_18
REMARK    5  A    between atoms: C_18  and  O_19
REMARK                            x       y       z     vdW  Elec       q    Type
REMARK                         _______ _______ _______ _____ _____    ______ ____
ROOT
ATOM      1  C   UNL     1       7.203  -2.353  24.704  0.00  0.00    +0.226 C 
ATOM      2  O   UNL     1       7.778  -3.668  24.547  0.00  0.00    -0.349 OA
ATOM      3  C   UNL     1       6.830  -4.485  23.807  0.00  0.00    +0.178 C 
ATOM      4  C   UNL     1       5.533  -3.679  23.767  0.00  0.00    +0.230 C 
ATOM      5  C   UNL     1       6.054  -2.260  23.713  0.00  0.00    +0.091 C 
ENDROOT
BRANCH   1  14
ATOM      6  C   UNL     1       9.805   0.789  21.846  0.00  0.00    +0.051 C 
ATOM      7  C   UNL     1       9.451   0.165  23.159  0.00  0.00    +0.030 A 
ATOM      8  C   UNL     1      10.235   0.580  24.347  0.00  0.00    +0.257 A 
ATOM      9  O   UNL     1      11.157   1.377  24.267  0.00  0.00    -0.267 OA
ATOM     10  N   UNL     1       9.861   0.017  25.530  0.00  0.00    -0.275 N 
ATOM     11  H   UNL     1      10.376   0.293  26.348  0.00  0.00    +0.173 HD
ATOM     12  C   UNL     1       8.864  -0.904  25.709  0.00  0.00    +0.331 A 
ATOM     13  O   UNL     1       8.595  -1.324  26.832  0.00  0.00    -0.246 OA
ATOM     14  N   UNL     1       8.207  -1.312  24.554  0.00  0.00    -0.274 N 
ATOM     15  C   UNL     1       8.489  -0.749  23.325  0.00  0.00    +0.101 A 
ENDBRANCH   1  14
BRANCH   4  16
ATOM     16  N   UNL     1       4.679  -4.006  22.628  0.00  0.00    +0.125 NA
ATOM     17  N   UNL     1       4.180  -5.143  22.640  0.00  0.00    +0.219 NA
ATOM     18  N   UNL     1       3.692  -6.277  22.686  0.00  0.00    +0.104 NA
ATOM     19  H   UNL     1       4.232  -6.882  23.309  0.00  0.00    +0.288 HD
ENDBRANCH   4  16
BRANCH   3  20
ATOM     20  C   UNL     1       7.467  -4.780  22.443  0.00  0.00    +0.189 C 
BRANCH  20  21
ATOM     21  O   UNL     1       6.852  -5.940  21.870  0.00  0.00    -0.392 OA
ATOM     22  H   UNL     1       7.324  -6.712  22.237  0.00  0.00    +0.210 HD
ENDBRANCH  20  21
ENDBRANCH   3  20
TORSDOF 4
ENDMDL
MODEL 4
REMARK VINA RESULT:      -6.3      2.653      6.326
REMARK  Name = 
REMARK  5 active torsions:
REMARK  status: ('A' for Active; 'I' for Inactive)
REMARK    1  A    between atoms: C_1  and  C_2
REMARK    2  A    between atoms: N_4  and  C_10
REMARK    3  A    between atoms: C_13  and  N_20
REMARK    4  A    between atoms: C_15  and  C_18
REMARK    5  A    between atoms: C_18  and  O_19
REMARK                            x       y       z     vdW  Elec       q    Type
REMARK                         _______ _______ _______ _____ _____    ______ ____
ROOT
ATOM      1  C   UNL     1       8.517  -3.049  23.254  0.00  0.00    +0.226 C 
ATOM      2  O   UNL     1       7.702  -3.762  22.300  0.00  0.00    -0.349 OA
ATOM      3  C   UNL     1       6.940  -4.766  23.024  0.00  0.00    +0.178 C 
ATOM      4  C   UNL     1       7.545  -4.812  24.426  0.00  0.00    +0.230 C 
ATOM      5  C   UNL     1       7.956  -3.371  24.631  0.00  0.00    +0.091 C 
ENDROOT
BRANCH   1  14
ATOM      6  C   UNL     1       6.384   1.449  23.112  0.00  0.00    +0.051 C 
ATOM      7  C   UNL     1       7.521   0.507  22.874  0.00  0.00    +0.030 A 
ATOM      8  C   UNL     1       8.732   1.048  22.212  0.00  0.00    +0.257 A 
ATOM      9  O   UNL     1       8.802   2.210  21.843  0.00  0.00    -0.267 OA
ATOM     10  N   UNL     1       9.758   0.168  22.044  0.00  0.00    -0.275 N 
ATOM     11  H   UNL     1      10.592   0.521  21.604  0.00  0.00    +0.173 HD
ATOM     12  C   UNL     1       9.758  -1.154  22.399  0.00  0.00    +0.331 A 
ATOM     13  O   UNL     1      10.757  -1.849  22.223  0.00  0.00    -0.246 OA
ATOM     14  N   UNL     1       8.574  -1.629  22.950  0.00  0.00    -0.274 N 
ATOM     15  C   UNL     1       7.508  -0.789  23.204  0.00  0.00    +0.101 A 
ENDBRANCH   1  14
BRANCH   4  16
ATOM     16  N   UNL     1       6.611  -5.278  25.449  0.00  0.00    +0.125 NA
ATOM     17  N   UNL     1       7.123  -5.636  26.520  0.00  0.00    +0.219 NA
ATOM     18  N   UNL     1       7.663  -5.977  27.579  0.00  0.00    +0.104 NA
ATOM     19  H   UNL     1       8.652  -6.194  27.430  0.00  0.00    +0.288 HD
ENDBRANCH   4  16
BRANCH   3  20
ATOM     20  C   UNL     1       5.466  -4.344  22.953  0.00  0.00    +0.189 C 
BRANCH  20  21
ATOM     21  O   UNL     1       5.283  -3.432  21.864  0.00  0.00    -0.392 OA
ATOM     22  H   UNL     1       5.537  -2.550  22.197  0.00  0.00    +0.210 HD
ENDBRANCH  20  21
ENDBRANCH   3  20
TORSDOF 4
ENDMDL
MODEL 5
REMARK VINA RESULT:      -6.1      3.117      6.498
REMARK  Name = 
REMARK  5 active torsions:
REMARK  status: ('A' for Active; 'I' for Inactive)
REMARK    1  A    between atoms: C_1  and  C_2
REMARK    2  A    between atoms: N_4  and  C_10
REMARK    3  A    between atoms: C_13  and  N_20
REMARK    4  A    between atoms: C_15  and  C_18
REMARK    5  A    between atoms: C_18  and  O_19
REMARK                            x       y       z     vdW  Elec       q    Type
REMARK                         _______ _______ _______ _____ _____    ______ ____
ROOT
ATOM      1  C   UNL     1       7.868  -3.293  23.973  0.00  0.00    +0.226 C 
ATOM      2  O   UNL     1       8.201  -4.402  23.111  0.00  0.00    -0.349 OA
ATOM      3  C   UNL     1       7.051  -5.290  23.060  0.00  0.00    +0.178 C 
ATOM      4  C   UNL     1       6.106  -4.807  24.158  0.00  0.00    +0.230 C 
ATOM      5  C   UNL     1       6.357  -3.315  24.144  0.00  0.00    +0.091 C 
ENDROOT
BRANCH   1  14
ATOM      6  C   UNL     1       7.161   1.326  22.249  0.00  0.00    +0.051 C 
ATOM      7  C   UNL     1       8.022   0.158  22.615  0.00  0.00    +0.030 A 
ATOM      8  C   UNL     1       9.476   0.270  22.350  0.00  0.00    +0.257 A 
ATOM      9  O   UNL     1       9.964   1.260  21.826  0.00  0.00    -0.267 OA
ATOM     10  N   UNL     1      10.231  -0.798  22.729  0.00  0.00    -0.275 N 
ATOM     11  H   UNL     1      11.222  -0.737  22.565  0.00  0.00    +0.173 HD
ATOM     12  C   UNL     1       9.770  -1.957  23.295  0.00  0.00    +0.331 A 
ATOM     13  O   UNL     1      10.551  -2.847  23.622  0.00  0.00    -0.246 OA
ATOM     14  N   UNL     1       8.392  -2.040  23.456  0.00  0.00    -0.274 N 
ATOM     15  C   UNL     1       7.563  -0.979  23.149  0.00  0.00    +0.101 A 
ENDBRANCH   1  14
BRANCH   4  16
ATOM     16  N   UNL     1       4.706  -5.142  23.911  0.00  0.00    +0.125 NA
ATOM     17  N   UNL     1       4.422  -6.348  23.981  0.00  0.00    +0.219 NA
ATOM     18  N   UNL     1       4.171  -7.555  24.066  0.00  0.00    +0.104 NA
ATOM     19  H   UNL     1       5.020  -8.114  23.952  0.00  0.00    +0.288 HD
ENDBRANCH   4  16
BRANCH   3  20
ATOM     20  C   UNL     1       6.496  -5.219  21.631  0.00  0.00    +0.189 C 
BRANCH  20  21
ATOM     21  O   UNL     1       5.668  -6.362  21.383  0.00  0.00    -0.392 OA
ATOM     22  H   UNL     1       5.285  -6.237  20.494  0.00  0.00    +0.210 HD
ENDBRANCH  20  21
ENDBRANCH   3  20
TORSDOF 4
ENDMDL
MODEL 6
REMARK VINA RESULT:      -6.1      2.208      2.630
REMARK  Name = 
REMARK  5 active torsions:
REMARK  status: ('A' for Active; 'I' for Inactive)
REMARK    1  A    between atoms: C_1  and  C_2
REMARK    2  A    between atoms: N_4  and  C_10
REMARK    3  A    between atoms: C_13  and  N_20
REMARK    4  A    between atoms: C_15  and  C_18
REMARK    5  A    between atoms: C_18  and  O_19
REMARK                            x       y       z     vdW  Elec       q    Type
REMARK                         _______ _______ _______ _____ _____    ______ ____
ROOT
ATOM      1  C   UNL     1       9.807  -1.957  24.023  0.00  0.00    +0.226 C 
ATOM      2  O   UNL     1       9.542  -1.257  25.258  0.00  0.00    -0.349 OA
ATOM      3  C   UNL     1       9.862   0.146  25.054  0.00  0.00    +0.178 C 
ATOM      4  C   UNL     1      10.600   0.212  23.719  0.00  0.00    +0.230 C 
ATOM      5  C   UNL     1       9.927  -0.896  22.940  0.00  0.00    +0.091 C 
ENDROOT
BRANCH   1  14
ATOM      6  C   UNL     1       5.464  -3.337  22.012  0.00  0.00    +0.051 C 
ATOM      7  C   UNL     1       6.707  -3.595  22.804  0.00  0.00    +0.030 A 
ATOM      8  C   UNL     1       6.862  -4.937  23.416  0.00  0.00    +0.257 A 
ATOM      9  O   UNL     1       6.003  -5.798  23.311  0.00  0.00    -0.267 OA
ATOM     10  N   UNL     1       8.023  -5.146  24.098  0.00  0.00    -0.275 N 
ATOM     11  H   UNL     1       8.149  -6.053  24.514  0.00  0.00    +0.173 HD
ATOM     12  C   UNL     1       9.025  -4.233  24.291  0.00  0.00    +0.331 A 
ATOM     13  O   UNL     1      10.044  -4.544  24.904  0.00  0.00    -0.246 OA
ATOM     14  N   UNL     1       8.799  -2.970  23.758  0.00  0.00    -0.274 N 
ATOM     15  C   UNL     1       7.674  -2.694  23.006  0.00  0.00    +0.101 A 
ENDBRANCH   1  14
BRANCH   4  16
ATOM     16  N   UNL     1      10.490   1.509  23.056  0.00  0.00    +0.125 NA
ATOM     17  N   UNL     1       9.723   1.550  22.081  0.00  0.00    +0.219 NA
ATOM     18  N   UNL     1       8.945   1.561  21.121  0.00  0.00    +0.104 NA
ATOM     19  H   UNL     1       8.794   0.614  20.763  0.00  0.00    +0.288 HD
ENDBRANCH   4  16
BRANCH   3  20
ATOM     20  C   UNL     1       8.538   0.918  25.117  0.00  0.00    +0.189 C 
BRANCH  20  21
ATOM     21  O   UNL     1       8.807   2.325  25.154  0.00  0.00    -0.392 OA
ATOM     22  H   UNL     1       8.176   2.742  24.536  0.00  0.00    +0.210 HD
ENDBRANCH  20  21
ENDBRANCH   3  20
TORSDOF 4
ENDMDL
MODEL 7
REMARK VINA RESULT:      -6.1      2.279      6.547
REMARK  Name = 
REMARK  5 active torsions:
REMARK  status: ('A' for Active; 'I' for Inactive)
REMARK    1  A    between atoms: C_1  and  C_2
REMARK    2  A    between atoms: N_4  and  C_10
REMARK    3  A    between atoms: C_13  and  N_20
REMARK    4  A    between atoms: C_15  and  C_18
REMARK    5  A    between atoms: C_18  and  O_19
REMARK                            x       y       z     vdW  Elec       q    Type
REMARK                         _______ _______ _______ _____ _____    ______ ____
ROOT
ATOM      1  C   UNL     1       7.363  -4.156  24.561  0.00  0.00    +0.226 C 
ATOM      2  O   UNL     1       6.025  -3.798  24.967  0.00  0.00    -0.349 OA
ATOM      3  C   UNL     1       5.745  -4.468  26.225  0.00  0.00    +0.178 C 
ATOM      4  C   UNL     1       6.878  -5.474  26.419  0.00  0.00    +0.230 C 
ATOM      5  C   UNL     1       8.044  -4.749  25.784  0.00  0.00    +0.091 C 
ENDROOT
BRANCH   1  14
ATOM      6  C   UNL     1      10.156  -0.061  25.047  0.00  0.00    +0.051 C 
ATOM      7  C   UNL     1       9.382  -1.057  24.242  0.00  0.00    +0.030 A 
ATOM      8  C   UNL     1       9.261  -0.814  22.785  0.00  0.00    +0.257 A 
ATOM      9  O   UNL     1       9.744   0.172  22.251  0.00  0.00    -0.267 OA
ATOM     10  N   UNL     1       8.580  -1.761  22.081  0.00  0.00    -0.275 N 
ATOM     11  H   UNL     1       8.494  -1.617  21.089  0.00  0.00    +0.173 HD
ATOM     12  C   UNL     1       7.982  -2.880  22.597  0.00  0.00    +0.331 A 
ATOM     13  O   UNL     1       7.415  -3.683  21.859  0.00  0.00    -0.246 OA
ATOM     14  N   UNL     1       8.063  -3.023  23.977  0.00  0.00    -0.274 N 
ATOM     15  C   UNL     1       8.783  -2.137  24.754  0.00  0.00    +0.101 A 
ENDBRANCH   1  14
BRANCH   4  16
ATOM     16  N   UNL     1       7.125  -5.812  27.819  0.00  0.00    +0.125 NA
ATOM     17  N   UNL     1       6.373  -6.672  28.304  0.00  0.00    +0.219 NA
ATOM     18  N   UNL     1       5.614  -7.537  28.754  0.00  0.00    +0.104 NA
ATOM     19  H   UNL     1       4.761  -7.603  28.192  0.00  0.00    +0.288 HD
ENDBRANCH   4  16
BRANCH   3  20
ATOM     20  C   UNL     1       5.639  -3.376  27.298  0.00  0.00    +0.189 C 
BRANCH  20  21
ATOM     21  O   UNL     1       4.975  -3.904  28.452  0.00  0.00    -0.392 OA
ATOM     22  H   UNL     1       4.597  -4.763  28.184  0.00  0.00    +0.210 HD
ENDBRANCH  20  21
ENDBRANCH   3  20
TORSDOF 4
ENDMDL
MODEL 8
REMARK VINA RESULT:      -6.1      2.192      2.506
REMARK  Name = 
REMARK  5 active torsions:
REMARK  status: ('A' for Active; 'I' for Inactive)
REMARK    1  A    between atoms: C_1  and  C_2
REMARK    2  A    between atoms: N_4  and  C_10
REMARK    3  A    between atoms: C_13  and  N_20
REMARK    4  A    between atoms: C_15  and  C_18
REMARK    5  A    between atoms: C_18  and  O_19
REMARK                            x       y       z     vdW  Elec       q    Type
REMARK                         _______ _______ _______ _____ _____    ______ ____
ROOT
ATOM      1  C   UNL     1       7.565  -2.591  22.690  0.00  0.00    +0.226 C 
ATOM      2  O   UNL     1       9.003  -2.619  22.815  0.00  0.00    -0.349 OA
ATOM      3  C   UNL     1       9.482  -1.248  22.780  0.00  0.00    +0.178 C 
ATOM      4  C   UNL     1       8.286  -0.403  22.345  0.00  0.00    +0.230 C 
ATOM      5  C   UNL     1       7.134  -1.159  22.968  0.00  0.00    +0.091 C 
ENDROOT
BRANCH   1  14
ATOM      6  C   UNL     1       7.454  -5.233  26.911  0.00  0.00    +0.051 C 
ATOM      7  C   UNL     1       6.921  -4.846  25.568  0.00  0.00    +0.030 A 
ATOM      8  C   UNL     1       5.737  -5.582  25.063  0.00  0.00    +0.257 A 
ATOM      9  O   UNL     1       5.224  -6.492  25.696  0.00  0.00    -0.267 OA
ATOM     10  N   UNL     1       5.259  -5.177  23.853  0.00  0.00    -0.275 N 
ATOM     11  H   UNL     1       4.451  -5.660  23.499  0.00  0.00    +0.173 HD
ATOM     12  C   UNL     1       5.785  -4.190  23.064  0.00  0.00    +0.331 A 
ATOM     13  O   UNL     1       5.251  -3.891  21.998  0.00  0.00    -0.246 OA
ATOM     14  N   UNL     1       6.936  -3.581  23.549  0.00  0.00    -0.274 N 
ATOM     15  C   UNL     1       7.451  -3.895  24.792  0.00  0.00    +0.101 A 
ENDBRANCH   1  14
BRANCH   4  16
ATOM     16  N   UNL     1       8.357   0.984  22.800  0.00  0.00    +0.125 NA
ATOM     17  N   UNL     1       9.238   1.678  22.270  0.00  0.00    +0.219 NA
ATOM     18  N   UNL     1      10.119   2.346  21.717  0.00  0.00    +0.104 NA
ATOM     19  H   UNL     1      10.838   1.739  21.314  0.00  0.00    +0.288 HD
ENDBRANCH   4  16
BRANCH   3  20
ATOM     20  C   UNL     1      10.041  -0.935  24.175  0.00  0.00    +0.189 C 
BRANCH  20  21
ATOM     21  O   UNL     1      10.854   0.243  24.110  0.00  0.00    -0.392 OA
ATOM     22  H   UNL     1      11.478   0.188  24.858  0.00  0.00    +0.210 HD
ENDBRANCH  20  21
ENDBRANCH   3  20
TORSDOF 4
ENDMDL
MODEL 9
REMARK VINA RESULT:      -6.1      2.184      6.411
REMARK  Name = 
REMARK  5 active torsions:
REMARK  status: ('A' for Active; 'I' for Inactive)
REMARK    1  A    between atoms: C_1  and  C_2
REMARK    2  A    between atoms: N_4  and  C_10
REMARK    3  A    between atoms: C_13  and  N_20
REMARK    4  A    between atoms: C_15  and  C_18
REMARK    5  A    between atoms: C_18  and  O_19
REMARK                            x       y       z     vdW  Elec       q    Type
REMARK                         _______ _______ _______ _____ _____    ______ ____
ROOT
ATOM      1  C   UNL     1       8.119  -2.764  26.400  0.00  0.00    +0.226 C 
ATOM      2  O   UNL     1       9.052  -3.819  26.715  0.00  0.00    -0.349 OA
ATOM      3  C   UNL     1       8.361  -5.088  26.561  0.00  0.00    +0.178 C 
ATOM      4  C   UNL     1       6.882  -4.738  26.408  0.00  0.00    +0.230 C 
ATOM      5  C   UNL     1       6.954  -3.417  25.674  0.00  0.00    +0.091 C 
ENDROOT
BRANCH   1  14
ATOM      6  C   UNL     1      10.205  -1.017  22.228  0.00  0.00    +0.051 C 
ATOM      7  C   UNL     1       9.772  -0.890  23.654  0.00  0.00    +0.030 A 
ATOM      8  C   UNL     1      10.097   0.374  24.359  0.00  0.00    +0.257 A 
ATOM      9  O   UNL     1      10.721   1.273  23.818  0.00  0.00    -0.267 OA
ATOM     10  N   UNL     1       9.655   0.465  25.644  0.00  0.00    -0.275 N 
ATOM     11  H   UNL     1       9.859   1.319  26.136  0.00  0.00    +0.173 HD
ATOM     12  C   UNL     1       8.977  -0.500  26.339  0.00  0.00    +0.331 A 
ATOM     13  O   UNL     1       8.602  -0.294  27.492  0.00  0.00    -0.246 OA
ATOM     14  N   UNL     1       8.760  -1.691  25.657  0.00  0.00    -0.274 N 
ATOM     15  C   UNL     1       9.127  -1.844  24.334  0.00  0.00    +0.101 A 
ENDBRANCH   1  14
BRANCH   4  16
ATOM     16  N   UNL     1       6.117  -5.745  25.677  0.00  0.00    +0.125 NA
ATOM     17  N   UNL     1       5.478  -6.547  26.376  0.00  0.00    +0.219 NA
ATOM     18  N   UNL     1       4.846  -7.323  27.100  0.00  0.00    +0.104 NA
ATOM     19  H   UNL     1       5.236  -7.340  28.046  0.00  0.00    +0.288 HD
ENDBRANCH   4  16
BRANCH   3  20
ATOM     20  C   UNL     1       8.999  -5.800  25.360  0.00  0.00    +0.189 C 
BRANCH  20  21
ATOM     21  O   UNL     1      10.412  -5.567  25.363  0.00  0.00    -0.392 OA
ATOM     22  H   UNL     1      10.834  -6.427  25.175  0.00  0.00    +0.210 HD
ENDBRANCH  20  21
ENDBRANCH   3  20
TORSDOF 4
ENDMDL
