MODEL 1
REMARK VINA RESULT:      -6.3      0.000      0.000
REMARK  Name = 
REMARK  21 active torsions:
REMARK  status: ('A' for Active; 'I' for Inactive)
REMARK    1  A    between atoms: C_1  and  C_2
REMARK    2  A    between atoms: C_2  and  C_3
REMARK    3  A    between atoms: C_2  and  C_4
REMARK    4  A    between atoms: C_2  and  C_5
REMARK    5  A    between atoms: C_5  and  C_6
REMARK    6  A    between atoms: C_5  and  N_47
REMARK    7  A    between atoms: C_10  and  O_33
REMARK    8  A    between atoms: C_13  and  C_15
REMARK    9  A    between atoms: N_17  and  C_18
REMARK   10  A    between atoms: C_18  and  C_24
REMARK   11  A    between atoms: C_20  and  C_22
REMARK   12  A    between atoms: N_26  and  S_27
REMARK   13  A    between atoms: S_27  and  C_30
REMARK   14  A    between atoms: O_33  and  C_34
REMARK   15  A    between atoms: C_37  and  O_45
REMARK   16  A    between atoms: O_45  and  C_46
REMARK   17  A    between atoms: C_48  and  O_50
REMARK   18  A    between atoms: O_50  and  C_51
REMARK   19  A    between atoms: C_51  and  C_52
REMARK   20  A    between atoms: C_51  and  C_53
REMARK   21  A    between atoms: C_51  and  C_54
REMARK                            x       y       z     vdW  Elec       q    Type
REMARK                         _______ _______ _______ _____ _____    ______ ____
ROOT
ATOM      1  C   UNL     1       6.480   0.851  26.461  0.00  0.00    +0.237 C 
ATOM      2  N   UNL     1       7.055   0.124  25.419  0.00  0.00    -0.285 N 
ATOM      3  C   UNL     1       6.375  -0.576  24.315  0.00  0.00    +0.166 C 
ATOM      4  C   UNL     1       7.295  -0.371  23.091  0.00  0.00    +0.078 C 
ATOM      5  C   UNL     1       8.399   0.603  23.530  0.00  0.00    +0.195 C 
ATOM      6  C   UNL     1       8.434   0.420  25.045  0.00  0.00    +0.153 C 
ATOM      7  O   UNL     1       7.195   1.509  27.217  0.00  0.00    -0.274 OA
ENDROOT
BRANCH   3   8
ATOM      8  C   UNL     1       6.122  -2.108  24.472  0.00  0.00    +0.234 C 
ATOM      9  N   UNL     1       7.121  -2.862  25.040  0.00  0.00    -0.299 N 
ATOM     10  H   UNL     1       7.956  -2.369  25.338  0.00  0.00    +0.150 HD
ATOM     11  O   UNL     1       5.055  -2.619  24.133  0.00  0.00    -0.274 OA
BRANCH   9  12
ATOM     12  C   UNL     1       7.160  -4.337  25.022  0.00  0.00    +0.119 C 
ATOM     13  C   UNL     1       7.286  -5.156  23.724  0.00  0.00    +0.046 C 
ATOM     14  C   UNL     1       8.510  -4.893  24.544  0.00  0.00    +0.046 C 
BRANCH  12  15
ATOM     15  C   UNL     1       6.412  -5.140  26.132  0.00  0.00    +0.256 C 
ATOM     16  N   UNL     1       5.052  -4.827  26.331  0.00  0.00    -0.188 N 
ATOM     17  H   UNL     1       4.677  -4.082  25.758  0.00  0.00    +0.176 HD
ATOM     18  O   UNL     1       6.999  -6.024  26.747  0.00  0.00    -0.272 OA
BRANCH  16  19
ATOM     19  S   UNL     1       3.935  -5.933  26.938  0.00  0.00    +0.048 S 
ATOM     20  O   UNL     1       4.069  -6.025  28.380  0.00  0.00    -0.155 OA
ATOM     21  O   UNL     1       4.019  -7.106  26.109  0.00  0.00    -0.155 OA
BRANCH  19  22
ATOM     22  C   UNL     1       2.197  -5.356  26.676  0.00  0.00    +0.151 C 
ATOM     23  C   UNL     1       1.554  -6.094  25.527  0.00  0.00    +0.030 C 
ATOM     24  C   UNL     1       1.608  -4.609  25.490  0.00  0.00    +0.030 C 
ENDBRANCH  19  22
ENDBRANCH  16  19
ENDBRANCH  12  15
BRANCH  13  25
ATOM     25  C   UNL     1       7.239  -4.614  22.363  0.00  0.00    -0.028 C 
ATOM     26  C   UNL     1       6.286  -4.854  21.455  0.00  0.00    +0.004 C 
ENDBRANCH  13  25
ENDBRANCH   9  12
ENDBRANCH   3   8
BRANCH   1  27
ATOM     27  C   UNL     1       4.946   0.753  26.684  0.00  0.00    +0.168 C 
BRANCH  27  29
ATOM     28  C   UNL     1       2.603   1.749  26.647  0.00  0.00    +0.013 C 
ATOM     29  C   UNL     1       4.093   2.055  26.409  0.00  0.00    -0.011 C 
ATOM     30  C   UNL     1       4.395   3.243  27.375  0.00  0.00    +0.013 C 
ATOM     31  C   UNL     1       4.385   2.589  24.993  0.00  0.00    +0.013 C 
ENDBRANCH  27  29
BRANCH  27  32
ATOM     32  N   UNL     1       4.775   0.324  28.067  0.00  0.00    -0.269 N 
ATOM     33  H   UNL     1       4.248   0.896  28.713  0.00  0.00    +0.153 HD
ATOM     34  C   UNL     1       4.602  -1.011  28.235  0.00  0.00    +0.401 C 
ATOM     35  O   UNL     1       5.042  -1.803  27.420  0.00  0.00    -0.226 OA
BRANCH  34  36
ATOM     36  O   UNL     1       3.901  -1.274  29.348  0.00  0.00    -0.445 OA
BRANCH  36  37
ATOM     37  C   UNL     1       2.498  -1.640  29.235  0.00  0.00    +0.107 C 
ATOM     38  C   UNL     1       1.970  -1.704  27.815  0.00  0.00    +0.055 C 
ATOM     39  C   UNL     1       1.770  -0.525  29.998  0.00  0.00    +0.055 C 
ATOM     40  C   UNL     1       2.261  -3.050  29.732  0.00  0.00    +0.055 C 
ENDBRANCH  36  37
ENDBRANCH  34  36
ENDBRANCH  27  32
ENDBRANCH   1  27
BRANCH   5  41
ATOM     41  O   UNL     1       8.053   1.966  23.223  0.00  0.00    -0.471 OA
BRANCH  41  42
ATOM     42  C   UNL     1       9.100   2.844  23.463  0.00  0.00    +0.223 A 
ATOM     43  C   UNL     1       8.783   4.141  23.895  0.00  0.00    +0.049 A 
ATOM     44  C   UNL     1       7.474   4.544  24.249  0.00  0.00    +0.034 A 
ATOM     45  C   UNL     1       7.206   5.868  24.585  0.00  0.00    +0.042 A 
ATOM     46 CL   UNL     1       5.602   6.342  24.986  0.00  0.00    -0.084 Cl
ATOM     47  C   UNL     1       8.225   6.812  24.585  0.00  0.00    +0.021 A 
ATOM     48  C   UNL     1       9.528   6.421  24.265  0.00  0.00    +0.014 A 
ATOM     49  C   UNL     1       9.836   5.086  23.922  0.00  0.00    +0.030 A 
ATOM     50  C   UNL     1      11.143   4.673  23.579  0.00  0.00    +0.146 A 
ATOM     51  C   UNL     1      11.333   3.343  23.226  0.00  0.00    +0.160 A 
ATOM     52  N   UNL     1      10.347   2.425  23.153  0.00  0.00    -0.217 NA
BRANCH  50  53
ATOM     53  O   UNL     1      12.130   5.625  23.611  0.00  0.00    -0.493 OA
ATOM     54  C   UNL     1      13.102   5.588  22.571  0.00  0.00    +0.277 C 
ENDBRANCH  50  53
ENDBRANCH  41  42
ENDBRANCH   5  41
TORSDOF 14
ENDMDL
MODEL 2
REMARK VINA RESULT:      -6.3      3.317      9.521
REMARK  Name = 
REMARK  21 active torsions:
REMARK  status: ('A' for Active; 'I' for Inactive)
REMARK    1  A    between atoms: C_1  and  C_2
REMARK    2  A    between atoms: C_2  and  C_3
REMARK    3  A    between atoms: C_2  and  C_4
REMARK    4  A    between atoms: C_2  and  C_5
REMARK    5  A    between atoms: C_5  and  C_6
REMARK    6  A    between atoms: C_5  and  N_47
REMARK    7  A    between atoms: C_10  and  O_33
REMARK    8  A    between atoms: C_13  and  C_15
REMARK    9  A    between atoms: N_17  and  C_18
REMARK   10  A    between atoms: C_18  and  C_24
REMARK   11  A    between atoms: C_20  and  C_22
REMARK   12  A    between atoms: N_26  and  S_27
REMARK   13  A    between atoms: S_27  and  C_30
REMARK   14  A    between atoms: O_33  and  C_34
REMARK   15  A    between atoms: C_37  and  O_45
REMARK   16  A    between atoms: O_45  and  C_46
REMARK   17  A    between atoms: C_48  and  O_50
REMARK   18  A    between atoms: O_50  and  C_51
REMARK   19  A    between atoms: C_51  and  C_52
REMARK   20  A    between atoms: C_51  and  C_53
REMARK   21  A    between atoms: C_51  and  C_54
REMARK                            x       y       z     vdW  Elec       q    Type
REMARK                         _______ _______ _______ _____ _____    ______ ____
ROOT
ATOM      1  C   UNL     1       9.288   0.473  24.938  0.00  0.00    +0.237 C 
ATOM      2  N   UNL     1       8.493   0.042  25.998  0.00  0.00    -0.285 N 
ATOM      3  C   UNL     1       7.025   0.093  26.114  0.00  0.00    +0.166 C 
ATOM      4  C   UNL     1       6.641  -1.205  26.859  0.00  0.00    +0.078 C 
ATOM      5  C   UNL     1       7.928  -2.034  26.986  0.00  0.00    +0.195 C 
ATOM      6  C   UNL     1       9.026  -0.978  26.896  0.00  0.00    +0.153 C 
ATOM      7  O   UNL     1      10.492   0.214  24.930  0.00  0.00    -0.274 OA
ENDROOT
BRANCH   3   8
ATOM      8  C   UNL     1       6.398   1.293  26.890  0.00  0.00    +0.234 C 
ATOM      9  N   UNL     1       7.212   1.987  27.753  0.00  0.00    -0.299 N 
ATOM     10  H   UNL     1       8.178   1.683  27.818  0.00  0.00    +0.150 HD
ATOM     11  O   UNL     1       5.227   1.630  26.712  0.00  0.00    -0.274 OA
BRANCH   9  12
ATOM     12  C   UNL     1       6.727   2.961  28.749  0.00  0.00    +0.119 C 
ATOM     13  C   UNL     1       5.911   2.556  29.990  0.00  0.00    +0.046 C 
ATOM     14  C   UNL     1       7.383   2.784  30.127  0.00  0.00    +0.046 C 
BRANCH  12  15
ATOM     15  C   UNL     1       6.396   4.419  28.300  0.00  0.00    +0.256 C 
ATOM     16  N   UNL     1       6.028   4.597  26.951  0.00  0.00    -0.188 N 
ATOM     17  H   UNL     1       6.039   3.767  26.372  0.00  0.00    +0.176 HD
ATOM     18  O   UNL     1       6.419   5.330  29.120  0.00  0.00    -0.272 OA
BRANCH  16  19
ATOM     19  S   UNL     1       5.036   5.855  26.428  0.00  0.00    +0.048 S 
ATOM     20  O   UNL     1       5.779   7.102  26.436  0.00  0.00    -0.155 OA
ATOM     21  O   UNL     1       3.793   5.728  27.141  0.00  0.00    -0.155 OA
BRANCH  19  22
ATOM     22  C   UNL     1       4.532   5.634  24.662  0.00  0.00    +0.151 C 
ATOM     23  C   UNL     1       4.527   4.173  24.284  0.00  0.00    +0.030 C 
ATOM     24  C   UNL     1       5.355   5.119  23.492  0.00  0.00    +0.030 C 
ENDBRANCH  19  22
ENDBRANCH  16  19
ENDBRANCH  12  15
BRANCH  13  25
ATOM     25  C   UNL     1       5.393   1.214  30.272  0.00  0.00    -0.028 C 
ATOM     26  C   UNL     1       4.146   0.788  30.035  0.00  0.00    +0.004 C 
ENDBRANCH  13  25
ENDBRANCH   9  12
ENDBRANCH   3   8
BRANCH   1  27
ATOM     27  C   UNL     1       8.642   1.336  23.819  0.00  0.00    +0.168 C 
BRANCH  27  29
ATOM     28  C   UNL     1       7.797   1.663  21.440  0.00  0.00    +0.013 C 
ATOM     29  C   UNL     1       8.461   0.661  22.402  0.00  0.00    -0.011 C 
ATOM     30  C   UNL     1       9.798   0.282  21.690  0.00  0.00    +0.013 C 
ATOM     31  C   UNL     1       7.677  -0.659  22.540  0.00  0.00    +0.013 C 
ENDBRANCH  27  29
BRANCH  27  32
ATOM     32  N   UNL     1       9.476   2.525  23.707  0.00  0.00    -0.269 N 
ATOM     33  H   UNL     1      10.054   2.663  22.888  0.00  0.00    +0.153 HD
ATOM     34  C   UNL     1       8.922   3.663  24.196  0.00  0.00    +0.401 C 
ATOM     35  O   UNL     1       8.074   3.616  25.071  0.00  0.00    -0.226 OA
BRANCH  34  36
ATOM     36  O   UNL     1       9.414   4.748  23.580  0.00  0.00    -0.445 OA
BRANCH  36  37
ATOM     37  C   UNL     1       9.561   5.986  24.327  0.00  0.00    +0.107 C 
ATOM     38  C   UNL     1       9.135   5.905  25.781  0.00  0.00    +0.055 C 
ATOM     39  C   UNL     1       8.645   6.969  23.584  0.00  0.00    +0.055 C 
ATOM     40  C   UNL     1      11.016   6.387  24.438  0.00  0.00    +0.055 C 
ENDBRANCH  36  37
ENDBRANCH  34  36
ENDBRANCH  27  32
ENDBRANCH   1  27
BRANCH   5  41
ATOM     41  O   UNL     1       8.068  -2.962  25.895  0.00  0.00    -0.471 OA
BRANCH  41  42
ATOM     42  C   UNL     1       7.280  -4.093  26.058  0.00  0.00    +0.223 A 
ATOM     43  C   UNL     1       6.514  -4.522  24.962  0.00  0.00    +0.049 A 
ATOM     44  C   UNL     1       6.626  -3.962  23.669  0.00  0.00    +0.034 A 
ATOM     45  C   UNL     1       5.777  -4.370  22.644  0.00  0.00    +0.042 A 
ATOM     46 CL   UNL     1       5.913  -3.657  21.084  0.00  0.00    -0.084 Cl
ATOM     47  C   UNL     1       4.810  -5.339  22.878  0.00  0.00    +0.021 A 
ATOM     48  C   UNL     1       4.707  -5.920  24.144  0.00  0.00    +0.014 A 
ATOM     49  C   UNL     1       5.554  -5.534  25.206  0.00  0.00    +0.030 A 
ATOM     50  C   UNL     1       5.457  -6.096  26.499  0.00  0.00    +0.146 A 
ATOM     51  C   UNL     1       6.317  -5.622  27.480  0.00  0.00    +0.160 A 
ATOM     52  N   UNL     1       7.217  -4.634  27.294  0.00  0.00    -0.217 NA
BRANCH  50  53
ATOM     53  O   UNL     1       4.507  -7.066  26.690  0.00  0.00    -0.493 OA
ATOM     54  C   UNL     1       3.551  -6.846  27.722  0.00  0.00    +0.277 C 
ENDBRANCH  50  53
ENDBRANCH  41  42
ENDBRANCH   5  41
TORSDOF 14
ENDMDL
MODEL 3
REMARK VINA RESULT:      -6.0      3.373     10.201
REMARK  Name = 
REMARK  21 active torsions:
REMARK  status: ('A' for Active; 'I' for Inactive)
REMARK    1  A    between atoms: C_1  and  C_2
REMARK    2  A    between atoms: C_2  and  C_3
REMARK    3  A    between atoms: C_2  and  C_4
REMARK    4  A    between atoms: C_2  and  C_5
REMARK    5  A    between atoms: C_5  and  C_6
REMARK    6  A    between atoms: C_5  and  N_47
REMARK    7  A    between atoms: C_10  and  O_33
REMARK    8  A    between atoms: C_13  and  C_15
REMARK    9  A    between atoms: N_17  and  C_18
REMARK   10  A    between atoms: C_18  and  C_24
REMARK   11  A    between atoms: C_20  and  C_22
REMARK   12  A    between atoms: N_26  and  S_27
REMARK   13  A    between atoms: S_27  and  C_30
REMARK   14  A    between atoms: O_33  and  C_34
REMARK   15  A    between atoms: C_37  and  O_45
REMARK   16  A    between atoms: O_45  and  C_46
REMARK   17  A    between atoms: C_48  and  O_50
REMARK   18  A    between atoms: O_50  and  C_51
REMARK   19  A    between atoms: C_51  and  C_52
REMARK   20  A    between atoms: C_51  and  C_53
REMARK   21  A    between atoms: C_51  and  C_54
REMARK                            x       y       z     vdW  Elec       q    Type
REMARK                         _______ _______ _______ _____ _____    ______ ____
ROOT
ATOM      1  C   UNL     1       7.589  -4.546  24.799  0.00  0.00    +0.237 C 
ATOM      2  N   UNL     1       7.195  -4.292  26.112  0.00  0.00    -0.285 N 
ATOM      3  C   UNL     1       6.048  -3.494  26.580  0.00  0.00    +0.166 C 
ATOM      4  C   UNL     1       5.530  -4.240  27.828  0.00  0.00    +0.078 C 
ATOM      5  C   UNL     1       6.323  -5.552  27.916  0.00  0.00    +0.195 C 
ATOM      6  C   UNL     1       7.605  -5.229  27.154  0.00  0.00    +0.153 C 
ATOM      7  O   UNL     1       8.481  -5.365  24.574  0.00  0.00    -0.274 OA
ENDROOT
BRANCH   3   8
ATOM      8  C   UNL     1       6.312  -2.010  26.984  0.00  0.00    +0.234 C 
ATOM      9  N   UNL     1       5.230  -1.257  27.375  0.00  0.00    -0.299 N 
ATOM     10  H   UNL     1       4.328  -1.721  27.391  0.00  0.00    +0.150 HD
ATOM     11  O   UNL     1       7.449  -1.539  26.990  0.00  0.00    -0.274 OA
BRANCH   9  12
ATOM     12  C   UNL     1       5.254   0.210  27.532  0.00  0.00    +0.119 C 
ATOM     13  C   UNL     1       4.238   0.977  28.398  0.00  0.00    +0.046 C 
ATOM     14  C   UNL     1       5.585   0.653  28.966  0.00  0.00    +0.046 C 
BRANCH  12  15
ATOM     15  C   UNL     1       5.798   1.099  26.369  0.00  0.00    +0.256 C 
ATOM     16  N   UNL     1       4.947   1.280  25.261  0.00  0.00    -0.188 N 
ATOM     17  H   UNL     1       4.061   0.791  25.294  0.00  0.00    +0.176 HD
ATOM     18  O   UNL     1       6.896   1.635  26.472  0.00  0.00    -0.272 OA
BRANCH  16  19
ATOM     19  S   UNL     1       5.009   2.639  24.267  0.00  0.00    +0.048 S 
ATOM     20  O   UNL     1       5.271   3.821  25.068  0.00  0.00    -0.155 OA
ATOM     21  O   UNL     1       3.865   2.572  23.398  0.00  0.00    -0.155 OA
BRANCH  19  22
ATOM     22  C   UNL     1       6.435   2.558  23.092  0.00  0.00    +0.151 C 
ATOM     23  C   UNL     1       7.498   3.560  23.467  0.00  0.00    +0.030 C 
ATOM     24  C   UNL     1       6.915   3.606  22.101  0.00  0.00    +0.030 C 
ENDBRANCH  19  22
ENDBRANCH  16  19
ENDBRANCH  12  15
BRANCH  13  25
ATOM     25  C   UNL     1       3.059   0.398  29.048  0.00  0.00    -0.028 C 
ATOM     26  C   UNL     1       1.852   0.246  28.491  0.00  0.00    +0.004 C 
ENDBRANCH  13  25
ENDBRANCH   9  12
ENDBRANCH   3   8
BRANCH   1  27
ATOM     27  C   UNL     1       6.935  -3.731  23.650  0.00  0.00    +0.168 C 
BRANCH  27  29
ATOM     28  C   UNL     1       7.523  -5.180  21.641  0.00  0.00    +0.013 C 
ATOM     29  C   UNL     1       6.359  -4.546  22.425  0.00  0.00    -0.011 C 
ATOM     30  C   UNL     1       5.462  -5.761  22.820  0.00  0.00    +0.013 C 
ATOM     31  C   UNL     1       5.466  -3.638  21.557  0.00  0.00    +0.013 C 
ENDBRANCH  27  29
BRANCH  27  32
ATOM     32  N   UNL     1       7.959  -2.798  23.196  0.00  0.00    -0.269 N 
ATOM     33  H   UNL     1       8.615  -3.077  22.478  0.00  0.00    +0.153 HD
ATOM     34  C   UNL     1       7.561  -1.504  23.116  0.00  0.00    +0.401 C 
ATOM     35  O   UNL     1       6.649  -1.089  23.811  0.00  0.00    -0.226 OA
BRANCH  34  36
ATOM     36  O   UNL     1       8.271  -0.832  22.197  0.00  0.00    -0.445 OA
BRANCH  36  37
ATOM     37  C   UNL     1       9.512  -0.185  22.591  0.00  0.00    +0.107 C 
ATOM     38  C   UNL     1       9.819   1.102  21.850  0.00  0.00    +0.055 C 
ATOM     39  C   UNL     1      10.586  -1.230  22.261  0.00  0.00    +0.055 C 
ATOM     40  C   UNL     1       9.453   0.277  24.031  0.00  0.00    +0.055 C 
ENDBRANCH  36  37
ENDBRANCH  34  36
ENDBRANCH  27  32
ENDBRANCH   1  27
BRANCH   5  41
ATOM     41  O   UNL     1       5.635  -6.631  27.256  0.00  0.00    -0.471 OA
BRANCH  41  42
ATOM     42  C   UNL     1       4.407  -6.909  27.839  0.00  0.00    +0.223 A 
ATOM     43  C   UNL     1       3.258  -6.783  27.042  0.00  0.00    +0.049 A 
ATOM     44  C   UNL     1       3.302  -6.547  25.648  0.00  0.00    +0.034 A 
ATOM     45  C   UNL     1       2.130  -6.343  24.926  0.00  0.00    +0.042 A 
ATOM     46 CL   UNL     1       2.208  -6.031  23.236  0.00  0.00    -0.084 Cl
ATOM     47  C   UNL     1       0.898  -6.376  25.566  0.00  0.00    +0.021 A 
ATOM     48  C   UNL     1       0.838  -6.637  26.937  0.00  0.00    +0.014 A 
ATOM     49  C   UNL     1       2.007  -6.852  27.700  0.00  0.00    +0.030 A 
ATOM     50  C   UNL     1       1.972  -7.100  29.091  0.00  0.00    +0.146 A 
ATOM     51  C   UNL     1       3.182  -7.266  29.753  0.00  0.00    +0.160 A 
ATOM     52  N   UNL     1       4.392  -7.169  29.165  0.00  0.00    -0.217 NA
BRANCH  50  53
ATOM     53  O   UNL     1       0.738  -7.149  29.687  0.00  0.00    -0.493 OA
ATOM     54  C   UNL     1       0.444  -8.295  30.480  0.00  0.00    +0.277 C 
ENDBRANCH  50  53
ENDBRANCH  41  42
ENDBRANCH   5  41
TORSDOF 14
ENDMDL
MODEL 4
REMARK VINA RESULT:      -6.0      2.473      5.441
REMARK  Name = 
REMARK  21 active torsions:
REMARK  status: ('A' for Active; 'I' for Inactive)
REMARK    1  A    between atoms: C_1  and  C_2
REMARK    2  A    between atoms: C_2  and  C_3
REMARK    3  A    between atoms: C_2  and  C_4
REMARK    4  A    between atoms: C_2  and  C_5
REMARK    5  A    between atoms: C_5  and  C_6
REMARK    6  A    between atoms: C_5  and  N_47
REMARK    7  A    between atoms: C_10  and  O_33
REMARK    8  A    between atoms: C_13  and  C_15
REMARK    9  A    between atoms: N_17  and  C_18
REMARK   10  A    between atoms: C_18  and  C_24
REMARK   11  A    between atoms: C_20  and  C_22
REMARK   12  A    between atoms: N_26  and  S_27
REMARK   13  A    between atoms: S_27  and  C_30
REMARK   14  A    between atoms: O_33  and  C_34
REMARK   15  A    between atoms: C_37  and  O_45
REMARK   16  A    between atoms: O_45  and  C_46
REMARK   17  A    between atoms: C_48  and  O_50
REMARK   18  A    between atoms: O_50  and  C_51
REMARK   19  A    between atoms: C_51  and  C_52
REMARK   20  A    between atoms: C_51  and  C_53
REMARK   21  A    between atoms: C_51  and  C_54
REMARK                            x       y       z     vdW  Elec       q    Type
REMARK                         _______ _______ _______ _____ _____    ______ ____
ROOT
ATOM      1  C   UNL     1       6.351  -1.079  25.085  0.00  0.00    +0.237 C 
ATOM      2  N   UNL     1       5.593  -0.399  26.037  0.00  0.00    -0.285 N 
ATOM      3  C   UNL     1       5.467  -0.689  27.477  0.00  0.00    +0.166 C 
ATOM      4  C   UNL     1       5.378   0.697  28.153  0.00  0.00    +0.078 C 
ATOM      5  C   UNL     1       5.632   1.738  27.054  0.00  0.00    +0.195 C 
ATOM      6  C   UNL     1       5.242   0.994  25.779  0.00  0.00    +0.153 C 
ATOM      7  O   UNL     1       6.472  -0.613  23.951  0.00  0.00    -0.274 OA
ENDROOT
BRANCH   3   8
ATOM      8  C   UNL     1       4.239  -1.530  27.945  0.00  0.00    +0.234 C 
ATOM      9  N   UNL     1       4.445  -2.863  28.210  0.00  0.00    -0.299 N 
ATOM     10  H   UNL     1       5.391  -3.212  28.099  0.00  0.00    +0.150 HD
ATOM     11  O   UNL     1       3.133  -1.014  28.106  0.00  0.00    -0.274 OA
BRANCH   9  12
ATOM     12  C   UNL     1       3.364  -3.848  28.400  0.00  0.00    +0.119 C 
ATOM     13  C   UNL     1       3.459  -5.014  29.401  0.00  0.00    +0.046 C 
ATOM     14  C   UNL     1       2.725  -3.771  29.796  0.00  0.00    +0.046 C 
BRANCH  12  15
ATOM     15  C   UNL     1       2.422  -4.198  27.205  0.00  0.00    +0.256 C 
ATOM     16  N   UNL     1       2.763  -5.334  26.445  0.00  0.00    -0.188 N 
ATOM     17  H   UNL     1       3.611  -5.815  26.716  0.00  0.00    +0.176 HD
ATOM     18  O   UNL     1       1.421  -3.522  26.999  0.00  0.00    -0.272 OA
BRANCH  16  19
ATOM     19  S   UNL     1       1.626  -6.249  25.602  0.00  0.00    +0.048 S 
ATOM     20  O   UNL     1       1.303  -5.595  24.346  0.00  0.00    -0.155 OA
ATOM     21  O   UNL     1       0.595  -6.600  26.542  0.00  0.00    -0.155 OA
BRANCH  19  22
ATOM     22  C   UNL     1       2.313  -7.892  25.099  0.00  0.00    +0.151 C 
ATOM     23  C   UNL     1       1.717  -8.344  23.788  0.00  0.00    +0.030 C 
ATOM     24  C   UNL     1       1.598  -9.228  24.978  0.00  0.00    +0.030 C 
ENDBRANCH  19  22
ENDBRANCH  16  19
ENDBRANCH  12  15
BRANCH  13  25
ATOM     25  C   UNL     1       4.650  -5.384  30.171  0.00  0.00    -0.028 C 
ATOM     26  C   UNL     1       5.609  -6.229  29.774  0.00  0.00    +0.004 C 
ENDBRANCH  13  25
ENDBRANCH   9  12
ENDBRANCH   3   8
BRANCH   1  27
ATOM     27  C   UNL     1       6.969  -2.454  25.462  0.00  0.00    +0.168 C 
BRANCH  27  29
ATOM     28  C   UNL     1       8.917  -1.257  26.581  0.00  0.00    +0.013 C 
ATOM     29  C   UNL     1       8.522  -2.491  25.750  0.00  0.00    -0.011 C 
ATOM     30  C   UNL     1       8.991  -3.700  26.620  0.00  0.00    +0.013 C 
ATOM     31  C   UNL     1       9.304  -2.607  24.426  0.00  0.00    +0.013 C 
ENDBRANCH  27  29
BRANCH  27  32
ATOM     32  N   UNL     1       6.641  -3.349  24.360  0.00  0.00    -0.269 N 
ATOM     33  H   UNL     1       7.222  -3.367  23.532  0.00  0.00    +0.153 HD
ATOM     34  C   UNL     1       6.160  -4.562  24.731  0.00  0.00    +0.401 C 
ATOM     35  O   UNL     1       5.592  -4.706  25.800  0.00  0.00    -0.226 OA
BRANCH  34  36
ATOM     36  O   UNL     1       6.424  -5.495  23.803  0.00  0.00    -0.445 OA
BRANCH  36  37
ATOM     37  C   UNL     1       5.800  -5.393  22.495  0.00  0.00    +0.107 C 
ATOM     38  C   UNL     1       5.745  -3.988  21.925  0.00  0.00    +0.055 C 
ATOM     39  C   UNL     1       4.372  -5.901  22.733  0.00  0.00    +0.055 C 
ATOM     40  C   UNL     1       6.604  -6.135  21.448  0.00  0.00    +0.055 C 
ENDBRANCH  36  37
ENDBRANCH  34  36
ENDBRANCH  27  32
ENDBRANCH   1  27
BRANCH   5  41
ATOM     41  O   UNL     1       7.022   2.106  26.985  0.00  0.00    -0.471 OA
BRANCH  41  42
ATOM     42  C   UNL     1       7.242   3.190  26.147  0.00  0.00    +0.223 A 
ATOM     43  C   UNL     1       8.276   3.091  25.203  0.00  0.00    +0.049 A 
ATOM     44  C   UNL     1       8.992   1.896  24.957  0.00  0.00    +0.034 A 
ATOM     45  C   UNL     1      10.066   1.883  24.072  0.00  0.00    +0.042 A 
ATOM     46 CL   UNL     1      10.939   0.425  23.807  0.00  0.00    -0.084 Cl
ATOM     47  C   UNL     1      10.445   3.044  23.412  0.00  0.00    +0.021 A 
ATOM     48  C   UNL     1       9.729   4.225  23.624  0.00  0.00    +0.014 A 
ATOM     49  C   UNL     1       8.632   4.274  24.512  0.00  0.00    +0.030 A 
ATOM     50  C   UNL     1       7.904   5.461  24.756  0.00  0.00    +0.146 A 
ATOM     51  C   UNL     1       6.862   5.408  25.672  0.00  0.00    +0.160 A 
ATOM     52  N   UNL     1       6.521   4.309  26.376  0.00  0.00    -0.217 NA
BRANCH  50  53
ATOM     53  O   UNL     1       8.291   6.584  24.070  0.00  0.00    -0.493 OA
ATOM     54  C   UNL     1       7.458   7.009  22.996  0.00  0.00    +0.277 C 
ENDBRANCH  50  53
ENDBRANCH  41  42
ENDBRANCH   5  41
TORSDOF 14
ENDMDL
MODEL 5
REMARK VINA RESULT:      -6.0      3.161      9.168
REMARK  Name = 
REMARK  21 active torsions:
REMARK  status: ('A' for Active; 'I' for Inactive)
REMARK    1  A    between atoms: C_1  and  C_2
REMARK    2  A    between atoms: C_2  and  C_3
REMARK    3  A    between atoms: C_2  and  C_4
REMARK    4  A    between atoms: C_2  and  C_5
REMARK    5  A    between atoms: C_5  and  C_6
REMARK    6  A    between atoms: C_5  and  N_47
REMARK    7  A    between atoms: C_10  and  O_33
REMARK    8  A    between atoms: C_13  and  C_15
REMARK    9  A    between atoms: N_17  and  C_18
REMARK   10  A    between atoms: C_18  and  C_24
REMARK   11  A    between atoms: C_20  and  C_22
REMARK   12  A    between atoms: N_26  and  S_27
REMARK   13  A    between atoms: S_27  and  C_30
REMARK   14  A    between atoms: O_33  and  C_34
REMARK   15  A    between atoms: C_37  and  O_45
REMARK   16  A    between atoms: O_45  and  C_46
REMARK   17  A    between atoms: C_48  and  O_50
REMARK   18  A    between atoms: O_50  and  C_51
REMARK   19  A    between atoms: C_51  and  C_52
REMARK   20  A    between atoms: C_51  and  C_53
REMARK   21  A    between atoms: C_51  and  C_54
REMARK                            x       y       z     vdW  Elec       q    Type
REMARK                         _______ _______ _______ _____ _____    ______ ____
ROOT
ATOM      1  C   UNL     1       5.170   0.379  26.251  0.00  0.00    +0.237 C 
ATOM      2  N   UNL     1       6.098  -0.431  25.599  0.00  0.00    -0.285 N 
ATOM      3  C   UNL     1       7.534  -0.587  25.892  0.00  0.00    +0.166 C 
ATOM      4  C   UNL     1       7.830  -2.081  25.633  0.00  0.00    +0.078 C 
ATOM      5  C   UNL     1       6.478  -2.756  25.360  0.00  0.00    +0.195 C 
ATOM      6  C   UNL     1       5.610  -1.599  24.871  0.00  0.00    +0.153 C 
ATOM      7  O   UNL     1       3.972   0.276  25.984  0.00  0.00    -0.274 OA
ENDROOT
BRANCH   3   8
ATOM      8  C   UNL     1       8.543   0.253  25.049  0.00  0.00    +0.234 C 
ATOM      9  N   UNL     1       8.039   0.992  24.005  0.00  0.00    -0.299 N 
ATOM     10  H   UNL     1       7.036   0.955  23.859  0.00  0.00    +0.150 HD
ATOM     11  O   UNL     1       9.741   0.285  25.329  0.00  0.00    -0.274 OA
BRANCH   9  12
ATOM     12  C   UNL     1       8.867   1.621  22.959  0.00  0.00    +0.119 C 
ATOM     13  C   UNL     1       9.533   0.822  21.823  0.00  0.00    +0.046 C 
ATOM     14  C   UNL     1       8.238   1.525  21.560  0.00  0.00    +0.046 C 
BRANCH  12  15
ATOM     15  C   UNL     1       9.670   2.919  23.291  0.00  0.00    +0.256 C 
ATOM     16  N   UNL     1       9.036   4.144  23.007  0.00  0.00    -0.188 N 
ATOM     17  H   UNL     1       8.120   4.085  22.581  0.00  0.00    +0.176 HD
ATOM     18  O   UNL     1      10.775   2.835  23.815  0.00  0.00    -0.272 OA
BRANCH  16  19
ATOM     19  S   UNL     1       9.376   5.569  23.841  0.00  0.00    +0.048 S 
ATOM     20  O   UNL     1      10.655   6.099  23.404  0.00  0.00    -0.155 OA
ATOM     21  O   UNL     1       9.118   5.308  25.232  0.00  0.00    -0.155 OA
BRANCH  19  22
ATOM     22  C   UNL     1       8.163   6.903  23.431  0.00  0.00    +0.151 C 
ATOM     23  C   UNL     1       6.746   6.408  23.590  0.00  0.00    +0.030 C 
ATOM     24  C   UNL     1       7.171   6.970  22.281  0.00  0.00    +0.030 C 
ENDBRANCH  19  22
ENDBRANCH  16  19
ENDBRANCH  12  15
BRANCH  13  25
ATOM     25  C   UNL     1       9.560  -0.638  21.707  0.00  0.00    -0.028 C 
ATOM     26  C   UNL     1      10.380  -1.462  22.371  0.00  0.00    +0.004 C 
ENDBRANCH  13  25
ENDBRANCH   9  12
ENDBRANCH   3   8
BRANCH   1  27
ATOM     27  C   UNL     1       5.683   1.449  27.253  0.00  0.00    +0.168 C 
BRANCH  27  29
ATOM     28  C   UNL     1       6.826   1.339  29.525  0.00  0.00    +0.013 C 
ATOM     29  C   UNL     1       5.486   1.148  28.792  0.00  0.00    -0.011 C 
ATOM     30  C   UNL     1       4.512   2.124  29.524  0.00  0.00    +0.013 C 
ATOM     31  C   UNL     1       4.884  -0.258  28.984  0.00  0.00    +0.013 C 
ENDBRANCH  27  29
BRANCH  27  32
ATOM     32  N   UNL     1       5.002   2.686  26.893  0.00  0.00    -0.269 N 
ATOM     33  H   UNL     1       4.299   3.074  27.507  0.00  0.00    +0.153 HD
ATOM     34  C   UNL     1       5.783   3.613  26.283  0.00  0.00    +0.401 C 
ATOM     35  O   UNL     1       6.772   3.277  25.655  0.00  0.00    -0.226 OA
BRANCH  34  36
ATOM     36  O   UNL     1       5.324   4.854  26.499  0.00  0.00    -0.445 OA
BRANCH  36  37
ATOM     37  C   UNL     1       5.779   5.588  27.669  0.00  0.00    +0.107 C 
ATOM     38  C   UNL     1       4.750   5.720  28.775  0.00  0.00    +0.055 C 
ATOM     39  C   UNL     1       6.113   6.980  27.117  0.00  0.00    +0.055 C 
ATOM     40  C   UNL     1       6.908   4.859  28.364  0.00  0.00    +0.055 C 
ENDBRANCH  36  37
ENDBRANCH  34  36
ENDBRANCH  27  32
ENDBRANCH   1  27
BRANCH   5  41
ATOM     41  O   UNL     1       5.908  -3.303  26.564  0.00  0.00    -0.471 OA
BRANCH  41  42
ATOM     42  C   UNL     1       5.022  -4.339  26.305  0.00  0.00    +0.223 A 
ATOM     43  C   UNL     1       3.691  -4.183  26.724  0.00  0.00    +0.049 A 
ATOM     44  C   UNL     1       3.177  -2.973  27.245  0.00  0.00    +0.034 A 
ATOM     45  C   UNL     1       1.872  -2.906  27.725  0.00  0.00    +0.042 A 
ATOM     46 CL   UNL     1       1.275  -1.431  28.379  0.00  0.00    -0.084 Cl
ATOM     47  C   UNL     1       1.054  -4.028  27.693  0.00  0.00    +0.021 A 
ATOM     48  C   UNL     1       1.540  -5.222  27.154  0.00  0.00    +0.014 A 
ATOM     49  C   UNL     1       2.857  -5.325  26.655  0.00  0.00    +0.030 A 
ATOM     50  C   UNL     1       3.376  -6.527  26.122  0.00  0.00    +0.146 A 
ATOM     51  C   UNL     1       4.694  -6.530  25.687  0.00  0.00    +0.160 A 
ATOM     52  N   UNL     1       5.528  -5.473  25.772  0.00  0.00    -0.217 NA
BRANCH  50  53
ATOM     53  O   UNL     1       2.534  -7.609  26.084  0.00  0.00    -0.493 OA
ATOM     54  C   UNL     1       2.267  -8.180  24.806  0.00  0.00    +0.277 C 
ENDBRANCH  50  53
ENDBRANCH  41  42
ENDBRANCH   5  41
TORSDOF 14
ENDMDL
MODEL 6
REMARK VINA RESULT:      -6.0      1.902      2.464
REMARK  Name = 
REMARK  21 active torsions:
REMARK  status: ('A' for Active; 'I' for Inactive)
REMARK    1  A    between atoms: C_1  and  C_2
REMARK    2  A    between atoms: C_2  and  C_3
REMARK    3  A    between atoms: C_2  and  C_4
REMARK    4  A    between atoms: C_2  and  C_5
REMARK    5  A    between atoms: C_5  and  C_6
REMARK    6  A    between atoms: C_5  and  N_47
REMARK    7  A    between atoms: C_10  and  O_33
REMARK    8  A    between atoms: C_13  and  C_15
REMARK    9  A    between atoms: N_17  and  C_18
REMARK   10  A    between atoms: C_18  and  C_24
REMARK   11  A    between atoms: C_20  and  C_22
REMARK   12  A    between atoms: N_26  and  S_27
REMARK   13  A    between atoms: S_27  and  C_30
REMARK   14  A    between atoms: O_33  and  C_34
REMARK   15  A    between atoms: C_37  and  O_45
REMARK   16  A    between atoms: O_45  and  C_46
REMARK   17  A    between atoms: C_48  and  O_50
REMARK   18  A    between atoms: O_50  and  C_51
REMARK   19  A    between atoms: C_51  and  C_52
REMARK   20  A    between atoms: C_51  and  C_53
REMARK   21  A    between atoms: C_51  and  C_54
REMARK                            x       y       z     vdW  Elec       q    Type
REMARK                         _______ _______ _______ _____ _____    ______ ____
ROOT
ATOM      1  C   UNL     1       7.687   0.073  25.316  0.00  0.00    +0.237 C 
ATOM      2  N   UNL     1       8.149  -0.869  24.398  0.00  0.00    -0.285 N 
ATOM      3  C   UNL     1       7.359  -1.816  23.592  0.00  0.00    +0.166 C 
ATOM      4  C   UNL     1       8.094  -1.889  22.235  0.00  0.00    +0.078 C 
ATOM      5  C   UNL     1       9.200  -0.825  22.278  0.00  0.00    +0.195 C 
ATOM      6  C   UNL     1       9.450  -0.649  23.774  0.00  0.00    +0.153 C 
ATOM      7  O   UNL     1       8.467   0.899  25.792  0.00  0.00    -0.274 OA
ENDROOT
BRANCH   3   8
ATOM      8  C   UNL     1       7.201  -3.273  24.129  0.00  0.00    +0.234 C 
ATOM      9  N   UNL     1       5.977  -3.878  23.973  0.00  0.00    -0.299 N 
ATOM     10  H   UNL     1       5.256  -3.342  23.501  0.00  0.00    +0.150 HD
ATOM     11  O   UNL     1       8.145  -3.873  24.641  0.00  0.00    -0.274 OA
BRANCH   9  12
ATOM     12  C   UNL     1       5.577  -5.128  24.646  0.00  0.00    +0.119 C 
ATOM     13  C   UNL     1       4.240  -5.840  24.368  0.00  0.00    +0.046 C 
ATOM     14  C   UNL     1       5.481  -6.322  23.683  0.00  0.00    +0.046 C 
BRANCH  12  15
ATOM     15  C   UNL     1       6.088  -5.420  26.093  0.00  0.00    +0.256 C 
ATOM     16  N   UNL     1       5.177  -5.193  27.142  0.00  0.00    -0.188 N 
ATOM     17  H   UNL     1       4.271  -4.828  26.876  0.00  0.00    +0.176 HD
ATOM     18  O   UNL     1       7.217  -5.868  26.262  0.00  0.00    -0.272 OA
BRANCH  16  19
ATOM     19  S   UNL     1       5.244  -6.018  28.611  0.00  0.00    +0.048 S 
ATOM     20  O   UNL     1       6.068  -5.280  29.551  0.00  0.00    -0.155 OA
ATOM     21  O   UNL     1       5.523  -7.395  28.302  0.00  0.00    -0.155 OA
BRANCH  19  22
ATOM     22  C   UNL     1       3.583  -6.098  29.422  0.00  0.00    +0.151 C 
ATOM     23  C   UNL     1       3.072  -7.517  29.459  0.00  0.00    +0.030 C 
ATOM     24  C   UNL     1       2.241  -6.468  28.813  0.00  0.00    +0.030 C 
ENDBRANCH  19  22
ENDBRANCH  16  19
ENDBRANCH  12  15
BRANCH  13  25
ATOM     25  C   UNL     1       3.152  -5.320  23.536  0.00  0.00    -0.028 C 
ATOM     26  C   UNL     1       1.844  -5.491  23.759  0.00  0.00    +0.004 C 
ENDBRANCH  13  25
ENDBRANCH   9  12
ENDBRANCH   3   8
BRANCH   1  27
ATOM     27  C   UNL     1       6.203   0.009  25.773  0.00  0.00    +0.168 C 
BRANCH  27  29
ATOM     28  C   UNL     1       5.637   1.188  27.957  0.00  0.00    +0.013 C 
ATOM     29  C   UNL     1       5.593   1.314  26.424  0.00  0.00    -0.011 C 
ATOM     30  C   UNL     1       6.394   2.621  26.127  0.00  0.00    +0.013 C 
ATOM     31  C   UNL     1       4.174   1.565  25.875  0.00  0.00    +0.013 C 
ENDBRANCH  27  29
BRANCH  27  32
ATOM     32  N   UNL     1       6.127  -1.103  26.711  0.00  0.00    -0.269 N 
ATOM     33  H   UNL     1       6.497  -1.002  27.647  0.00  0.00    +0.153 HD
ATOM     34  C   UNL     1       4.988  -1.837  26.638  0.00  0.00    +0.401 C 
ATOM     35  O   UNL     1       4.348  -1.892  25.602  0.00  0.00    -0.226 OA
BRANCH  34  36
ATOM     36  O   UNL     1       4.707  -2.417  27.815  0.00  0.00    -0.445 OA
BRANCH  36  37
ATOM     37  C   UNL     1       3.396  -2.217  28.412  0.00  0.00    +0.107 C 
ATOM     38  C   UNL     1       2.845  -0.810  28.278  0.00  0.00    +0.055 C 
ATOM     39  C   UNL     1       3.621  -2.536  29.896  0.00  0.00    +0.055 C 
ATOM     40  C   UNL     1       2.344  -3.045  27.706  0.00  0.00    +0.055 C 
ENDBRANCH  36  37
ENDBRANCH  34  36
ENDBRANCH  27  32
ENDBRANCH   1  27
BRANCH   5  41
ATOM     41  O   UNL     1       8.753   0.424  21.719  0.00  0.00    -0.471 OA
BRANCH  41  42
ATOM     42  C   UNL     1       9.187   1.518  22.455  0.00  0.00    +0.223 A 
ATOM     43  C   UNL     1       8.259   2.537  22.723  0.00  0.00    +0.049 A 
ATOM     44  C   UNL     1       6.881   2.433  22.423  0.00  0.00    +0.034 A 
ATOM     45  C   UNL     1       6.026   3.512  22.632  0.00  0.00    +0.042 A 
ATOM     46 CL   UNL     1       4.359   3.372  22.235  0.00  0.00    -0.084 Cl
ATOM     47  C   UNL     1       6.516   4.706  23.144  0.00  0.00    +0.021 A 
ATOM     48  C   UNL     1       7.871   4.813  23.472  0.00  0.00    +0.014 A 
ATOM     49  C   UNL     1       8.766   3.738  23.277  0.00  0.00    +0.030 A 
ATOM     50  C   UNL     1      10.142   3.829  23.585  0.00  0.00    +0.146 A 
ATOM     51  C   UNL     1      10.941   2.724  23.325  0.00  0.00    +0.160 A 
ATOM     52  N   UNL     1      10.501   1.579  22.763  0.00  0.00    -0.217 NA
BRANCH  50  53
ATOM     53  O   UNL     1      10.588   5.014  24.111  0.00  0.00    -0.493 OA
ATOM     54  C   UNL     1      11.753   5.587  23.527  0.00  0.00    +0.277 C 
ENDBRANCH  50  53
ENDBRANCH  41  42
ENDBRANCH   5  41
TORSDOF 14
ENDMDL
MODEL 7
REMARK VINA RESULT:      -5.9      3.324      9.317
REMARK  Name = 
REMARK  21 active torsions:
REMARK  status: ('A' for Active; 'I' for Inactive)
REMARK    1  A    between atoms: C_1  and  C_2
REMARK    2  A    between atoms: C_2  and  C_3
REMARK    3  A    between atoms: C_2  and  C_4
REMARK    4  A    between atoms: C_2  and  C_5
REMARK    5  A    between atoms: C_5  and  C_6
REMARK    6  A    between atoms: C_5  and  N_47
REMARK    7  A    between atoms: C_10  and  O_33
REMARK    8  A    between atoms: C_13  and  C_15
REMARK    9  A    between atoms: N_17  and  C_18
REMARK   10  A    between atoms: C_18  and  C_24
REMARK   11  A    between atoms: C_20  and  C_22
REMARK   12  A    between atoms: N_26  and  S_27
REMARK   13  A    between atoms: S_27  and  C_30
REMARK   14  A    between atoms: O_33  and  C_34
REMARK   15  A    between atoms: C_37  and  O_45
REMARK   16  A    between atoms: O_45  and  C_46
REMARK   17  A    between atoms: C_48  and  O_50
REMARK   18  A    between atoms: O_50  and  C_51
REMARK   19  A    between atoms: C_51  and  C_52
REMARK   20  A    between atoms: C_51  and  C_53
REMARK   21  A    between atoms: C_51  and  C_54
REMARK                            x       y       z     vdW  Elec       q    Type
REMARK                         _______ _______ _______ _____ _____    ______ ____
ROOT
ATOM      1  C   UNL     1       9.282   0.737  24.886  0.00  0.00    +0.237 C 
ATOM      2  N   UNL     1       8.399   0.310  25.877  0.00  0.00    -0.285 N 
ATOM      3  C   UNL     1       6.926   0.310  25.845  0.00  0.00    +0.166 C 
ATOM      4  C   UNL     1       6.514  -0.978  26.591  0.00  0.00    +0.078 C 
ATOM      5  C   UNL     1       7.809  -1.754  26.874  0.00  0.00    +0.195 C 
ATOM      6  C   UNL     1       8.875  -0.661  26.857  0.00  0.00    +0.153 C 
ATOM      7  O   UNL     1      10.489   0.524  25.006  0.00  0.00    -0.274 OA
ENDROOT
BRANCH   3   8
ATOM      8  C   UNL     1       6.184   1.509  26.513  0.00  0.00    +0.234 C 
ATOM      9  N   UNL     1       4.811   1.520  26.452  0.00  0.00    -0.299 N 
ATOM     10  H   UNL     1       4.365   0.735  25.987  0.00  0.00    +0.150 HD
ATOM     11  O   UNL     1       6.801   2.394  27.106  0.00  0.00    -0.274 OA
BRANCH   9  12
ATOM     12  C   UNL     1       3.975   2.688  26.790  0.00  0.00    +0.119 C 
ATOM     13  C   UNL     1       2.608   2.566  27.489  0.00  0.00    +0.046 C 
ATOM     14  C   UNL     1       3.820   2.893  28.305  0.00  0.00    +0.046 C 
BRANCH  12  15
ATOM     15  C   UNL     1       4.048   3.969  25.901  0.00  0.00    +0.256 C 
ATOM     16  N   UNL     1       3.916   3.782  24.511  0.00  0.00    -0.188 N 
ATOM     17  H   UNL     1       3.816   2.825  24.196  0.00  0.00    +0.176 HD
ATOM     18  O   UNL     1       4.168   5.070  26.426  0.00  0.00    -0.272 OA
BRANCH  16  19
ATOM     19  S   UNL     1       3.317   4.971  23.477  0.00  0.00    +0.048 S 
ATOM     20  O   UNL     1       4.369   5.918  23.156  0.00  0.00    -0.155 OA
ATOM     21  O   UNL     1       2.066   5.412  24.033  0.00  0.00    -0.155 OA
BRANCH  19  22
ATOM     22  C   UNL     1       2.823   4.263  21.841  0.00  0.00    +0.151 C 
ATOM     23  C   UNL     1       1.334   4.388  21.630  0.00  0.00    +0.030 C 
ATOM     24  C   UNL     1       1.964   3.043  21.549  0.00  0.00    +0.030 C 
ENDBRANCH  19  22
ENDBRANCH  16  19
ENDBRANCH  12  15
BRANCH  13  25
ATOM     25  C   UNL     1       1.904   1.313  27.776  0.00  0.00    -0.028 C 
ATOM     26  C   UNL     1       0.815   0.863  27.141  0.00  0.00    +0.004 C 
ENDBRANCH  13  25
ENDBRANCH   9  12
ENDBRANCH   3   8
BRANCH   1  27
ATOM     27  C   UNL     1       8.722   1.541  23.680  0.00  0.00    +0.168 C 
BRANCH  27  29
ATOM     28  C   UNL     1      10.525   2.033  21.951  0.00  0.00    +0.013 C 
ATOM     29  C   UNL     1       9.281   1.176  22.248  0.00  0.00    -0.011 C 
ATOM     30  C   UNL     1       9.792  -0.293  22.108  0.00  0.00    +0.013 C 
ATOM     31  C   UNL     1       8.170   1.329  21.190  0.00  0.00    +0.013 C 
ENDBRANCH  27  29
BRANCH  27  32
ATOM     32  N   UNL     1       8.989   2.942  23.981  0.00  0.00    -0.269 N 
ATOM     33  H   UNL     1       9.897   3.338  23.779  0.00  0.00    +0.153 HD
ATOM     34  C   UNL     1       7.950   3.784  23.757  0.00  0.00    +0.401 C 
ATOM     35  O   UNL     1       6.801   3.380  23.796  0.00  0.00    -0.226 OA
BRANCH  34  36
ATOM     36  O   UNL     1       8.380   5.025  23.484  0.00  0.00    -0.445 OA
BRANCH  36  37
ATOM     37  C   UNL     1       8.511   5.988  24.565  0.00  0.00    +0.107 C 
ATOM     38  C   UNL     1       8.147   5.454  25.937  0.00  0.00    +0.055 C 
ATOM     39  C   UNL     1       7.532   7.104  24.178  0.00  0.00    +0.055 C 
ATOM     40  C   UNL     1       9.954   6.404  24.752  0.00  0.00    +0.055 C 
ENDBRANCH  36  37
ENDBRANCH  34  36
ENDBRANCH  27  32
ENDBRANCH   1  27
BRANCH   5  41
ATOM     41  O   UNL     1       8.090  -2.710  25.834  0.00  0.00    -0.471 OA
BRANCH  41  42
ATOM     42  C   UNL     1       7.424  -3.912  26.028  0.00  0.00    +0.223 A 
ATOM     43  C   UNL     1       6.670  -4.423  24.961  0.00  0.00    +0.049 A 
ATOM     44  C   UNL     1       6.683  -3.865  23.661  0.00  0.00    +0.034 A 
ATOM     45  C   UNL     1       5.846  -4.362  22.667  0.00  0.00    +0.042 A 
ATOM     46 CL   UNL     1       5.859  -3.651  21.101  0.00  0.00    -0.084 Cl
ATOM     47  C   UNL     1       4.988  -5.421  22.937  0.00  0.00    +0.021 A 
ATOM     48  C   UNL     1       4.986  -6.001  24.208  0.00  0.00    +0.014 A 
ATOM     49  C   UNL     1       5.824  -5.524  25.240  0.00  0.00    +0.030 A 
ATOM     50  C   UNL     1       5.826  -6.083  26.537  0.00  0.00    +0.146 A 
ATOM     51  C   UNL     1       6.666  -5.519  27.488  0.00  0.00    +0.160 A 
ATOM     52  N   UNL     1       7.455  -4.447  27.268  0.00  0.00    -0.217 NA
BRANCH  50  53
ATOM     53  O   UNL     1       4.984  -7.142  26.764  0.00  0.00    -0.493 OA
ATOM     54  C   UNL     1       3.819  -6.892  27.543  0.00  0.00    +0.277 C 
ENDBRANCH  50  53
ENDBRANCH  41  42
ENDBRANCH   5  41
TORSDOF 14
ENDMDL
MODEL 8
REMARK VINA RESULT:      -5.9      3.313      9.388
REMARK  Name = 
REMARK  21 active torsions:
REMARK  status: ('A' for Active; 'I' for Inactive)
REMARK    1  A    between atoms: C_1  and  C_2
REMARK    2  A    between atoms: C_2  and  C_3
REMARK    3  A    between atoms: C_2  and  C_4
REMARK    4  A    between atoms: C_2  and  C_5
REMARK    5  A    between atoms: C_5  and  C_6
REMARK    6  A    between atoms: C_5  and  N_47
REMARK    7  A    between atoms: C_10  and  O_33
REMARK    8  A    between atoms: C_13  and  C_15
REMARK    9  A    between atoms: N_17  and  C_18
REMARK   10  A    between atoms: C_18  and  C_24
REMARK   11  A    between atoms: C_20  and  C_22
REMARK   12  A    between atoms: N_26  and  S_27
REMARK   13  A    between atoms: S_27  and  C_30
REMARK   14  A    between atoms: O_33  and  C_34
REMARK   15  A    between atoms: C_37  and  O_45
REMARK   16  A    between atoms: O_45  and  C_46
REMARK   17  A    between atoms: C_48  and  O_50
REMARK   18  A    between atoms: O_50  and  C_51
REMARK   19  A    between atoms: C_51  and  C_52
REMARK   20  A    between atoms: C_51  and  C_53
REMARK   21  A    between atoms: C_51  and  C_54
REMARK                            x       y       z     vdW  Elec       q    Type
REMARK                         _______ _______ _______ _____ _____    ______ ____
ROOT
ATOM      1  C   UNL     1       5.008  -0.594  26.245  0.00  0.00    +0.237 C 
ATOM      2  N   UNL     1       6.113  -0.823  25.428  0.00  0.00    -0.285 N 
ATOM      3  C   UNL     1       7.518  -0.450  25.672  0.00  0.00    +0.166 C 
ATOM      4  C   UNL     1       8.344  -1.620  25.092  0.00  0.00    +0.078 C 
ATOM      5  C   UNL     1       7.338  -2.707  24.685  0.00  0.00    +0.195 C 
ATOM      6  C   UNL     1       6.050  -1.918  24.465  0.00  0.00    +0.153 C 
ATOM      7  O   UNL     1       3.924  -1.109  25.969  0.00  0.00    -0.274 OA
ENDROOT
BRANCH   3   8
ATOM      8  C   UNL     1       8.043   0.871  25.028  0.00  0.00    +0.234 C 
ATOM      9  N   UNL     1       7.143   1.636  24.325  0.00  0.00    -0.299 N 
ATOM     10  H   UNL     1       6.187   1.298  24.282  0.00  0.00    +0.150 HD
ATOM     11  O   UNL     1       9.209   1.236  25.175  0.00  0.00    -0.274 OA
BRANCH   9  12
ATOM     12  C   UNL     1       7.519   2.757  23.442  0.00  0.00    +0.119 C 
ATOM     13  C   UNL     1       8.147   2.554  22.050  0.00  0.00    +0.046 C 
ATOM     14  C   UNL     1       6.677   2.816  22.158  0.00  0.00    +0.046 C 
BRANCH  12  15
ATOM     15  C   UNL     1       7.955   4.118  24.072  0.00  0.00    +0.256 C 
ATOM     16  N   UNL     1       9.335   4.303  24.282  0.00  0.00    -0.188 N 
ATOM     17  H   UNL     1       9.933   3.524  24.038  0.00  0.00    +0.176 HD
ATOM     18  O   UNL     1       7.113   4.976  24.312  0.00  0.00    -0.272 OA
BRANCH  16  19
ATOM     19  S   UNL     1      10.065   5.822  24.303  0.00  0.00    +0.048 S 
ATOM     20  O   UNL     1       9.879   6.438  25.604  0.00  0.00    -0.155 OA
ATOM     21  O   UNL     1       9.658   6.495  23.099  0.00  0.00    -0.155 OA
BRANCH  19  22
ATOM     22  C   UNL     1      11.901   5.697  24.114  0.00  0.00    +0.151 C 
ATOM     23  C   UNL     1      12.308   5.905  22.676  0.00  0.00    +0.030 C 
ATOM     24  C   UNL     1      12.714   4.653  23.367  0.00  0.00    +0.030 C 
ENDBRANCH  19  22
ENDBRANCH  16  19
ENDBRANCH  12  15
BRANCH  13  25
ATOM     25  C   UNL     1       8.578   1.273  21.486  0.00  0.00    -0.028 C 
ATOM     26  C   UNL     1       9.738   0.655  21.740  0.00  0.00    +0.004 C 
ENDBRANCH  13  25
ENDBRANCH   9  12
ENDBRANCH   3   8
BRANCH   1  27
ATOM     27  C   UNL     1       5.157   0.369  27.455  0.00  0.00    +0.168 C 
BRANCH  27  29
ATOM     28  C   UNL     1       4.193  -1.504  28.885  0.00  0.00    +0.013 C 
ATOM     29  C   UNL     1       4.331   0.024  28.757  0.00  0.00    -0.011 C 
ATOM     30  C   UNL     1       5.016   0.455  30.092  0.00  0.00    +0.013 C 
ATOM     31  C   UNL     1       2.975   0.757  28.734  0.00  0.00    +0.013 C 
ENDBRANCH  27  29
BRANCH  27  32
ATOM     32  N   UNL     1       4.784   1.687  26.958  0.00  0.00    -0.269 N 
ATOM     33  H   UNL     1       3.812   1.968  26.948  0.00  0.00    +0.153 HD
ATOM     34  C   UNL     1       5.649   2.684  27.271  0.00  0.00    +0.401 C 
ATOM     35  O   UNL     1       6.825   2.443  27.484  0.00  0.00    -0.226 OA
BRANCH  34  36
ATOM     36  O   UNL     1       5.026   3.871  27.324  0.00  0.00    -0.445 OA
BRANCH  36  37
ATOM     37  C   UNL     1       4.875   4.539  28.606  0.00  0.00    +0.107 C 
ATOM     38  C   UNL     1       5.662   3.916  29.743  0.00  0.00    +0.055 C 
ATOM     39  C   UNL     1       3.374   4.422  28.902  0.00  0.00    +0.055 C 
ATOM     40  C   UNL     1       5.435   5.944  28.557  0.00  0.00    +0.055 C 
ENDBRANCH  36  37
ENDBRANCH  34  36
ENDBRANCH  27  32
ENDBRANCH   1  27
BRANCH   5  41
ATOM     41  O   UNL     1       7.137  -3.663  25.743  0.00  0.00    -0.471 OA
BRANCH  41  42
ATOM     42  C   UNL     1       6.180  -4.614  25.420  0.00  0.00    +0.223 A 
ATOM     43  C   UNL     1       5.425  -5.167  26.467  0.00  0.00    +0.049 A 
ATOM     44  C   UNL     1       5.478  -4.692  27.798  0.00  0.00    +0.034 A 
ATOM     45  C   UNL     1       4.773  -5.338  28.810  0.00  0.00    +0.042 A 
ATOM     46 CL   UNL     1       4.873  -4.759  30.427  0.00  0.00    -0.084 Cl
ATOM     47  C   UNL     1       4.001  -6.456  28.523  0.00  0.00    +0.021 A 
ATOM     48  C   UNL     1       3.917  -6.919  27.208  0.00  0.00    +0.014 A 
ATOM     49  C   UNL     1       4.616  -6.286  26.156  0.00  0.00    +0.030 A 
ATOM     50  C   UNL     1       4.560  -6.747  24.821  0.00  0.00    +0.146 A 
ATOM     51  C   UNL     1       5.311  -6.072  23.868  0.00  0.00    +0.160 A 
ATOM     52  N   UNL     1       6.121  -5.027  24.135  0.00  0.00    -0.217 NA
BRANCH  50  53
ATOM     53  O   UNL     1       3.770  -7.839  24.569  0.00  0.00    -0.493 OA
ATOM     54  C   UNL     1       2.498  -7.598  23.976  0.00  0.00    +0.277 C 
ENDBRANCH  50  53
ENDBRANCH  41  42
ENDBRANCH   5  41
TORSDOF 14
ENDMDL
MODEL 9
REMARK VINA RESULT:      -5.9      1.552      2.204
REMARK  Name = 
REMARK  21 active torsions:
REMARK  status: ('A' for Active; 'I' for Inactive)
REMARK    1  A    between atoms: C_1  and  C_2
REMARK    2  A    between atoms: C_2  and  C_3
REMARK    3  A    between atoms: C_2  and  C_4
REMARK    4  A    between atoms: C_2  and  C_5
REMARK    5  A    between atoms: C_5  and  C_6
REMARK    6  A    between atoms: C_5  and  N_47
REMARK    7  A    between atoms: C_10  and  O_33
REMARK    8  A    between atoms: C_13  and  C_15
REMARK    9  A    between atoms: N_17  and  C_18
REMARK   10  A    between atoms: C_18  and  C_24
REMARK   11  A    between atoms: C_20  and  C_22
REMARK   12  A    between atoms: N_26  and  S_27
REMARK   13  A    between atoms: S_27  and  C_30
REMARK   14  A    between atoms: O_33  and  C_34
REMARK   15  A    between atoms: C_37  and  O_45
REMARK   16  A    between atoms: O_45  and  C_46
REMARK   17  A    between atoms: C_48  and  O_50
REMARK   18  A    between atoms: O_50  and  C_51
REMARK   19  A    between atoms: C_51  and  C_52
REMARK   20  A    between atoms: C_51  and  C_53
REMARK   21  A    between atoms: C_51  and  C_54
REMARK                            x       y       z     vdW  Elec       q    Type
REMARK                         _______ _______ _______ _____ _____    ______ ____
ROOT
ATOM      1  C   UNL     1       6.301   0.141  27.010  0.00  0.00    +0.237 C 
ATOM      2  N   UNL     1       6.905  -0.271  25.823  0.00  0.00    -0.285 N 
ATOM      3  C   UNL     1       6.255  -0.678  24.565  0.00  0.00    +0.166 C 
ATOM      4  C   UNL     1       7.175  -0.132  23.450  0.00  0.00    +0.078 C 
ATOM      5  C   UNL     1       8.243   0.725  24.144  0.00  0.00    +0.195 C 
ATOM      6  C   UNL     1       8.276   0.154  25.559  0.00  0.00    +0.153 C 
ATOM      7  O   UNL     1       6.990   0.600  27.922  0.00  0.00    -0.274 OA
ENDROOT
BRANCH   3   8
ATOM      8  C   UNL     1       6.051  -2.204  24.313  0.00  0.00    +0.234 C 
ATOM      9  N   UNL     1       6.139  -3.045  25.397  0.00  0.00    -0.299 N 
ATOM     10  H   UNL     1       6.316  -2.614  26.298  0.00  0.00    +0.150 HD
ATOM     11  O   UNL     1       5.784  -2.638  23.192  0.00  0.00    -0.274 OA
BRANCH   9  12
ATOM     12  C   UNL     1       6.237  -4.514  25.301  0.00  0.00    +0.119 C 
ATOM     13  C   UNL     1       7.563  -5.250  25.034  0.00  0.00    +0.046 C 
ATOM     14  C   UNL     1       7.062  -5.133  26.440  0.00  0.00    +0.046 C 
BRANCH  12  15
ATOM     15  C   UNL     1       5.014  -5.333  24.780  0.00  0.00    +0.256 C 
ATOM     16  N   UNL     1       3.738  -4.875  25.161  0.00  0.00    -0.188 N 
ATOM     17  H   UNL     1       3.717  -4.067  25.770  0.00  0.00    +0.176 HD
ATOM     18  O   UNL     1       5.195  -6.294  24.040  0.00  0.00    -0.272 OA
BRANCH  16  19
ATOM     19  S   UNL     1       2.352  -5.149  24.243  0.00  0.00    +0.048 S 
ATOM     20  O   UNL     1       2.705  -5.245  22.838  0.00  0.00    -0.155 OA
ATOM     21  O   UNL     1       1.360  -4.211  24.696  0.00  0.00    -0.155 OA
BRANCH  19  22
ATOM     22  C   UNL     1       1.589  -6.789  24.635  0.00  0.00    +0.151 C 
ATOM     23  C   UNL     1       2.112  -7.324  25.946  0.00  0.00    +0.030 C 
ATOM     24  C   UNL     1       2.253  -8.153  24.720  0.00  0.00    +0.030 C 
ENDBRANCH  19  22
ENDBRANCH  16  19
ENDBRANCH  12  15
BRANCH  13  25
ATOM     25  C   UNL     1       8.842  -4.615  24.704  0.00  0.00    -0.028 C 
ATOM     26  C   UNL     1      10.007  -4.829  25.326  0.00  0.00    +0.004 C 
ENDBRANCH  13  25
ENDBRANCH   9  12
ENDBRANCH   3   8
BRANCH   1  27
ATOM     27  C   UNL     1       4.769  -0.057  27.179  0.00  0.00    +0.168 C 
BRANCH  27  29
ATOM     28  C   UNL     1       4.336   2.372  26.552  0.00  0.00    +0.013 C 
ATOM     29  C   UNL     1       3.906   1.230  27.490  0.00  0.00    -0.011 C 
ATOM     30  C   UNL     1       2.378   1.067  27.213  0.00  0.00    +0.013 C 
ATOM     31  C   UNL     1       4.018   1.594  28.984  0.00  0.00    +0.013 C 
ENDBRANCH  27  29
BRANCH  27  32
ATOM     32  N   UNL     1       4.614  -1.036  28.247  0.00  0.00    -0.269 N 
ATOM     33  H   UNL     1       4.582  -0.733  29.211  0.00  0.00    +0.153 HD
ATOM     34  C   UNL     1       3.784  -2.070  27.960  0.00  0.00    +0.401 C 
ATOM     35  O   UNL     1       3.600  -2.418  26.806  0.00  0.00    -0.226 OA
BRANCH  34  36
ATOM     36  O   UNL     1       3.233  -2.576  29.073  0.00  0.00    -0.445 OA
BRANCH  36  37
ATOM     37  C   UNL     1       2.918  -3.994  29.131  0.00  0.00    +0.107 C 
ATOM     38  C   UNL     1       2.438  -4.484  30.484  0.00  0.00    +0.055 C 
ATOM     39  C   UNL     1       4.248  -4.677  28.786  0.00  0.00    +0.055 C 
ATOM     40  C   UNL     1       1.746  -4.329  28.232  0.00  0.00    +0.055 C 
ENDBRANCH  36  37
ENDBRANCH  34  36
ENDBRANCH  27  32
ENDBRANCH   1  27
BRANCH   5  41
ATOM     41  O   UNL     1       7.855   2.111  24.198  0.00  0.00    -0.471 OA
BRANCH  41  42
ATOM     42  C   UNL     1       8.942   2.968  24.098  0.00  0.00    +0.223 A 
ATOM     43  C   UNL     1       8.735   4.326  24.385  0.00  0.00    +0.049 A 
ATOM     44  C   UNL     1       7.527   4.832  24.921  0.00  0.00    +0.034 A 
ATOM     45  C   UNL     1       7.350   6.201  25.102  0.00  0.00    +0.042 A 
ATOM     46 CL   UNL     1       5.864   6.796  25.730  0.00  0.00    -0.084 Cl
ATOM     47  C   UNL     1       8.362   7.089  24.763  0.00  0.00    +0.021 A 
ATOM     48  C   UNL     1       9.570   6.601  24.259  0.00  0.00    +0.014 A 
ATOM     49  C   UNL     1       9.786   5.219  24.066  0.00  0.00    +0.030 A 
ATOM     50  C   UNL     1      10.993   4.704  23.542  0.00  0.00    +0.146 A 
ATOM     51  C   UNL     1      11.091   3.331  23.362  0.00  0.00    +0.160 A 
ATOM     52  N   UNL     1      10.097   2.456  23.618  0.00  0.00    -0.217 NA
BRANCH  50  53
ATOM     53  O   UNL     1      11.980   5.608  23.240  0.00  0.00    -0.493 OA
ATOM     54  C   UNL     1      13.284   5.089  22.997  0.00  0.00    +0.277 C 
ENDBRANCH  50  53
ENDBRANCH  41  42
ENDBRANCH   5  41
TORSDOF 14
ENDMDL
