MODEL 1
REMARK VINA RESULT:      -8.0      0.000      0.000
REMARK  Name = 
REMARK  8 active torsions:
REMARK  status: ('A' for Active; 'I' for Inactive)
REMARK    1  A    between atoms: C_1  and  C_2
REMARK    2  A    between atoms: C_3  and  N_9
REMARK    3  A    between atoms: C_4  and  C_8
REMARK    4  A    between atoms: N_9  and  C_10
REMARK    5  A    between atoms: C_10  and  C_11
REMARK    6  A    between atoms: N_13  and  C_14
REMARK    7  A    between atoms: C_17  and  C_20
REMARK    8  A    between atoms: C_25  and  C_27
REMARK                            x       y       z     vdW  Elec       q    Type
REMARK                         _______ _______ _______ _____ _____    ______ ____
ROOT
ATOM      1  N   UNL     1       6.557  -3.530  23.559  0.00  0.00    -0.262 N 
ATOM      2  C   UNL     1       5.271  -4.064  23.369  0.00  0.00    +0.223 C 
ATOM      3  O   UNL     1       4.585  -3.802  22.373  0.00  0.00    -0.275 OA
ENDROOT
BRANCH   1  11
ATOM      4  C   UNL     1       8.051  -6.151  23.154  0.00  0.00    +0.045 C 
ATOM      5  C   UNL     1       8.287  -5.165  24.271  0.00  0.00    -0.029 A 
ATOM      6  C   UNL     1       9.315  -5.494  25.172  0.00  0.00    +0.005 A 
ATOM      7  C   UNL     1       9.581  -4.699  26.281  0.00  0.00    +0.001 A 
ATOM      8  C   UNL     1       8.751  -3.624  26.565  0.00  0.00    +0.005 A 
ATOM      9  C   UNL     1       7.657  -3.317  25.739  0.00  0.00    -0.029 A 
ATOM     10  C   UNL     1       6.696  -2.280  26.252  0.00  0.00    +0.045 C 
ATOM     11  C   UNL     1       7.477  -4.032  24.529  0.00  0.00    +0.043 A 
ENDBRANCH   1  11
BRANCH   2  12
ATOM     12  C   UNL     1       4.660  -4.969  24.450  0.00  0.00    +0.079 C 
ATOM     13  C   UNL     1       4.226  -6.327  23.848  0.00  0.00    +0.035 C 
ATOM     14  C   UNL     1       2.892  -6.365  23.107  0.00  0.00    +0.166 C 
ATOM     15  S   UNL     1       1.578  -5.667  24.071  0.00  0.00    -0.031 S 
ATOM     16  O   UNL     1       1.439  -6.456  25.282  0.00  0.00    -0.174 OA
ATOM     17  O   UNL     1       0.443  -5.448  23.195  0.00  0.00    -0.174 OA
ATOM     18  C   UNL     1       2.260  -4.088  24.504  0.00  0.00    +0.166 C 
ATOM     19  C   UNL     1       3.573  -4.253  25.250  0.00  0.00    +0.035 C 
ENDBRANCH   2  12
BRANCH   1  20
ATOM     20  C   UNL     1       7.167  -2.955  22.332  0.00  0.00    +0.209 C 
BRANCH  20  21
ATOM     21  C   UNL     1       8.253  -1.859  22.352  0.00  0.00    +0.235 C 
ATOM     22  N   UNL     1       7.802  -0.584  22.666  0.00  0.00    -0.284 N 
ATOM     23  H   UNL     1       6.805  -0.470  22.800  0.00  0.00    +0.155 HD
ATOM     24  O   UNL     1       9.435  -2.179  22.229  0.00  0.00    -0.274 OA
BRANCH  22  25
ATOM     25  C   UNL     1       8.611   0.541  22.968  0.00  0.00    +0.033 A 
ATOM     26  C   UNL     1       9.441   1.042  21.954  0.00  0.00    +0.024 A 
ATOM     27  C   UNL     1      10.188   2.216  22.156  0.00  0.00    +0.013 A 
ATOM     28  C   UNL     1      10.141   2.901  23.378  0.00  0.00    +0.023 A 
ATOM     29  C   UNL     1       9.357   2.365  24.403  0.00  0.00    +0.013 A 
ATOM     30  C   UNL     1       8.596   1.201  24.196  0.00  0.00    +0.024 A 
BRANCH  28  31
ATOM     31  C   UNL     1      10.864   4.160  23.571  0.00  0.00    +0.202 A 
ATOM     32  N   UNL     1      12.202   4.298  23.269  0.00  0.00    -0.194 NA
ATOM     33  C   UNL     1      12.417   5.558  23.557  0.00  0.00    +0.343 A 
ATOM     34  O   UNL     1      11.329   6.211  24.019  0.00  0.00    -0.341 OA
ATOM     35  N   UNL     1      10.291   5.285  24.029  0.00  0.00    -0.056 NA
ENDBRANCH  28  31
ENDBRANCH  22  25
ENDBRANCH  20  21
ENDBRANCH   1  20
TORSDOF 6
ENDMDL
MODEL 2
REMARK VINA RESULT:      -7.9      1.055      1.854
REMARK  Name = 
REMARK  8 active torsions:
REMARK  status: ('A' for Active; 'I' for Inactive)
REMARK    1  A    between atoms: C_1  and  C_2
REMARK    2  A    between atoms: C_3  and  N_9
REMARK    3  A    between atoms: C_4  and  C_8
REMARK    4  A    between atoms: N_9  and  C_10
REMARK    5  A    between atoms: C_10  and  C_11
REMARK    6  A    between atoms: N_13  and  C_14
REMARK    7  A    between atoms: C_17  and  C_20
REMARK    8  A    between atoms: C_25  and  C_27
REMARK                            x       y       z     vdW  Elec       q    Type
REMARK                         _______ _______ _______ _____ _____    ______ ____
ROOT
ATOM      1  N   UNL     1       5.922  -3.694  23.857  0.00  0.00    -0.262 N 
ATOM      2  C   UNL     1       4.839  -4.589  23.821  0.00  0.00    +0.223 C 
ATOM      3  O   UNL     1       3.911  -4.474  23.010  0.00  0.00    -0.275 OA
ENDROOT
BRANCH   1  11
ATOM      4  C   UNL     1       6.812  -1.986  26.214  0.00  0.00    +0.045 C 
ATOM      5  C   UNL     1       7.466  -3.266  25.757  0.00  0.00    -0.029 A 
ATOM      6  C   UNL     1       8.560  -3.704  26.523  0.00  0.00    +0.005 A 
ATOM      7  C   UNL     1       9.286  -4.832  26.160  0.00  0.00    +0.001 A 
ATOM      8  C   UNL     1       8.997  -5.475  24.965  0.00  0.00    +0.005 A 
ATOM      9  C   UNL     1       7.970  -5.013  24.125  0.00  0.00    -0.029 A 
ATOM     10  C   UNL     1       7.884  -5.638  22.760  0.00  0.00    +0.045 C 
ATOM     11  C   UNL     1       7.132  -3.960  24.567  0.00  0.00    +0.043 A 
ENDBRANCH   1  11
BRANCH   2  12
ATOM     12  C   UNL     1       4.763  -5.728  24.849  0.00  0.00    +0.079 C 
ATOM     13  C   UNL     1       3.999  -6.942  24.268  0.00  0.00    +0.035 C 
ATOM     14  C   UNL     1       2.473  -6.873  24.280  0.00  0.00    +0.166 C 
ATOM     15  S   UNL     1       1.841  -6.452  25.882  0.00  0.00    -0.031 S 
ATOM     16  O   UNL     1       2.250  -7.487  26.814  0.00  0.00    -0.174 OA
ATOM     17  O   UNL     1       0.443  -6.096  25.735  0.00  0.00    -0.174 OA
ATOM     18  C   UNL     1       2.757  -4.976  26.244  0.00  0.00    +0.166 C 
ATOM     19  C   UNL     1       4.252  -5.245  26.204  0.00  0.00    +0.035 C 
ENDBRANCH   2  12
BRANCH   1  20
ATOM     20  C   UNL     1       6.061  -2.854  22.639  0.00  0.00    +0.209 C 
BRANCH  20  21
ATOM     21  C   UNL     1       7.168  -1.795  22.455  0.00  0.00    +0.235 C 
ATOM     22  N   UNL     1       6.883  -0.543  22.982  0.00  0.00    -0.284 N 
ATOM     23  H   UNL     1       5.964  -0.415  23.389  0.00  0.00    +0.155 HD
ATOM     24  O   UNL     1       8.256  -2.134  21.991  0.00  0.00    -0.274 OA
BRANCH  22  25
ATOM     25  C   UNL     1       7.799   0.527  23.145  0.00  0.00    +0.033 A 
ATOM     26  C   UNL     1       7.946   1.431  22.083  0.00  0.00    +0.024 A 
ATOM     27  C   UNL     1       8.758   2.570  22.220  0.00  0.00    +0.013 A 
ATOM     28  C   UNL     1       9.458   2.820  23.409  0.00  0.00    +0.023 A 
ATOM     29  C   UNL     1       9.352   1.886  24.443  0.00  0.00    +0.013 A 
ATOM     30  C   UNL     1       8.526   0.756  24.312  0.00  0.00    +0.024 A 
BRANCH  28  31
ATOM     31  C   UNL     1      10.252   4.038  23.582  0.00  0.00    +0.202 A 
ATOM     32  N   UNL     1      11.601   4.087  23.305  0.00  0.00    -0.194 NA
ATOM     33  C   UNL     1      11.887   5.340  23.561  0.00  0.00    +0.343 A 
ATOM     34  O   UNL     1      10.831   6.070  23.981  0.00  0.00    -0.341 OA
ATOM     35  N   UNL     1       9.739   5.209  23.996  0.00  0.00    -0.056 NA
ENDBRANCH  28  31
ENDBRANCH  22  25
ENDBRANCH  20  21
ENDBRANCH   1  20
TORSDOF 6
ENDMDL
MODEL 3
REMARK VINA RESULT:      -7.2      1.715      2.260
REMARK  Name = 
REMARK  8 active torsions:
REMARK  status: ('A' for Active; 'I' for Inactive)
REMARK    1  A    between atoms: C_1  and  C_2
REMARK    2  A    between atoms: C_3  and  N_9
REMARK    3  A    between atoms: C_4  and  C_8
REMARK    4  A    between atoms: N_9  and  C_10
REMARK    5  A    between atoms: C_10  and  C_11
REMARK    6  A    between atoms: N_13  and  C_14
REMARK    7  A    between atoms: C_17  and  C_20
REMARK    8  A    between atoms: C_25  and  C_27
REMARK                            x       y       z     vdW  Elec       q    Type
REMARK                         _______ _______ _______ _____ _____    ______ ____
ROOT
ATOM      1  N   UNL     1       5.442  -3.696  25.408  0.00  0.00    -0.262 N 
ATOM      2  C   UNL     1       4.358  -4.296  24.744  0.00  0.00    +0.223 C 
ATOM      3  O   UNL     1       3.289  -3.705  24.551  0.00  0.00    -0.275 OA
ENDROOT
BRANCH   1  11
ATOM      4  C   UNL     1       7.060  -3.889  22.837  0.00  0.00    +0.045 C 
ATOM      5  C   UNL     1       7.574  -4.175  24.226  0.00  0.00    -0.029 A 
ATOM      6  C   UNL     1       8.932  -4.529  24.317  0.00  0.00    +0.005 A 
ATOM      7  C   UNL     1       9.503  -4.882  25.534  0.00  0.00    +0.001 A 
ATOM      8  C   UNL     1       8.699  -4.994  26.659  0.00  0.00    +0.005 A 
ATOM      9  C   UNL     1       7.319  -4.738  26.589  0.00  0.00    -0.029 A 
ATOM     10  C   UNL     1       6.505  -5.101  27.801  0.00  0.00    +0.045 C 
ATOM     11  C   UNL     1       6.765  -4.231  25.388  0.00  0.00    +0.043 A 
ENDBRANCH   1  11
BRANCH   2  12
ATOM     12  C   UNL     1       4.471  -5.756  24.278  0.00  0.00    +0.079 C 
ATOM     13  C   UNL     1       3.531  -6.024  23.078  0.00  0.00    +0.035 C 
ATOM     14  C   UNL     1       2.057  -6.271  23.391  0.00  0.00    +0.166 C 
ATOM     15  S   UNL     1       1.844  -7.517  24.635  0.00  0.00    -0.031 S 
ATOM     16  O   UNL     1       2.409  -8.756  24.133  0.00  0.00    -0.174 OA
ATOM     17  O   UNL     1       0.471  -7.462  25.097  0.00  0.00    -0.174 OA
ATOM     18  C   UNL     1       2.893  -6.905  25.929  0.00  0.00    +0.166 C 
ATOM     19  C   UNL     1       4.320  -6.742  25.435  0.00  0.00    +0.035 C 
ENDBRANCH   2  12
BRANCH   1  20
ATOM     20  C   UNL     1       5.348  -2.216  25.514  0.00  0.00    +0.209 C 
BRANCH  20  21
ATOM     21  C   UNL     1       6.571  -1.278  25.458  0.00  0.00    +0.235 C 
ATOM     22  N   UNL     1       6.751  -0.610  24.255  0.00  0.00    -0.284 N 
ATOM     23  H   UNL     1       6.107  -0.832  23.506  0.00  0.00    +0.155 HD
ATOM     24  O   UNL     1       7.220  -1.071  26.483  0.00  0.00    -0.274 OA
BRANCH  22  25
ATOM     25  C   UNL     1       7.649   0.461  24.015  0.00  0.00    +0.033 A 
ATOM     26  C   UNL     1       7.126   1.762  23.989  0.00  0.00    +0.024 A 
ATOM     27  C   UNL     1       7.976   2.873  23.860  0.00  0.00    +0.013 A 
ATOM     28  C   UNL     1       9.363   2.711  23.730  0.00  0.00    +0.023 A 
ATOM     29  C   UNL     1       9.873   1.410  23.698  0.00  0.00    +0.013 A 
ATOM     30  C   UNL     1       9.024   0.299  23.846  0.00  0.00    +0.024 A 
BRANCH  28  31
ATOM     31  C   UNL     1      10.260   3.866  23.662  0.00  0.00    +0.202 A 
ATOM     32  N   UNL     1       9.835   5.150  23.932  0.00  0.00    -0.194 NA
ATOM     33  C   UNL     1      10.939   5.839  23.788  0.00  0.00    +0.343 A 
ATOM     34  O   UNL     1      12.012   5.094  23.444  0.00  0.00    -0.341 OA
ATOM     35  N   UNL     1      11.565   3.779  23.360  0.00  0.00    -0.056 NA
ENDBRANCH  28  31
ENDBRANCH  22  25
ENDBRANCH  20  21
ENDBRANCH   1  20
TORSDOF 6
ENDMDL
MODEL 4
REMARK VINA RESULT:      -7.1      2.639      3.910
REMARK  Name = 
REMARK  8 active torsions:
REMARK  status: ('A' for Active; 'I' for Inactive)
REMARK    1  A    between atoms: C_1  and  C_2
REMARK    2  A    between atoms: C_3  and  N_9
REMARK    3  A    between atoms: C_4  and  C_8
REMARK    4  A    between atoms: N_9  and  C_10
REMARK    5  A    between atoms: C_10  and  C_11
REMARK    6  A    between atoms: N_13  and  C_14
REMARK    7  A    between atoms: C_17  and  C_20
REMARK    8  A    between atoms: C_25  and  C_27
REMARK                            x       y       z     vdW  Elec       q    Type
REMARK                         _______ _______ _______ _____ _____    ______ ____
ROOT
ATOM      1  N   UNL     1       7.404  -4.420  25.183  0.00  0.00    -0.262 N 
ATOM      2  C   UNL     1       6.707  -4.623  26.386  0.00  0.00    +0.223 C 
ATOM      3  O   UNL     1       7.268  -4.614  27.488  0.00  0.00    -0.275 OA
ENDROOT
BRANCH   1  11
ATOM      4  C   UNL     1       5.671  -1.946  24.805  0.00  0.00    +0.045 C 
ATOM      5  C   UNL     1       6.084  -2.908  23.719  0.00  0.00    -0.029 A 
ATOM      6  C   UNL     1       5.644  -2.593  22.421  0.00  0.00    +0.005 A 
ATOM      7  C   UNL     1       5.902  -3.439  21.349  0.00  0.00    +0.001 A 
ATOM      8  C   UNL     1       6.509  -4.665  21.578  0.00  0.00    +0.005 A 
ATOM      9  C   UNL     1       6.881  -5.057  22.875  0.00  0.00    -0.029 A 
ATOM     10  C   UNL     1       7.324  -6.484  23.047  0.00  0.00    +0.045 C 
ATOM     11  C   UNL     1       6.758  -4.134  23.942  0.00  0.00    +0.043 A 
ENDBRANCH   1  11
BRANCH   2  12
ATOM     12  C   UNL     1       5.199  -4.916  26.346  0.00  0.00    +0.079 C 
ATOM     13  C   UNL     1       4.459  -4.139  27.462  0.00  0.00    +0.035 C 
ATOM     14  C   UNL     1       4.505  -4.732  28.869  0.00  0.00    +0.166 C 
ATOM     15  S   UNL     1       4.031  -6.440  28.884  0.00  0.00    -0.031 S 
ATOM     16  O   UNL     1       2.664  -6.534  28.403  0.00  0.00    -0.174 OA
ATOM     17  O   UNL     1       4.405  -7.001  30.168  0.00  0.00    -0.174 OA
ATOM     18  C   UNL     1       5.109  -7.115  27.646  0.00  0.00    +0.166 C 
ATOM     19  C   UNL     1       4.906  -6.414  26.314  0.00  0.00    +0.035 C 
ENDBRANCH   2  12
BRANCH   1  20
ATOM     20  C   UNL     1       8.757  -3.828  25.355  0.00  0.00    +0.209 C 
BRANCH  20  21
ATOM     21  C   UNL     1       9.018  -2.311  25.458  0.00  0.00    +0.235 C 
ATOM     22  N   UNL     1       9.405  -1.695  24.276  0.00  0.00    -0.284 N 
ATOM     23  H   UNL     1       9.536  -2.292  23.469  0.00  0.00    +0.155 HD
ATOM     24  O   UNL     1       8.749  -1.723  26.505  0.00  0.00    -0.274 OA
BRANCH  22  25
ATOM     25  C   UNL     1       9.489  -0.298  24.046  0.00  0.00    +0.033 A 
ATOM     26  C   UNL     1       8.329   0.366  23.617  0.00  0.00    +0.024 A 
ATOM     27  C   UNL     1       8.318   1.764  23.472  0.00  0.00    +0.013 A 
ATOM     28  C   UNL     1       9.466   2.526  23.726  0.00  0.00    +0.023 A 
ATOM     29  C   UNL     1      10.634   1.854  24.097  0.00  0.00    +0.013 A 
ATOM     30  C   UNL     1      10.641   0.457  24.260  0.00  0.00    +0.024 A 
BRANCH  28  31
ATOM     31  C   UNL     1       9.442   3.988  23.640  0.00  0.00    +0.202 A 
ATOM     32  N   UNL     1      10.583   4.754  23.742  0.00  0.00    -0.194 NA
ATOM     33  C   UNL     1      10.113   5.966  23.579  0.00  0.00    +0.343 A 
ATOM     34  O   UNL     1       8.777   6.018  23.394  0.00  0.00    -0.341 OA
ATOM     35  N   UNL     1       8.324   4.703  23.432  0.00  0.00    -0.056 NA
ENDBRANCH  28  31
ENDBRANCH  22  25
ENDBRANCH  20  21
ENDBRANCH   1  20
TORSDOF 6
ENDMDL
MODEL 5
REMARK VINA RESULT:      -6.8      3.656      9.673
REMARK  Name = 
REMARK  8 active torsions:
REMARK  status: ('A' for Active; 'I' for Inactive)
REMARK    1  A    between atoms: C_1  and  C_2
REMARK    2  A    between atoms: C_3  and  N_9
REMARK    3  A    between atoms: C_4  and  C_8
REMARK    4  A    between atoms: N_9  and  C_10
REMARK    5  A    between atoms: C_10  and  C_11
REMARK    6  A    between atoms: N_13  and  C_14
REMARK    7  A    between atoms: C_17  and  C_20
REMARK    8  A    between atoms: C_25  and  C_27
REMARK                            x       y       z     vdW  Elec       q    Type
REMARK                         _______ _______ _______ _____ _____    ______ ____
ROOT
ATOM      1  N   UNL     1       8.134   0.990  24.889  0.00  0.00    -0.262 N 
ATOM      2  C   UNL     1       8.196   2.391  24.970  0.00  0.00    +0.223 C 
ATOM      3  O   UNL     1       7.883   3.011  25.995  0.00  0.00    -0.275 OA
ENDROOT
BRANCH   1  11
ATOM      4  C   UNL     1      11.161   0.791  24.636  0.00  0.00    +0.045 C 
ATOM      5  C   UNL     1      10.155   0.017  23.821  0.00  0.00    -0.029 A 
ATOM      6  C   UNL     1      10.689  -0.895  22.893  0.00  0.00    +0.005 A 
ATOM      7  C   UNL     1       9.865  -1.615  22.037  0.00  0.00    +0.001 A 
ATOM      8  C   UNL     1       8.502  -1.355  22.021  0.00  0.00    +0.005 A 
ATOM      9  C   UNL     1       7.942  -0.385  22.869  0.00  0.00    -0.029 A 
ATOM     10  C   UNL     1       6.504  -0.022  22.620  0.00  0.00    +0.045 C 
ATOM     11  C   UNL     1       8.756   0.239  23.846  0.00  0.00    +0.043 A 
ENDBRANCH   1  11
BRANCH   2  12
ATOM     12  C   UNL     1       8.619   3.204  23.736  0.00  0.00    +0.079 C 
ATOM     13  C   UNL     1       9.451   4.441  24.152  0.00  0.00    +0.035 C 
ATOM     14  C   UNL     1       8.681   5.661  24.652  0.00  0.00    +0.166 C 
ATOM     15  S   UNL     1       7.388   6.131  23.533  0.00  0.00    -0.031 S 
ATOM     16  O   UNL     1       7.995   6.476  22.260  0.00  0.00    -0.174 OA
ATOM     17  O   UNL     1       6.519   7.069  24.218  0.00  0.00    -0.174 OA
ATOM     18  C   UNL     1       6.514   4.599  23.342  0.00  0.00    +0.166 C 
ATOM     19  C   UNL     1       7.437   3.512  22.820  0.00  0.00    +0.035 C 
ENDBRANCH   2  12
BRANCH   1  20
ATOM     20  C   UNL     1       8.038   0.306  26.205  0.00  0.00    +0.209 C 
BRANCH  20  21
ATOM     21  C   UNL     1       7.605  -1.165  26.372  0.00  0.00    +0.235 C 
ATOM     22  N   UNL     1       6.315  -1.454  25.951  0.00  0.00    -0.284 N 
ATOM     23  H   UNL     1       5.753  -0.677  25.626  0.00  0.00    +0.155 HD
ATOM     24  O   UNL     1       8.435  -2.002  26.727  0.00  0.00    -0.274 OA
BRANCH  22  25
ATOM     25  C   UNL     1       5.754  -2.746  25.788  0.00  0.00    +0.033 A 
ATOM     26  C   UNL     1       4.915  -3.230  26.802  0.00  0.00    +0.024 A 
ATOM     27  C   UNL     1       4.246  -4.457  26.654  0.00  0.00    +0.013 A 
ATOM     28  C   UNL     1       4.417  -5.239  25.503  0.00  0.00    +0.023 A 
ATOM     29  C   UNL     1       5.300  -4.779  24.521  0.00  0.00    +0.013 A 
ATOM     30  C   UNL     1       5.955  -3.543  24.662  0.00  0.00    +0.024 A 
BRANCH  28  31
ATOM     31  C   UNL     1       3.672  -6.485  25.313  0.00  0.00    +0.202 A 
ATOM     32  N   UNL     1       2.433  -6.700  25.878  0.00  0.00    -0.194 NA
ATOM     33  C   UNL     1       2.133  -7.894  25.432  0.00  0.00    +0.343 A 
ATOM     34  O   UNL     1       3.085  -8.443  24.645  0.00  0.00    -0.341 OA
ATOM     35  N   UNL     1       4.112  -7.508  24.562  0.00  0.00    -0.056 NA
ENDBRANCH  28  31
ENDBRANCH  22  25
ENDBRANCH  20  21
ENDBRANCH   1  20
TORSDOF 6
ENDMDL
MODEL 6
REMARK VINA RESULT:      -6.4      4.816     10.086
REMARK  Name = 
REMARK  8 active torsions:
REMARK  status: ('A' for Active; 'I' for Inactive)
REMARK    1  A    between atoms: C_1  and  C_2
REMARK    2  A    between atoms: C_3  and  N_9
REMARK    3  A    between atoms: C_4  and  C_8
REMARK    4  A    between atoms: N_9  and  C_10
REMARK    5  A    between atoms: C_10  and  C_11
REMARK    6  A    between atoms: N_13  and  C_14
REMARK    7  A    between atoms: C_17  and  C_20
REMARK    8  A    between atoms: C_25  and  C_27
REMARK                            x       y       z     vdW  Elec       q    Type
REMARK                         _______ _______ _______ _____ _____    ______ ____
ROOT
ATOM      1  N   UNL     1       7.168   4.374  24.145  0.00  0.00    -0.262 N 
ATOM      2  C   UNL     1       7.612   4.979  25.333  0.00  0.00    +0.223 C 
ATOM      3  O   UNL     1       8.732   4.761  25.810  0.00  0.00    -0.275 OA
ENDROOT
BRANCH   1  11
ATOM      4  C   UNL     1       4.633   2.699  23.963  0.00  0.00    +0.045 C 
ATOM      5  C   UNL     1       4.792   4.116  23.469  0.00  0.00    -0.029 A 
ATOM      6  C   UNL     1       3.643   4.702  22.908  0.00  0.00    +0.005 A 
ATOM      7  C   UNL     1       3.683   5.977  22.356  0.00  0.00    +0.001 A 
ATOM      8  C   UNL     1       4.897   6.640  22.258  0.00  0.00    +0.005 A 
ATOM      9  C   UNL     1       6.084   6.050  22.723  0.00  0.00    -0.029 A 
ATOM     10  C   UNL     1       7.368   6.749  22.370  0.00  0.00    +0.045 C 
ATOM     11  C   UNL     1       6.021   4.819  23.422  0.00  0.00    +0.043 A 
ENDBRANCH   1  11
BRANCH   2  12
ATOM     12  C   UNL     1       6.666   5.910  26.107  0.00  0.00    +0.079 C 
ATOM     13  C   UNL     1       7.443   7.108  26.706  0.00  0.00    +0.035 C 
ATOM     14  C   UNL     1       8.210   6.860  28.003  0.00  0.00    +0.166 C 
ATOM     15  S   UNL     1       7.191   6.102  29.240  0.00  0.00    -0.031 S 
ATOM     16  O   UNL     1       6.092   7.004  29.535  0.00  0.00    -0.174 OA
ATOM     17  O   UNL     1       8.054   5.615  30.299  0.00  0.00    -0.174 OA
ATOM     18  C   UNL     1       6.548   4.703  28.358  0.00  0.00    +0.166 C 
ATOM     19  C   UNL     1       5.804   5.148  27.111  0.00  0.00    +0.035 C 
ENDBRANCH   2  12
BRANCH   1  20
ATOM     20  C   UNL     1       8.253   3.773  23.325  0.00  0.00    +0.209 C 
BRANCH  20  21
ATOM     21  C   UNL     1       8.148   2.385  22.659  0.00  0.00    +0.235 C 
ATOM     22  N   UNL     1       8.257   1.304  23.523  0.00  0.00    -0.284 N 
ATOM     23  H   UNL     1       8.448   1.511  24.495  0.00  0.00    +0.155 HD
ATOM     24  O   UNL     1       7.849   2.308  21.467  0.00  0.00    -0.274 OA
BRANCH  22  25
ATOM     25  C   UNL     1       7.978  -0.051  23.211  0.00  0.00    +0.033 A 
ATOM     26  C   UNL     1       6.723  -0.562  23.575  0.00  0.00    +0.024 A 
ATOM     27  C   UNL     1       6.345  -1.864  23.203  0.00  0.00    +0.013 A 
ATOM     28  C   UNL     1       7.217  -2.692  22.483  0.00  0.00    +0.023 A 
ATOM     29  C   UNL     1       8.488  -2.198  22.174  0.00  0.00    +0.013 A 
ATOM     30  C   UNL     1       8.859  -0.890  22.530  0.00  0.00    +0.024 A 
BRANCH  28  31
ATOM     31  C   UNL     1       6.804  -4.023  22.036  0.00  0.00    +0.202 A 
ATOM     32  N   UNL     1       7.401  -5.177  22.498  0.00  0.00    -0.194 NA
ATOM     33  C   UNL     1       6.716  -6.106  21.878  0.00  0.00    +0.343 A 
ATOM     34  O   UNL     1       5.751  -5.627  21.064  0.00  0.00    -0.341 OA
ATOM     35  N   UNL     1       5.804  -4.240  21.166  0.00  0.00    -0.056 NA
ENDBRANCH  28  31
ENDBRANCH  22  25
ENDBRANCH  20  21
ENDBRANCH   1  20
TORSDOF 6
ENDMDL
MODEL 7
REMARK VINA RESULT:      -6.1      4.577      9.324
REMARK  Name = 
REMARK  8 active torsions:
REMARK  status: ('A' for Active; 'I' for Inactive)
REMARK    1  A    between atoms: C_1  and  C_2
REMARK    2  A    between atoms: C_3  and  N_9
REMARK    3  A    between atoms: C_4  and  C_8
REMARK    4  A    between atoms: N_9  and  C_10
REMARK    5  A    between atoms: C_10  and  C_11
REMARK    6  A    between atoms: N_13  and  C_14
REMARK    7  A    between atoms: C_17  and  C_20
REMARK    8  A    between atoms: C_25  and  C_27
REMARK                            x       y       z     vdW  Elec       q    Type
REMARK                         _______ _______ _______ _____ _____    ______ ____
ROOT
ATOM      1  N   UNL     1       7.674   3.694  25.078  0.00  0.00    -0.262 N 
ATOM      2  C   UNL     1       7.147   3.573  26.375  0.00  0.00    +0.223 C 
ATOM      3  O   UNL     1       7.497   2.676  27.152  0.00  0.00    -0.275 OA
ENDROOT
BRANCH   1  11
ATOM      4  C   UNL     1       9.098   6.301  25.743  0.00  0.00    +0.045 C 
ATOM      5  C   UNL     1       8.298   6.027  24.493  0.00  0.00    -0.029 A 
ATOM      6  C   UNL     1       8.250   7.072  23.554  0.00  0.00    +0.005 A 
ATOM      7  C   UNL     1       7.490   6.964  22.396  0.00  0.00    +0.001 A 
ATOM      8  C   UNL     1       6.679   5.853  22.213  0.00  0.00    +0.005 A 
ATOM      9  C   UNL     1       6.629   4.828  23.173  0.00  0.00    -0.029 A 
ATOM     10  C   UNL     1       5.562   3.784  22.989  0.00  0.00    +0.045 C 
ATOM     11  C   UNL     1       7.516   4.865  24.276  0.00  0.00    +0.043 A 
ENDBRANCH   1  11
BRANCH   2  12
ATOM     12  C   UNL     1       6.060   4.551  26.845  0.00  0.00    +0.079 C 
ATOM     13  C   UNL     1       6.328   5.013  28.298  0.00  0.00    +0.035 C 
ATOM     14  C   UNL     1       5.911   4.062  29.418  0.00  0.00    +0.166 C 
ATOM     15  S   UNL     1       4.231   3.523  29.238  0.00  0.00    -0.031 S 
ATOM     16  O   UNL     1       3.373   4.692  29.302  0.00  0.00    -0.174 OA
ATOM     17  O   UNL     1       4.020   2.400  30.131  0.00  0.00    -0.174 OA
ATOM     18  C   UNL     1       4.232   2.917  27.571  0.00  0.00    +0.166 C 
ATOM     19  C   UNL     1       4.654   4.008  26.601  0.00  0.00    +0.035 C 
ENDBRANCH   2  12
BRANCH   1  20
ATOM     20  C   UNL     1       8.925   2.923  24.853  0.00  0.00    +0.209 C 
BRANCH  20  21
ATOM     21  C   UNL     1       8.967   1.553  24.145  0.00  0.00    +0.235 C 
ATOM     22  N   UNL     1       8.167   0.570  24.711  0.00  0.00    -0.284 N 
ATOM     23  H   UNL     1       7.672   0.813  25.560  0.00  0.00    +0.155 HD
ATOM     24  O   UNL     1       9.574   1.442  23.080  0.00  0.00    -0.274 OA
BRANCH  22  25
ATOM     25  C   UNL     1       7.853  -0.689  24.138  0.00  0.00    +0.033 A 
ATOM     26  C   UNL     1       6.533  -0.906  23.716  0.00  0.00    +0.024 A 
ATOM     27  C   UNL     1       6.181  -2.091  23.047  0.00  0.00    +0.013 A 
ATOM     28  C   UNL     1       7.130  -3.094  22.806  0.00  0.00    +0.023 A 
ATOM     29  C   UNL     1       8.430  -2.897  23.281  0.00  0.00    +0.013 A 
ATOM     30  C   UNL     1       8.786  -1.704  23.934  0.00  0.00    +0.024 A 
BRANCH  28  31
ATOM     31  C   UNL     1       6.785  -4.301  22.052  0.00  0.00    +0.202 A 
ATOM     32  N   UNL     1       7.296  -5.542  22.367  0.00  0.00    -0.194 NA
ATOM     33  C   UNL     1       6.712  -6.310  21.482  0.00  0.00    +0.343 A 
ATOM     34  O   UNL     1       5.887  -5.651  20.640  0.00  0.00    -0.341 OA
ATOM     35  N   UNL     1       5.931  -4.312  21.015  0.00  0.00    -0.056 NA
ENDBRANCH  28  31
ENDBRANCH  22  25
ENDBRANCH  20  21
ENDBRANCH   1  20
TORSDOF 6
ENDMDL
MODEL 8
REMARK VINA RESULT:      -6.1      2.422      3.377
REMARK  Name = 
REMARK  8 active torsions:
REMARK  status: ('A' for Active; 'I' for Inactive)
REMARK    1  A    between atoms: C_1  and  C_2
REMARK    2  A    between atoms: C_3  and  N_9
REMARK    3  A    between atoms: C_4  and  C_8
REMARK    4  A    between atoms: N_9  and  C_10
REMARK    5  A    between atoms: C_10  and  C_11
REMARK    6  A    between atoms: N_13  and  C_14
REMARK    7  A    between atoms: C_17  and  C_20
REMARK    8  A    between atoms: C_25  and  C_27
REMARK                            x       y       z     vdW  Elec       q    Type
REMARK                         _______ _______ _______ _____ _____    ______ ____
ROOT
ATOM      1  N   UNL     1       5.250  -3.808  26.049  0.00  0.00    -0.262 N 
ATOM      2  C   UNL     1       4.444  -4.501  25.131  0.00  0.00    +0.223 C 
ATOM      3  O   UNL     1       4.731  -4.589  23.930  0.00  0.00    -0.275 OA
ENDROOT
BRANCH   1  11
ATOM      4  C   UNL     1       3.559  -1.868  27.675  0.00  0.00    +0.045 C 
ATOM      5  C   UNL     1       4.200  -3.130  28.196  0.00  0.00    -0.029 A 
ATOM      6  C   UNL     1       3.951  -3.431  29.547  0.00  0.00    +0.005 A 
ATOM      7  C   UNL     1       4.542  -4.530  30.159  0.00  0.00    +0.001 A 
ATOM      8  C   UNL     1       5.476  -5.281  29.460  0.00  0.00    +0.005 A 
ATOM      9  C   UNL     1       5.820  -4.957  28.138  0.00  0.00    -0.029 A 
ATOM     10  C   UNL     1       6.996  -5.688  27.549  0.00  0.00    +0.045 C 
ATOM     11  C   UNL     1       5.109  -3.933  27.464  0.00  0.00    +0.043 A 
ENDBRANCH   1  11
BRANCH   2  12
ATOM     12  C   UNL     1       3.129  -5.138  25.607  0.00  0.00    +0.079 C 
ATOM     13  C   UNL     1       3.241  -6.682  25.623  0.00  0.00    +0.035 C 
ATOM     14  C   UNL     1       3.070  -7.405  24.288  0.00  0.00    +0.166 C 
ATOM     15  S   UNL     1       1.595  -6.898  23.445  0.00  0.00    -0.031 S 
ATOM     16  O   UNL     1       0.458  -7.233  24.284  0.00  0.00    -0.174 OA
ATOM     17  O   UNL     1       1.672  -7.374  22.077  0.00  0.00    -0.174 OA
ATOM     18  C   UNL     1       1.784  -5.134  23.433  0.00  0.00    +0.166 C 
ATOM     19  C   UNL     1       1.920  -4.597  24.847  0.00  0.00    +0.035 C 
ENDBRANCH   2  12
BRANCH   1  20
ATOM     20  C   UNL     1       6.626  -3.526  25.562  0.00  0.00    +0.209 C 
BRANCH  20  21
ATOM     21  C   UNL     1       7.295  -2.139  25.654  0.00  0.00    +0.235 C 
ATOM     22  N   UNL     1       8.207  -1.853  24.647  0.00  0.00    -0.284 N 
ATOM     23  H   UNL     1       8.395  -2.589  23.976  0.00  0.00    +0.155 HD
ATOM     24  O   UNL     1       6.905  -1.335  26.500  0.00  0.00    -0.274 OA
BRANCH  22  25
ATOM     25  C   UNL     1       8.786  -0.588  24.372  0.00  0.00    +0.033 A 
ATOM     26  C   UNL     1       7.992   0.369  23.722  0.00  0.00    +0.024 A 
ATOM     27  C   UNL     1       8.470   1.674  23.515  0.00  0.00    +0.013 A 
ATOM     28  C   UNL     1       9.757   2.046  23.928  0.00  0.00    +0.023 A 
ATOM     29  C   UNL     1      10.564   1.073  24.523  0.00  0.00    +0.013 A 
ATOM     30  C   UNL     1      10.079  -0.228  24.747  0.00  0.00    +0.024 A 
BRANCH  28  31
ATOM     31  C   UNL     1      10.236   3.421  23.775  0.00  0.00    +0.202 A 
ATOM     32  N   UNL     1       9.425   4.516  23.986  0.00  0.00    -0.194 NA
ATOM     33  C   UNL     1      10.249   5.511  23.776  0.00  0.00    +0.343 A 
ATOM     34  O   UNL     1      11.501   5.128  23.444  0.00  0.00    -0.341 OA
ATOM     35  N   UNL     1      11.499   3.737  23.443  0.00  0.00    -0.056 NA
ENDBRANCH  28  31
ENDBRANCH  22  25
ENDBRANCH  20  21
ENDBRANCH   1  20
TORSDOF 6
ENDMDL
MODEL 9
REMARK VINA RESULT:      -6.1      2.543      3.698
REMARK  Name = 
REMARK  8 active torsions:
REMARK  status: ('A' for Active; 'I' for Inactive)
REMARK    1  A    between atoms: C_1  and  C_2
REMARK    2  A    between atoms: C_3  and  N_9
REMARK    3  A    between atoms: C_4  and  C_8
REMARK    4  A    between atoms: N_9  and  C_10
REMARK    5  A    between atoms: C_10  and  C_11
REMARK    6  A    between atoms: N_13  and  C_14
REMARK    7  A    between atoms: C_17  and  C_20
REMARK    8  A    between atoms: C_25  and  C_27
REMARK                            x       y       z     vdW  Elec       q    Type
REMARK                         _______ _______ _______ _____ _____    ______ ____
ROOT
ATOM      1  N   UNL     1       6.687  -3.117  26.360  0.00  0.00    -0.262 N 
ATOM      2  C   UNL     1       6.667  -3.678  25.073  0.00  0.00    +0.223 C 
ATOM      3  O   UNL     1       7.627  -3.594  24.298  0.00  0.00    -0.275 OA
ENDROOT
BRANCH   1  11
ATOM      4  C   UNL     1       6.769  -5.763  27.860  0.00  0.00    +0.045 C 
ATOM      5  C   UNL     1       5.863  -4.600  28.175  0.00  0.00    -0.029 A 
ATOM      6  C   UNL     1       5.015  -4.765  29.285  0.00  0.00    +0.005 A 
ATOM      7  C   UNL     1       4.087  -3.791  29.632  0.00  0.00    +0.001 A 
ATOM      8  C   UNL     1       3.918  -2.685  28.811  0.00  0.00    +0.005 A 
ATOM      9  C   UNL     1       4.683  -2.528  27.643  0.00  0.00    -0.029 A 
ATOM     10  C   UNL     1       4.272  -1.421  26.712  0.00  0.00    +0.045 C 
ATOM     11  C   UNL     1       5.731  -3.441  27.370  0.00  0.00    +0.043 A 
ENDBRANCH   1  11
BRANCH   2  12
ATOM     12  C   UNL     1       5.396  -4.385  24.575  0.00  0.00    +0.079 C 
ATOM     13  C   UNL     1       5.633  -5.909  24.437  0.00  0.00    +0.035 C 
ATOM     14  C   UNL     1       6.355  -6.389  23.180  0.00  0.00    +0.166 C 
ATOM     15  S   UNL     1       5.617  -5.741  21.704  0.00  0.00    -0.031 S 
ATOM     16  O   UNL     1       4.245  -6.213  21.641  0.00  0.00    -0.174 OA
ATOM     17  O   UNL     1       6.532  -5.974  20.604  0.00  0.00    -0.174 OA
ATOM     18  C   UNL     1       5.597  -4.002  22.055  0.00  0.00    +0.166 C 
ATOM     19  C   UNL     1       4.819  -3.717  23.328  0.00  0.00    +0.035 C 
ENDBRANCH   2  12
BRANCH   1  20
ATOM     20  C   UNL     1       8.045  -2.760  26.849  0.00  0.00    +0.209 C 
BRANCH  20  21
ATOM     21  C   UNL     1       8.706  -1.388  26.605  0.00  0.00    +0.235 C 
ATOM     22  N   UNL     1       8.724  -0.966  25.283  0.00  0.00    -0.284 N 
ATOM     23  H   UNL     1       8.357  -1.608  24.591  0.00  0.00    +0.155 HD
ATOM     24  O   UNL     1       9.047  -0.702  27.569  0.00  0.00    -0.274 OA
BRANCH  22  25
ATOM     25  C   UNL     1       9.063   0.331  24.819  0.00  0.00    +0.033 A 
ATOM     26  C   UNL     1       8.045   1.295  24.767  0.00  0.00    +0.024 A 
ATOM     27  C   UNL     1       8.337   2.624  24.416  0.00  0.00    +0.013 A 
ATOM     28  C   UNL     1       9.642   3.016  24.089  0.00  0.00    +0.023 A 
ATOM     29  C   UNL     1      10.641   2.039  24.087  0.00  0.00    +0.013 A 
ATOM     30  C   UNL     1      10.353   0.713  24.455  0.00  0.00    +0.024 A 
BRANCH  28  31
ATOM     31  C   UNL     1       9.963   4.413  23.788  0.00  0.00    +0.202 A 
ATOM     32  N   UNL     1       9.016   5.414  23.823  0.00  0.00    -0.194 NA
ATOM     33  C   UNL     1       9.729   6.473  23.530  0.00  0.00    +0.343 A 
ATOM     34  O   UNL     1      11.035   6.214  23.308  0.00  0.00    -0.341 OA
ATOM     35  N   UNL     1      11.198   4.843  23.479  0.00  0.00    -0.056 NA
ENDBRANCH  28  31
ENDBRANCH  22  25
ENDBRANCH  20  21
ENDBRANCH   1  20
TORSDOF 6
ENDMDL
