MODEL 1
REMARK VINA RESULT:      -7.4      0.000      0.000
REMARK  Name = 
REMARK  14 active torsions:
REMARK  status: ('A' for Active; 'I' for Inactive)
REMARK    1  A    between atoms: C_1  and  C_2
REMARK    2  A    between atoms: N_4  and  C_5
REMARK    3  A    between atoms: C_5  and  C_7
REMARK    4  A    between atoms: C_5  and  C_14
REMARK    5  A    between atoms: C_7  and  C_8
REMARK    6  A    between atoms: C_14  and  C_15
REMARK    7  A    between atoms: C_15  and  C_17
REMARK    8  A    between atoms: C_15  and  O_36
REMARK    9  A    between atoms: C_17  and  C_19
REMARK   10  A    between atoms: C_17  and  N_26
REMARK   11  A    between atoms: C_19  and  C_20
REMARK   12  A    between atoms: C_27  and  O_29
REMARK   13  A    between atoms: O_29  and  C_30
REMARK   14  A    between atoms: C_30  and  C_31
REMARK                            x       y       z     vdW  Elec       q    Type
REMARK                         _______ _______ _______ _____ _____    ______ ____
ROOT
ATOM      1  C   UNL     1       8.721  -2.664  23.136  0.00  0.00    +0.109 C 
ENDROOT
BRANCH   1   2
ATOM      2  N   UNL     1       8.502  -2.978  24.556  0.00  0.00    -0.275 N 
ATOM      3  H   UNL     1       7.753  -2.507  25.044  0.00  0.00    +0.152 HD
ATOM      4  C   UNL     1       9.058  -4.018  25.227  0.00  0.00    +0.401 C 
ATOM      5  O   UNL     1       9.885  -4.799  24.769  0.00  0.00    -0.226 OA
BRANCH   4   6
ATOM      6  O   UNL     1       8.564  -4.057  26.487  0.00  0.00    -0.445 OA
BRANCH   6   7
ATOM      7  C   UNL     1       7.196  -3.648  26.627  0.00  0.00    +0.278 C 
BRANCH   7   8
ATOM      8  C   UNL     1       6.379  -4.859  26.921  0.00  0.00    +0.046 A 
ATOM      9  S   UNL     1       5.680  -5.127  28.462  0.00  0.00    -0.077 S 
ATOM     10  C   UNL     1       4.988  -6.584  27.875  0.00  0.00    +0.156 A 
ATOM     11  N   UNL     1       5.256  -6.890  26.625  0.00  0.00    -0.255 NA
ATOM     12  C   UNL     1       6.049  -5.901  26.076  0.00  0.00    +0.125 A 
ENDBRANCH   7   8
ENDBRANCH   6   7
ENDBRANCH   4   6
ENDBRANCH   1   2
BRANCH   1  13
ATOM     13  C   UNL     1       9.665  -1.438  22.958  0.00  0.00    +0.137 C 
BRANCH  13  14
ATOM     14  O   UNL     1      10.594  -1.693  21.896  0.00  0.00    -0.390 OA
ATOM     15  H   UNL     1      10.225  -2.402  21.341  0.00  0.00    +0.210 HD
ENDBRANCH  13  14
BRANCH  13  16
ATOM     16  C   UNL     1       8.961  -0.081  22.711  0.00  0.00    +0.055 C 
BRANCH  16  17
ATOM     17  C   UNL     1       9.214   1.113  23.688  0.00  0.00    +0.080 C 
BRANCH  17  20
ATOM     18  C   UNL     1       8.734  -0.431  27.145  0.00  0.00    +0.109 C 
ATOM     19  C   UNL     1       8.356   0.302  25.882  0.00  0.00    +0.210 C 
ATOM     20  N   UNL     1       9.413   0.553  25.039  0.00  0.00    -0.312 N 
ATOM     21  H   UNL     1      10.304   0.123  25.249  0.00  0.00    +0.149 HD
ATOM     22  O   UNL     1       7.198   0.601  25.620  0.00  0.00    -0.276 OA
ENDBRANCH  17  20
BRANCH  17  23
ATOM     23  C   UNL     1      10.437   1.949  23.250  0.00  0.00    +0.057 C 
BRANCH  23  24
ATOM     24  C   UNL     1      10.590   3.429  23.522  0.00  0.00    -0.046 A 
ATOM     25  C   UNL     1       9.433   4.091  23.987  0.00  0.00    +0.004 A 
ATOM     26  C   UNL     1       9.428   5.459  24.241  0.00  0.00    +0.000 A 
ATOM     27  C   UNL     1      10.586   6.197  24.037  0.00  0.00    +0.000 A 
ATOM     28  C   UNL     1      11.749   5.554  23.606  0.00  0.00    +0.000 A 
ATOM     29  C   UNL     1      11.757   4.175  23.356  0.00  0.00    +0.004 A 
ENDBRANCH  23  24
ENDBRANCH  17  23
ENDBRANCH  16  17
ENDBRANCH  13  16
ENDBRANCH   1  13
BRANCH   1  30
ATOM     30  C   UNL     1       7.387  -2.477  22.373  0.00  0.00    +0.060 C 
BRANCH  30  31
ATOM     31  C   UNL     1       6.449  -3.660  22.470  0.00  0.00    -0.046 A 
ATOM     32  C   UNL     1       5.175  -3.506  23.029  0.00  0.00    +0.004 A 
ATOM     33  C   UNL     1       4.320  -4.600  23.157  0.00  0.00    +0.000 A 
ATOM     34  C   UNL     1       4.732  -5.862  22.733  0.00  0.00    +0.000 A 
ATOM     35  C   UNL     1       5.997  -6.029  22.174  0.00  0.00    +0.000 A 
ATOM     36  C   UNL     1       6.852  -4.933  22.040  0.00  0.00    +0.004 A 
ENDBRANCH  30  31
ENDBRANCH   1  30
TORSDOF 13
ENDMDL
MODEL 2
REMARK VINA RESULT:      -7.3      2.424      7.884
REMARK  Name = 
REMARK  14 active torsions:
REMARK  status: ('A' for Active; 'I' for Inactive)
REMARK    1  A    between atoms: C_1  and  C_2
REMARK    2  A    between atoms: N_4  and  C_5
REMARK    3  A    between atoms: C_5  and  C_7
REMARK    4  A    between atoms: C_5  and  C_14
REMARK    5  A    between atoms: C_7  and  C_8
REMARK    6  A    between atoms: C_14  and  C_15
REMARK    7  A    between atoms: C_15  and  C_17
REMARK    8  A    between atoms: C_15  and  O_36
REMARK    9  A    between atoms: C_17  and  C_19
REMARK   10  A    between atoms: C_17  and  N_26
REMARK   11  A    between atoms: C_19  and  C_20
REMARK   12  A    between atoms: C_27  and  O_29
REMARK   13  A    between atoms: O_29  and  C_30
REMARK   14  A    between atoms: C_30  and  C_31
REMARK                            x       y       z     vdW  Elec       q    Type
REMARK                         _______ _______ _______ _____ _____    ______ ____
ROOT
ATOM      1  C   UNL     1       8.456  -2.515  24.761  0.00  0.00    +0.109 C 
ENDROOT
BRANCH   1   2
ATOM      2  N   UNL     1       9.477  -1.496  24.471  0.00  0.00    -0.275 N 
ATOM      3  H   UNL     1      10.154  -1.273  25.187  0.00  0.00    +0.152 HD
ATOM      4  C   UNL     1       9.753  -0.984  23.245  0.00  0.00    +0.401 C 
ATOM      5  O   UNL     1       9.138  -1.238  22.215  0.00  0.00    -0.226 OA
BRANCH   4   6
ATOM      6  O   UNL     1      10.810  -0.142  23.335  0.00  0.00    -0.445 OA
BRANCH   6   7
ATOM      7  C   UNL     1      10.864   0.655  24.527  0.00  0.00    +0.278 C 
BRANCH   7   8
ATOM      8  C   UNL     1      10.115   1.917  24.274  0.00  0.00    +0.046 A 
ATOM      9  S   UNL     1       8.559   2.195  24.936  0.00  0.00    -0.077 S 
ATOM     10  C   UNL     1       8.542   3.745  24.200  0.00  0.00    +0.156 A 
ATOM     11  N   UNL     1       9.598   4.059  23.486  0.00  0.00    -0.255 NA
ATOM     12  C   UNL     1      10.503   3.016  23.531  0.00  0.00    +0.125 A 
ENDBRANCH   7   8
ENDBRANCH   6   7
ENDBRANCH   4   6
ENDBRANCH   1   2
BRANCH   1  13
ATOM     13  C   UNL     1       8.165  -2.617  26.287  0.00  0.00    +0.137 C 
BRANCH  13  14
ATOM     14  O   UNL     1       8.419  -1.352  26.914  0.00  0.00    -0.390 OA
ATOM     15  H   UNL     1       7.720  -1.201  27.573  0.00  0.00    +0.210 HD
ENDBRANCH  13  14
BRANCH  13  16
ATOM     16  C   UNL     1       6.744  -3.103  26.666  0.00  0.00    +0.055 C 
BRANCH  16  17
ATOM     17  C   UNL     1       6.554  -4.515  27.310  0.00  0.00    +0.080 C 
BRANCH  17  20
ATOM     18  C   UNL     1       4.345  -4.774  30.411  0.00  0.00    +0.109 C 
ATOM     19  C   UNL     1       5.462  -5.132  29.462  0.00  0.00    +0.210 C 
ATOM     20  N   UNL     1       5.452  -4.419  28.286  0.00  0.00    -0.312 N 
ATOM     21  H   UNL     1       4.811  -3.641  28.205  0.00  0.00    +0.149 HD
ATOM     22  O   UNL     1       6.322  -5.955  29.745  0.00  0.00    -0.276 OA
ENDBRANCH  17  20
BRANCH  17  23
ATOM     23  C   UNL     1       6.250  -5.586  26.238  0.00  0.00    +0.057 C 
BRANCH  23  24
ATOM     24  C   UNL     1       5.042  -5.553  25.328  0.00  0.00    -0.046 A 
ATOM     25  C   UNL     1       4.603  -6.804  24.844  0.00  0.00    +0.004 A 
ATOM     26  C   UNL     1       3.524  -6.911  23.971  0.00  0.00    +0.000 A 
ATOM     27  C   UNL     1       2.858  -5.762  23.564  0.00  0.00    +0.000 A 
ATOM     28  C   UNL     1       3.259  -4.518  24.057  0.00  0.00    +0.000 A 
ATOM     29  C   UNL     1       4.341  -4.411  24.942  0.00  0.00    +0.004 A 
ENDBRANCH  23  24
ENDBRANCH  17  23
ENDBRANCH  16  17
ENDBRANCH  13  16
ENDBRANCH   1  13
BRANCH   1  30
ATOM     30  C   UNL     1       8.824  -3.890  24.153  0.00  0.00    +0.060 C 
BRANCH  30  31
ATOM     31  C   UNL     1       7.797  -4.431  23.183  0.00  0.00    -0.046 A 
ATOM     32  C   UNL     1       7.761  -5.799  22.884  0.00  0.00    +0.004 A 
ATOM     33  C   UNL     1       6.842  -6.298  21.961  0.00  0.00    +0.000 A 
ATOM     34  C   UNL     1       5.953  -5.435  21.322  0.00  0.00    +0.000 A 
ATOM     35  C   UNL     1       5.978  -4.073  21.611  0.00  0.00    +0.000 A 
ATOM     36  C   UNL     1       6.894  -3.571  22.539  0.00  0.00    +0.004 A 
ENDBRANCH  30  31
ENDBRANCH   1  30
TORSDOF 13
ENDMDL
MODEL 3
REMARK VINA RESULT:      -7.2      2.804      8.030
REMARK  Name = 
REMARK  14 active torsions:
REMARK  status: ('A' for Active; 'I' for Inactive)
REMARK    1  A    between atoms: C_1  and  C_2
REMARK    2  A    between atoms: N_4  and  C_5
REMARK    3  A    between atoms: C_5  and  C_7
REMARK    4  A    between atoms: C_5  and  C_14
REMARK    5  A    between atoms: C_7  and  C_8
REMARK    6  A    between atoms: C_14  and  C_15
REMARK    7  A    between atoms: C_15  and  C_17
REMARK    8  A    between atoms: C_15  and  O_36
REMARK    9  A    between atoms: C_17  and  C_19
REMARK   10  A    between atoms: C_17  and  N_26
REMARK   11  A    between atoms: C_19  and  C_20
REMARK   12  A    between atoms: C_27  and  O_29
REMARK   13  A    between atoms: O_29  and  C_30
REMARK   14  A    between atoms: C_30  and  C_31
REMARK                            x       y       z     vdW  Elec       q    Type
REMARK                         _______ _______ _______ _____ _____    ______ ____
ROOT
ATOM      1  C   UNL     1       8.430  -2.681  25.001  0.00  0.00    +0.109 C 
ENDROOT
BRANCH   1   2
ATOM      2  N   UNL     1       9.360  -1.547  24.886  0.00  0.00    -0.275 N 
ATOM      3  H   UNL     1      10.225  -1.682  24.382  0.00  0.00    +0.152 HD
ATOM      4  C   UNL     1       9.070  -0.257  25.191  0.00  0.00    +0.401 C 
ATOM      5  O   UNL     1       8.018   0.138  25.681  0.00  0.00    -0.226 OA
BRANCH   4   6
ATOM      6  O   UNL     1      10.127   0.529  24.877  0.00  0.00    -0.445 OA
BRANCH   6   7
ATOM      7  C   UNL     1      10.316   0.781  23.478  0.00  0.00    +0.278 C 
BRANCH   7   8
ATOM      8  C   UNL     1       9.291   1.771  23.044  0.00  0.00    +0.046 A 
ATOM      9  S   UNL     1       9.180   3.328  23.753  0.00  0.00    -0.077 S 
ATOM     10  C   UNL     1       7.881   3.698  22.694  0.00  0.00    +0.156 A 
ATOM     11  N   UNL     1       7.516   2.743  21.869  0.00  0.00    -0.255 NA
ATOM     12  C   UNL     1       8.325   1.640  22.064  0.00  0.00    +0.125 A 
ENDBRANCH   7   8
ENDBRANCH   6   7
ENDBRANCH   4   6
ENDBRANCH   1   2
BRANCH   1  13
ATOM     13  C   UNL     1       8.224  -3.106  26.485  0.00  0.00    +0.137 C 
BRANCH  13  14
ATOM     14  O   UNL     1       7.066  -2.451  27.019  0.00  0.00    -0.390 OA
ATOM     15  H   UNL     1       7.351  -1.916  27.780  0.00  0.00    +0.210 HD
ENDBRANCH  13  14
BRANCH  13  16
ATOM     16  C   UNL     1       8.114  -4.631  26.735  0.00  0.00    +0.055 C 
BRANCH  16  17
ATOM     17  C   UNL     1       6.704  -5.291  26.888  0.00  0.00    +0.080 C 
BRANCH  17  20
ATOM     18  C   UNL     1       5.743  -6.128  30.485  0.00  0.00    +0.109 C 
ATOM     19  C   UNL     1       5.908  -6.344  29.001  0.00  0.00    +0.210 C 
ATOM     20  N   UNL     1       6.332  -5.229  28.315  0.00  0.00    -0.312 N 
ATOM     21  H   UNL     1       6.626  -4.422  28.849  0.00  0.00    +0.149 HD
ATOM     22  O   UNL     1       5.723  -7.432  28.473  0.00  0.00    -0.276 OA
ENDBRANCH  17  20
BRANCH  17  23
ATOM     23  C   UNL     1       5.650  -4.578  26.011  0.00  0.00    +0.057 C 
BRANCH  23  24
ATOM     24  C   UNL     1       4.690  -5.297  25.091  0.00  0.00    -0.046 A 
ATOM     25  C   UNL     1       3.864  -4.472  24.297  0.00  0.00    +0.004 A 
ATOM     26  C   UNL     1       2.912  -5.006  23.434  0.00  0.00    +0.000 A 
ATOM     27  C   UNL     1       2.767  -6.384  23.345  0.00  0.00    +0.000 A 
ATOM     28  C   UNL     1       3.596  -7.218  24.101  0.00  0.00    +0.000 A 
ATOM     29  C   UNL     1       4.560  -6.680  24.965  0.00  0.00    +0.004 A 
ENDBRANCH  23  24
ENDBRANCH  17  23
ENDBRANCH  16  17
ENDBRANCH  13  16
ENDBRANCH   1  13
BRANCH   1  30
ATOM     30  C   UNL     1       8.863  -3.875  24.116  0.00  0.00    +0.060 C 
BRANCH  30  31
ATOM     31  C   UNL     1       7.809  -4.329  23.131  0.00  0.00    -0.046 A 
ATOM     32  C   UNL     1       7.643  -5.692  22.853  0.00  0.00    +0.004 A 
ATOM     33  C   UNL     1       6.700  -6.114  21.917  0.00  0.00    +0.000 A 
ATOM     34  C   UNL     1       5.915  -5.179  21.244  0.00  0.00    +0.000 A 
ATOM     35  C   UNL     1       6.068  -3.821  21.513  0.00  0.00    +0.000 A 
ATOM     36  C   UNL     1       7.009  -3.396  22.454  0.00  0.00    +0.004 A 
ENDBRANCH  30  31
ENDBRANCH   1  30
TORSDOF 13
ENDMDL
MODEL 4
REMARK VINA RESULT:      -7.0      2.183      3.908
REMARK  Name = 
REMARK  14 active torsions:
REMARK  status: ('A' for Active; 'I' for Inactive)
REMARK    1  A    between atoms: C_1  and  C_2
REMARK    2  A    between atoms: N_4  and  C_5
REMARK    3  A    between atoms: C_5  and  C_7
REMARK    4  A    between atoms: C_5  and  C_14
REMARK    5  A    between atoms: C_7  and  C_8
REMARK    6  A    between atoms: C_14  and  C_15
REMARK    7  A    between atoms: C_15  and  C_17
REMARK    8  A    between atoms: C_15  and  O_36
REMARK    9  A    between atoms: C_17  and  C_19
REMARK   10  A    between atoms: C_17  and  N_26
REMARK   11  A    between atoms: C_19  and  C_20
REMARK   12  A    between atoms: C_27  and  O_29
REMARK   13  A    between atoms: O_29  and  C_30
REMARK   14  A    between atoms: C_30  and  C_31
REMARK                            x       y       z     vdW  Elec       q    Type
REMARK                         _______ _______ _______ _____ _____    ______ ____
ROOT
ATOM      1  C   UNL     1       8.863  -1.101  23.432  0.00  0.00    +0.109 C 
ENDROOT
BRANCH   1   2
ATOM      2  N   UNL     1       8.685  -2.552  23.274  0.00  0.00    -0.275 N 
ATOM      3  H   UNL     1       9.420  -3.166  23.594  0.00  0.00    +0.152 HD
ATOM      4  C   UNL     1       7.522  -3.172  22.950  0.00  0.00    +0.401 C 
ATOM      5  O   UNL     1       6.472  -2.607  22.664  0.00  0.00    -0.226 OA
BRANCH   4   6
ATOM      6  O   UNL     1       7.703  -4.514  22.982  0.00  0.00    -0.445 OA
BRANCH   6   7
ATOM      7  C   UNL     1       6.661  -5.262  23.625  0.00  0.00    +0.278 C 
BRANCH   7   8
ATOM      8  C   UNL     1       6.834  -5.125  25.098  0.00  0.00    +0.046 A 
ATOM      9  S   UNL     1       5.502  -4.879  26.147  0.00  0.00    -0.077 S 
ATOM     10  C   UNL     1       6.577  -4.881  27.485  0.00  0.00    +0.156 A 
ATOM     11  N   UNL     1       7.851  -5.032  27.204  0.00  0.00    -0.255 NA
ATOM     12  C   UNL     1       8.000  -5.177  25.838  0.00  0.00    +0.125 A 
ENDBRANCH   7   8
ENDBRANCH   6   7
ENDBRANCH   4   6
ENDBRANCH   1   2
BRANCH   1  13
ATOM     13  C   UNL     1       9.869  -0.529  22.390  0.00  0.00    +0.137 C 
BRANCH  13  14
ATOM     14  O   UNL     1      10.382  -1.594  21.578  0.00  0.00    -0.390 OA
ATOM     15  H   UNL     1      11.212  -1.901  21.981  0.00  0.00    +0.210 HD
ENDBRANCH  13  14
BRANCH  13  16
ATOM     16  C   UNL     1       9.320   0.595  21.477  0.00  0.00    +0.055 C 
BRANCH  16  17
ATOM     17  C   UNL     1       9.057   2.018  22.071  0.00  0.00    +0.080 C 
BRANCH  17  20
ATOM     18  C   UNL     1       5.418   2.895  22.815  0.00  0.00    +0.109 C 
ATOM     19  C   UNL     1       6.844   3.121  22.378  0.00  0.00    +0.210 C 
ATOM     20  N   UNL     1       7.673   2.042  22.582  0.00  0.00    -0.312 N 
ATOM     21  H   UNL     1       7.255   1.165  22.866  0.00  0.00    +0.149 HD
ATOM     22  O   UNL     1       7.209   4.161  21.848  0.00  0.00    -0.276 OA
ENDBRANCH  17  20
BRANCH  17  23
ATOM     23  C   UNL     1      10.066   2.355  23.193  0.00  0.00    +0.057 C 
BRANCH  23  24
ATOM     24  C   UNL     1      10.462   3.762  23.577  0.00  0.00    -0.046 A 
ATOM     25  C   UNL     1      11.797   4.123  23.295  0.00  0.00    +0.004 A 
ATOM     26  C   UNL     1      12.301   5.377  23.630  0.00  0.00    +0.000 A 
ATOM     27  C   UNL     1      11.474   6.300  24.256  0.00  0.00    +0.000 A 
ATOM     28  C   UNL     1      10.141   5.972  24.516  0.00  0.00    +0.000 A 
ATOM     29  C   UNL     1       9.632   4.712  24.172  0.00  0.00    +0.004 A 
ENDBRANCH  23  24
ENDBRANCH  17  23
ENDBRANCH  16  17
ENDBRANCH  13  16
ENDBRANCH   1  13
BRANCH   1  30
ATOM     30  C   UNL     1       9.259  -0.722  24.880  0.00  0.00    +0.060 C 
BRANCH  30  31
ATOM     31  C   UNL     1       8.095  -0.296  25.747  0.00  0.00    -0.046 A 
ATOM     32  C   UNL     1       7.286  -1.258  26.365  0.00  0.00    +0.004 A 
ATOM     33  C   UNL     1       6.188  -0.872  27.134  0.00  0.00    +0.000 A 
ATOM     34  C   UNL     1       5.882   0.479  27.288  0.00  0.00    +0.000 A 
ATOM     35  C   UNL     1       6.679   1.446  26.680  0.00  0.00    +0.000 A 
ATOM     36  C   UNL     1       7.783   1.062  25.914  0.00  0.00    +0.004 A 
ENDBRANCH  30  31
ENDBRANCH   1  30
TORSDOF 13
ENDMDL
MODEL 5
REMARK VINA RESULT:      -7.0      2.346      4.932
REMARK  Name = 
REMARK  14 active torsions:
REMARK  status: ('A' for Active; 'I' for Inactive)
REMARK    1  A    between atoms: C_1  and  C_2
REMARK    2  A    between atoms: N_4  and  C_5
REMARK    3  A    between atoms: C_5  and  C_7
REMARK    4  A    between atoms: C_5  and  C_14
REMARK    5  A    between atoms: C_7  and  C_8
REMARK    6  A    between atoms: C_14  and  C_15
REMARK    7  A    between atoms: C_15  and  C_17
REMARK    8  A    between atoms: C_15  and  O_36
REMARK    9  A    between atoms: C_17  and  C_19
REMARK   10  A    between atoms: C_17  and  N_26
REMARK   11  A    between atoms: C_19  and  C_20
REMARK   12  A    between atoms: C_27  and  O_29
REMARK   13  A    between atoms: O_29  and  C_30
REMARK   14  A    between atoms: C_30  and  C_31
REMARK                            x       y       z     vdW  Elec       q    Type
REMARK                         _______ _______ _______ _____ _____    ______ ____
ROOT
ATOM      1  C   UNL     1       6.592  -2.156  26.034  0.00  0.00    +0.109 C 
ENDROOT
BRANCH   1   2
ATOM      2  N   UNL     1       5.456  -2.712  26.785  0.00  0.00    -0.275 N 
ATOM      3  H   UNL     1       5.531  -2.785  27.789  0.00  0.00    +0.152 HD
ATOM      4  C   UNL     1       4.212  -2.925  26.287  0.00  0.00    +0.401 C 
ATOM      5  O   UNL     1       3.876  -2.759  25.120  0.00  0.00    -0.226 OA
BRANCH   4   6
ATOM      6  O   UNL     1       3.398  -3.357  27.279  0.00  0.00    -0.445 OA
BRANCH   6   7
ATOM      7  C   UNL     1       3.027  -4.741  27.215  0.00  0.00    +0.278 C 
BRANCH   7   8
ATOM      8  C   UNL     1       4.050  -5.529  27.957  0.00  0.00    +0.046 A 
ATOM      9  S   UNL     1       4.561  -5.091  29.533  0.00  0.00    -0.077 S 
ATOM     10  C   UNL     1       5.602  -6.456  29.556  0.00  0.00    +0.156 A 
ATOM     11  N   UNL     1       5.607  -7.198  28.472  0.00  0.00    -0.255 NA
ATOM     12  C   UNL     1       4.716  -6.672  27.557  0.00  0.00    +0.125 A 
ENDBRANCH   7   8
ENDBRANCH   6   7
ENDBRANCH   4   6
ENDBRANCH   1   2
BRANCH   1  13
ATOM     13  C   UNL     1       7.746  -3.191  25.888  0.00  0.00    +0.137 C 
BRANCH  13  14
ATOM     14  O   UNL     1       7.253  -4.377  25.249  0.00  0.00    -0.390 OA
ATOM     15  H   UNL     1       8.015  -4.950  25.055  0.00  0.00    +0.210 HD
ENDBRANCH  13  14
BRANCH  13  16
ATOM     16  C   UNL     1       9.005  -2.689  25.139  0.00  0.00    +0.055 C 
BRANCH  16  17
ATOM     17  C   UNL     1       9.110  -2.871  23.589  0.00  0.00    +0.080 C 
BRANCH  17  20
ATOM     18  C   UNL     1       5.641  -3.038  22.006  0.00  0.00    +0.109 C 
ATOM     19  C   UNL     1       7.027  -3.504  22.376  0.00  0.00    +0.210 C 
ATOM     20  N   UNL     1       7.791  -2.551  23.010  0.00  0.00    -0.312 N 
ATOM     21  H   UNL     1       7.340  -1.692  23.298  0.00  0.00    +0.149 HD
ATOM     22  O   UNL     1       7.412  -4.646  22.165  0.00  0.00    -0.276 OA
ENDBRANCH  17  20
BRANCH  17  23
ATOM     23  C   UNL     1      10.210  -1.967  22.989  0.00  0.00    +0.057 C 
BRANCH  23  24
ATOM     24  C   UNL     1      10.211  -0.458  23.087  0.00  0.00    -0.046 A 
ATOM     25  C   UNL     1       9.802   0.233  21.926  0.00  0.00    +0.004 A 
ATOM     26  C   UNL     1       9.791   1.624  21.871  0.00  0.00    +0.000 A 
ATOM     27  C   UNL     1      10.188   2.355  22.982  0.00  0.00    +0.000 A 
ATOM     28  C   UNL     1      10.567   1.689  24.150  0.00  0.00    +0.000 A 
ATOM     29  C   UNL     1      10.572   0.288  24.208  0.00  0.00    +0.004 A 
ENDBRANCH  23  24
ENDBRANCH  17  23
ENDBRANCH  16  17
ENDBRANCH  13  16
ENDBRANCH   1  13
BRANCH   1  30
ATOM     30  C   UNL     1       7.091  -0.823  26.643  0.00  0.00    +0.060 C 
BRANCH  30  31
ATOM     31  C   UNL     1       7.004   0.358  25.702  0.00  0.00    -0.046 A 
ATOM     32  C   UNL     1       7.348   1.641  26.145  0.00  0.00    +0.004 A 
ATOM     33  C   UNL     1       7.233   2.739  25.294  0.00  0.00    +0.000 A 
ATOM     34  C   UNL     1       6.767   2.569  23.992  0.00  0.00    +0.000 A 
ATOM     35  C   UNL     1       6.422   1.298  23.538  0.00  0.00    +0.000 A 
ATOM     36  C   UNL     1       6.541   0.195  24.387  0.00  0.00    +0.004 A 
ENDBRANCH  30  31
ENDBRANCH   1  30
TORSDOF 13
ENDMDL
MODEL 6
REMARK VINA RESULT:      -6.9      2.837      5.028
REMARK  Name = 
REMARK  14 active torsions:
REMARK  status: ('A' for Active; 'I' for Inactive)
REMARK    1  A    between atoms: C_1  and  C_2
REMARK    2  A    between atoms: N_4  and  C_5
REMARK    3  A    between atoms: C_5  and  C_7
REMARK    4  A    between atoms: C_5  and  C_14
REMARK    5  A    between atoms: C_7  and  C_8
REMARK    6  A    between atoms: C_14  and  C_15
REMARK    7  A    between atoms: C_15  and  C_17
REMARK    8  A    between atoms: C_15  and  O_36
REMARK    9  A    between atoms: C_17  and  C_19
REMARK   10  A    between atoms: C_17  and  N_26
REMARK   11  A    between atoms: C_19  and  C_20
REMARK   12  A    between atoms: C_27  and  O_29
REMARK   13  A    between atoms: O_29  and  C_30
REMARK   14  A    between atoms: C_30  and  C_31
REMARK                            x       y       z     vdW  Elec       q    Type
REMARK                         _______ _______ _______ _____ _____    ______ ____
ROOT
ATOM      1  C   UNL     1       9.016   0.510  22.736  0.00  0.00    +0.109 C 
ENDROOT
BRANCH   1   2
ATOM      2  N   UNL     1       8.866  -0.805  23.378  0.00  0.00    -0.275 N 
ATOM      3  H   UNL     1       8.020  -0.995  23.897  0.00  0.00    +0.152 HD
ATOM      4  C   UNL     1       9.653  -1.887  23.150  0.00  0.00    +0.401 C 
ATOM      5  O   UNL     1      10.650  -1.902  22.437  0.00  0.00    -0.226 OA
BRANCH   4   6
ATOM      6  O   UNL     1       9.171  -2.947  23.840  0.00  0.00    -0.445 OA
BRANCH   6   7
ATOM      7  C   UNL     1       8.822  -2.689  25.207  0.00  0.00    +0.278 C 
BRANCH   7   8
ATOM      8  C   UNL     1       8.034  -3.848  25.711  0.00  0.00    +0.046 A 
ATOM      9  S   UNL     1       6.467  -4.204  25.116  0.00  0.00    -0.077 S 
ATOM     10  C   UNL     1       6.402  -5.570  26.153  0.00  0.00    +0.156 A 
ATOM     11  N   UNL     1       7.452  -5.766  26.918  0.00  0.00    -0.255 NA
ATOM     12  C   UNL     1       8.389  -4.783  26.664  0.00  0.00    +0.125 A 
ENDBRANCH   7   8
ENDBRANCH   6   7
ENDBRANCH   4   6
ENDBRANCH   1   2
BRANCH   1  13
ATOM     13  C   UNL     1       9.371   1.618  23.771  0.00  0.00    +0.137 C 
BRANCH  13  14
ATOM     14  O   UNL     1       9.374   1.060  25.093  0.00  0.00    -0.390 OA
ATOM     15  H   UNL     1       9.229   1.788  25.722  0.00  0.00    +0.210 HD
ENDBRANCH  13  14
BRANCH  13  16
ATOM     16  C   UNL     1      10.706   2.362  23.523  0.00  0.00    +0.055 C 
BRANCH  16  17
ATOM     17  C   UNL     1      10.813   3.889  23.845  0.00  0.00    +0.080 C 
BRANCH  17  20
ATOM     18  C   UNL     1      13.526   5.819  21.979  0.00  0.00    +0.109 C 
ATOM     19  C   UNL     1      12.635   5.432  23.134  0.00  0.00    +0.210 C 
ATOM     20  N   UNL     1      11.669   4.506  22.814  0.00  0.00    -0.312 N 
ATOM     21  H   UNL     1      11.714   4.064  21.905  0.00  0.00    +0.149 HD
ATOM     22  O   UNL     1      12.796   5.877  24.262  0.00  0.00    -0.276 OA
ENDBRANCH  17  20
BRANCH  17  23
ATOM     23  C   UNL     1       9.419   4.557  23.878  0.00  0.00    +0.057 C 
BRANCH  23  24
ATOM     24  C   UNL     1       8.786   5.129  25.126  0.00  0.00    -0.046 A 
ATOM     25  C   UNL     1       7.914   4.265  25.824  0.00  0.00    +0.004 A 
ATOM     26  C   UNL     1       7.239   4.678  26.968  0.00  0.00    +0.000 A 
ATOM     27  C   UNL     1       7.424   5.970  27.442  0.00  0.00    +0.000 A 
ATOM     28  C   UNL     1       8.306   6.830  26.782  0.00  0.00    +0.000 A 
ATOM     29  C   UNL     1       8.992   6.411  25.633  0.00  0.00    +0.004 A 
ENDBRANCH  23  24
ENDBRANCH  17  23
ENDBRANCH  16  17
ENDBRANCH  13  16
ENDBRANCH   1  13
BRANCH   1  30
ATOM     30  C   UNL     1       7.772   0.887  21.895  0.00  0.00    +0.060 C 
BRANCH  30  31
ATOM     31  C   UNL     1       6.787   1.782  22.616  0.00  0.00    -0.046 A 
ATOM     32  C   UNL     1       6.582   3.098  22.183  0.00  0.00    +0.004 A 
ATOM     33  C   UNL     1       5.706   3.940  22.867  0.00  0.00    +0.000 A 
ATOM     34  C   UNL     1       5.028   3.478  23.994  0.00  0.00    +0.000 A 
ATOM     35  C   UNL     1       5.222   2.171  24.434  0.00  0.00    +0.000 A 
ATOM     36  C   UNL     1       6.096   1.324  23.748  0.00  0.00    +0.004 A 
ENDBRANCH  30  31
ENDBRANCH   1  30
TORSDOF 13
ENDMDL
MODEL 7
REMARK VINA RESULT:      -6.8      3.219      6.733
REMARK  Name = 
REMARK  14 active torsions:
REMARK  status: ('A' for Active; 'I' for Inactive)
REMARK    1  A    between atoms: C_1  and  C_2
REMARK    2  A    between atoms: N_4  and  C_5
REMARK    3  A    between atoms: C_5  and  C_7
REMARK    4  A    between atoms: C_5  and  C_14
REMARK    5  A    between atoms: C_7  and  C_8
REMARK    6  A    between atoms: C_14  and  C_15
REMARK    7  A    between atoms: C_15  and  C_17
REMARK    8  A    between atoms: C_15  and  O_36
REMARK    9  A    between atoms: C_17  and  C_19
REMARK   10  A    between atoms: C_17  and  N_26
REMARK   11  A    between atoms: C_19  and  C_20
REMARK   12  A    between atoms: C_27  and  O_29
REMARK   13  A    between atoms: O_29  and  C_30
REMARK   14  A    between atoms: C_30  and  C_31
REMARK                            x       y       z     vdW  Elec       q    Type
REMARK                         _______ _______ _______ _____ _____    ______ ____
ROOT
ATOM      1  C   UNL     1       5.795   0.060  24.981  0.00  0.00    +0.109 C 
ENDROOT
BRANCH   1   2
ATOM      2  N   UNL     1       5.064   0.125  26.256  0.00  0.00    -0.275 N 
ATOM      3  H   UNL     1       5.414  -0.404  27.041  0.00  0.00    +0.152 HD
ATOM      4  C   UNL     1       4.085   1.017  26.558  0.00  0.00    +0.401 C 
ATOM      5  O   UNL     1       3.615   1.844  25.785  0.00  0.00    -0.226 OA
BRANCH   4   6
ATOM      6  O   UNL     1       3.702   0.846  27.846  0.00  0.00    -0.445 OA
BRANCH   6   7
ATOM      7  C   UNL     1       3.745   2.023  28.665  0.00  0.00    +0.278 C 
BRANCH   7   8
ATOM      8  C   UNL     1       5.164   2.270  29.044  0.00  0.00    +0.046 A 
ATOM      9  S   UNL     1       5.987   1.274  30.169  0.00  0.00    -0.077 S 
ATOM     10  C   UNL     1       7.401   2.222  29.948  0.00  0.00    +0.156 A 
ATOM     11  N   UNL     1       7.296   3.232  29.114  0.00  0.00    -0.255 NA
ATOM     12  C   UNL     1       6.018   3.259  28.592  0.00  0.00    +0.125 A 
ENDBRANCH   7   8
ENDBRANCH   6   7
ENDBRANCH   4   6
ENDBRANCH   1   2
BRANCH   1  13
ATOM     13  C   UNL     1       6.066  -1.411  24.550  0.00  0.00    +0.137 C 
BRANCH  13  14
ATOM     14  O   UNL     1       4.853  -2.172  24.637  0.00  0.00    -0.390 OA
ATOM     15  H   UNL     1       4.460  -2.005  25.511  0.00  0.00    +0.210 HD
ENDBRANCH  13  14
BRANCH  13  16
ATOM     16  C   UNL     1       6.687  -1.592  23.143  0.00  0.00    +0.055 C 
BRANCH  16  17
ATOM     17  C   UNL     1       7.938  -2.512  22.960  0.00  0.00    +0.080 C 
BRANCH  17  20
ATOM     18  C   UNL     1       6.346  -5.875  22.112  0.00  0.00    +0.109 C 
ATOM     19  C   UNL     1       6.893  -4.774  22.986  0.00  0.00    +0.210 C 
ATOM     20  N   UNL     1       7.492  -3.749  22.290  0.00  0.00    -0.312 N 
ATOM     21  H   UNL     1       7.401  -3.738  21.283  0.00  0.00    +0.149 HD
ATOM     22  O   UNL     1       6.767  -4.780  24.203  0.00  0.00    -0.276 OA
ENDBRANCH  17  20
BRANCH  17  23
ATOM     23  C   UNL     1       9.041  -1.807  22.140  0.00  0.00    +0.057 C 
BRANCH  23  24
ATOM     24  C   UNL     1       9.618  -0.452  22.488  0.00  0.00    -0.046 A 
ATOM     25  C   UNL     1      10.231  -0.353  23.755  0.00  0.00    +0.004 A 
ATOM     26  C   UNL     1      10.770   0.846  24.213  0.00  0.00    +0.000 A 
ATOM     27  C   UNL     1      10.707   1.975  23.408  0.00  0.00    +0.000 A 
ATOM     28  C   UNL     1      10.131   1.888  22.138  0.00  0.00    +0.000 A 
ATOM     29  C   UNL     1       9.595   0.679  21.674  0.00  0.00    +0.004 A 
ENDBRANCH  23  24
ENDBRANCH  17  23
ENDBRANCH  16  17
ENDBRANCH  13  16
ENDBRANCH   1  13
BRANCH   1  30
ATOM     30  C   UNL     1       7.096   0.897  25.019  0.00  0.00    +0.060 C 
BRANCH  30  31
ATOM     31  C   UNL     1       7.064   2.130  24.142  0.00  0.00    -0.046 A 
ATOM     32  C   UNL     1       6.489   2.073  22.866  0.00  0.00    +0.004 A 
ATOM     33  C   UNL     1       6.492   3.195  22.038  0.00  0.00    +0.000 A 
ATOM     34  C   UNL     1       7.075   4.384  22.472  0.00  0.00    +0.000 A 
ATOM     35  C   UNL     1       7.649   4.454  23.739  0.00  0.00    +0.000 A 
ATOM     36  C   UNL     1       7.643   3.333  24.573  0.00  0.00    +0.004 A 
ENDBRANCH  30  31
ENDBRANCH   1  30
TORSDOF 13
ENDMDL
MODEL 8
REMARK VINA RESULT:      -6.8      3.217      8.020
REMARK  Name = 
REMARK  14 active torsions:
REMARK  status: ('A' for Active; 'I' for Inactive)
REMARK    1  A    between atoms: C_1  and  C_2
REMARK    2  A    between atoms: N_4  and  C_5
REMARK    3  A    between atoms: C_5  and  C_7
REMARK    4  A    between atoms: C_5  and  C_14
REMARK    5  A    between atoms: C_7  and  C_8
REMARK    6  A    between atoms: C_14  and  C_15
REMARK    7  A    between atoms: C_15  and  C_17
REMARK    8  A    between atoms: C_15  and  O_36
REMARK    9  A    between atoms: C_17  and  C_19
REMARK   10  A    between atoms: C_17  and  N_26
REMARK   11  A    between atoms: C_19  and  C_20
REMARK   12  A    between atoms: C_27  and  O_29
REMARK   13  A    between atoms: O_29  and  C_30
REMARK   14  A    between atoms: C_30  and  C_31
REMARK                            x       y       z     vdW  Elec       q    Type
REMARK                         _______ _______ _______ _____ _____    ______ ____
ROOT
ATOM      1  C   UNL     1       8.307  -1.351  24.519  0.00  0.00    +0.109 C 
ENDROOT
BRANCH   1   2
ATOM      2  N   UNL     1       9.139  -0.278  23.953  0.00  0.00    -0.275 N 
ATOM      3  H   UNL     1      10.141  -0.331  24.071  0.00  0.00    +0.152 HD
ATOM      4  C   UNL     1       8.715   0.667  23.076  0.00  0.00    +0.401 C 
ATOM      5  O   UNL     1       7.560   0.812  22.691  0.00  0.00    -0.226 OA
BRANCH   4   6
ATOM      6  O   UNL     1       9.765   1.433  22.696  0.00  0.00    -0.445 OA
BRANCH   6   7
ATOM      7  C   UNL     1      10.599   1.910  23.762  0.00  0.00    +0.278 C 
BRANCH   7   8
ATOM      8  C   UNL     1      10.659   3.396  23.672  0.00  0.00    +0.046 A 
ATOM      9  S   UNL     1       9.288   4.376  23.979  0.00  0.00    -0.077 S 
ATOM     10  C   UNL     1      10.245   5.773  23.695  0.00  0.00    +0.156 A 
ATOM     11  N   UNL     1      11.500   5.559  23.372  0.00  0.00    -0.255 NA
ATOM     12  C   UNL     1      11.741   4.198  23.363  0.00  0.00    +0.125 A 
ENDBRANCH   7   8
ENDBRANCH   6   7
ENDBRANCH   4   6
ENDBRANCH   1   2
BRANCH   1  13
ATOM     13  C   UNL     1       8.160  -1.208  26.063  0.00  0.00    +0.137 C 
BRANCH  13  14
ATOM     14  O   UNL     1       9.196  -0.356  26.571  0.00  0.00    -0.390 OA
ATOM     15  H   UNL     1       9.248  -0.491  27.533  0.00  0.00    +0.210 HD
ENDBRANCH  13  14
BRANCH  13  16
ATOM     16  C   UNL     1       6.784  -0.697  26.559  0.00  0.00    +0.055 C 
BRANCH  16  17
ATOM     17  C   UNL     1       5.665  -1.724  26.933  0.00  0.00    +0.080 C 
BRANCH  17  20
ATOM     18  C   UNL     1       3.172  -0.714  29.640  0.00  0.00    +0.109 C 
ATOM     19  C   UNL     1       4.023  -1.638  28.804  0.00  0.00    +0.210 C 
ATOM     20  N   UNL     1       4.666  -1.018  27.758  0.00  0.00    -0.312 N 
ATOM     21  H   UNL     1       4.637  -0.008  27.710  0.00  0.00    +0.149 HD
ATOM     22  O   UNL     1       4.158  -2.824  29.072  0.00  0.00    -0.276 OA
ENDBRANCH  17  20
BRANCH  17  23
ATOM     23  C   UNL     1       5.011  -2.328  25.670  0.00  0.00    +0.057 C 
BRANCH  23  24
ATOM     24  C   UNL     1       4.806  -3.811  25.452  0.00  0.00    -0.046 A 
ATOM     25  C   UNL     1       5.682  -4.663  26.159  0.00  0.00    +0.004 A 
ATOM     26  C   UNL     1       5.624  -6.046  26.021  0.00  0.00    +0.000 A 
ATOM     27  C   UNL     1       4.682  -6.609  25.170  0.00  0.00    +0.000 A 
ATOM     28  C   UNL     1       3.787  -5.784  24.485  0.00  0.00    +0.000 A 
ATOM     29  C   UNL     1       3.841  -4.391  24.629  0.00  0.00    +0.004 A 
ENDBRANCH  23  24
ENDBRANCH  17  23
ENDBRANCH  16  17
ENDBRANCH  13  16
ENDBRANCH   1  13
BRANCH   1  30
ATOM     30  C   UNL     1       8.824  -2.754  24.120  0.00  0.00    +0.060 C 
BRANCH  30  31
ATOM     31  C   UNL     1       7.848  -3.559  23.290  0.00  0.00    -0.046 A 
ATOM     32  C   UNL     1       7.905  -4.958  23.293  0.00  0.00    +0.004 A 
ATOM     33  C   UNL     1       7.034  -5.705  22.500  0.00  0.00    +0.000 A 
ATOM     34  C   UNL     1       6.100  -5.061  21.690  0.00  0.00    +0.000 A 
ATOM     35  C   UNL     1       6.032  -3.669  21.679  0.00  0.00    +0.000 A 
ATOM     36  C   UNL     1       6.900  -2.920  22.476  0.00  0.00    +0.004 A 
ENDBRANCH  30  31
ENDBRANCH   1  30
TORSDOF 13
ENDMDL
MODEL 9
REMARK VINA RESULT:      -6.7      2.597      4.656
REMARK  Name = 
REMARK  14 active torsions:
REMARK  status: ('A' for Active; 'I' for Inactive)
REMARK    1  A    between atoms: C_1  and  C_2
REMARK    2  A    between atoms: N_4  and  C_5
REMARK    3  A    between atoms: C_5  and  C_7
REMARK    4  A    between atoms: C_5  and  C_14
REMARK    5  A    between atoms: C_7  and  C_8
REMARK    6  A    between atoms: C_14  and  C_15
REMARK    7  A    between atoms: C_15  and  C_17
REMARK    8  A    between atoms: C_15  and  O_36
REMARK    9  A    between atoms: C_17  and  C_19
REMARK   10  A    between atoms: C_17  and  N_26
REMARK   11  A    between atoms: C_19  and  C_20
REMARK   12  A    between atoms: C_27  and  O_29
REMARK   13  A    between atoms: O_29  and  C_30
REMARK   14  A    between atoms: C_30  and  C_31
REMARK                            x       y       z     vdW  Elec       q    Type
REMARK                         _______ _______ _______ _____ _____    ______ ____
ROOT
ATOM      1  C   UNL     1       8.045  -2.243  23.716  0.00  0.00    +0.109 C 
ENDROOT
BRANCH   1   2
ATOM      2  N   UNL     1       7.408  -3.522  23.367  0.00  0.00    -0.275 N 
ATOM      3  H   UNL     1       6.632  -3.514  22.721  0.00  0.00    +0.152 HD
ATOM      4  C   UNL     1       7.910  -4.753  23.644  0.00  0.00    +0.401 C 
ATOM      5  O   UNL     1       8.924  -4.976  24.295  0.00  0.00    -0.226 OA
BRANCH   4   6
ATOM      6  O   UNL     1       7.110  -5.698  23.097  0.00  0.00    -0.445 OA
BRANCH   6   7
ATOM      7  C   UNL     1       5.850  -5.228  22.596  0.00  0.00    +0.278 C 
BRANCH   7   8
ATOM      8  C   UNL     1       4.767  -5.869  23.394  0.00  0.00    +0.046 A 
ATOM      9  S   UNL     1       5.037  -6.452  24.982  0.00  0.00    -0.077 S 
ATOM     10  C   UNL     1       3.389  -6.922  25.071  0.00  0.00    +0.156 A 
ATOM     11  N   UNL     1       2.663  -6.693  24.000  0.00  0.00    -0.255 NA
ATOM     12  C   UNL     1       3.449  -6.086  23.040  0.00  0.00    +0.125 A 
ENDBRANCH   7   8
ENDBRANCH   6   7
ENDBRANCH   4   6
ENDBRANCH   1   2
BRANCH   1  13
ATOM     13  C   UNL     1       7.011  -1.080  23.759  0.00  0.00    +0.137 C 
BRANCH  13  14
ATOM     14  O   UNL     1       6.040  -1.258  22.719  0.00  0.00    -0.390 OA
ATOM     15  H   UNL     1       5.861  -0.386  22.327  0.00  0.00    +0.210 HD
ENDBRANCH  13  14
BRANCH  13  16
ATOM     16  C   UNL     1       6.285  -0.881  25.113  0.00  0.00    +0.055 C 
BRANCH  16  17
ATOM     17  C   UNL     1       5.942   0.564  25.603  0.00  0.00    +0.080 C 
BRANCH  17  20
ATOM     18  C   UNL     1       4.002   0.081  28.854  0.00  0.00    +0.109 C 
ATOM     19  C   UNL     1       4.213   0.335  27.382  0.00  0.00    +0.210 C 
ATOM     20  N   UNL     1       5.532   0.473  27.018  0.00  0.00    -0.312 N 
ATOM     21  H   UNL     1       6.242   0.261  27.706  0.00  0.00    +0.149 HD
ATOM     22  O   UNL     1       3.285   0.369  26.584  0.00  0.00    -0.276 OA
ENDBRANCH  17  20
BRANCH  17  23
ATOM     23  C   UNL     1       7.148   1.516  25.438  0.00  0.00    +0.057 C 
BRANCH  23  24
ATOM     24  C   UNL     1       7.219   2.619  24.405  0.00  0.00    -0.046 A 
ATOM     25  C   UNL     1       6.605   2.340  23.165  0.00  0.00    +0.004 A 
ATOM     26  C   UNL     1       6.629   3.255  22.117  0.00  0.00    +0.000 A 
ATOM     27  C   UNL     1       7.269   4.475  22.290  0.00  0.00    +0.000 A 
ATOM     28  C   UNL     1       7.856   4.781  23.520  0.00  0.00    +0.000 A 
ATOM     29  C   UNL     1       7.826   3.862  24.578  0.00  0.00    +0.004 A 
ENDBRANCH  23  24
ENDBRANCH  17  23
ENDBRANCH  16  17
ENDBRANCH  13  16
ENDBRANCH   1  13
BRANCH   1  30
ATOM     30  C   UNL     1       9.236  -1.917  22.782  0.00  0.00    +0.060 C 
BRANCH  30  31
ATOM     31  C   UNL     1       9.745  -0.497  22.901  0.00  0.00    -0.046 A 
ATOM     32  C   UNL     1      10.318  -0.051  24.098  0.00  0.00    +0.004 A 
ATOM     33  C   UNL     1      10.753   1.268  24.227  0.00  0.00    +0.000 A 
ATOM     34  C   UNL     1      10.613   2.157  23.163  0.00  0.00    +0.000 A 
ATOM     35  C   UNL     1      10.046   1.726  21.967  0.00  0.00    +0.000 A 
ATOM     36  C   UNL     1       9.615   0.404  21.833  0.00  0.00    +0.004 A 
ENDBRANCH  30  31
ENDBRANCH   1  30
TORSDOF 13
ENDMDL
