MODEL 1
REMARK VINA RESULT:      -6.5      0.000      0.000
REMARK  Name = 
REMARK  19 active torsions:
REMARK  status: ('A' for Active; 'I' for Inactive)
REMARK    1  A    between atoms: C_1  and  C_2
REMARK    2  A    between atoms: C_2  and  C_3
REMARK    3  A    between atoms: C_2  and  C_4
REMARK    4  A    between atoms: C_4  and  N_5
REMARK    5  A    between atoms: N_5  and  C_6
REMARK    6  A    between atoms: N_5  and  S_33
REMARK    7  A    between atoms: C_6  and  C_7
REMARK    8  A    between atoms: C_7  and  C_9
REMARK    9  A    between atoms: C_7  and  O_28
REMARK   10  A    between atoms: C_9  and  C_11
REMARK   11  A    between atoms: C_9  and  N_18
REMARK   12  A    between atoms: C_11  and  C_12
REMARK   13  A    between atoms: C_19  and  O_21
REMARK   14  A    between atoms: O_21  and  C_22
REMARK   15  A    between atoms: O_28  and  P_29
REMARK   16  A    between atoms: P_29  and  O_31
REMARK   17  A    between atoms: P_29  and  O_32
REMARK   18  A    between atoms: S_33  and  C_36
REMARK   19  A    between atoms: C_39  and  N_42
REMARK                            x       y       z     vdW  Elec       q    Type
REMARK                         _______ _______ _______ _____ _____    ______ ____
ROOT
ATOM      1  C   UNL     1       5.899  -4.798  26.798  0.00  0.00    +0.166 C 
ENDROOT
BRANCH   1   2
ATOM      2  C   UNL     1       5.213  -3.396  26.557  0.00  0.00    +0.111 C 
BRANCH   2   3
ATOM      3  N   UNL     1       6.117  -2.231  26.713  0.00  0.00    -0.275 N 
ATOM      4  H   UNL     1       6.871  -2.101  26.051  0.00  0.00    +0.152 HD
ATOM      5  C   UNL     1       5.782  -1.114  27.444  0.00  0.00    +0.401 C 
ATOM      6  O   UNL     1       4.826  -1.041  28.192  0.00  0.00    -0.226 OA
BRANCH   5   7
ATOM      7  O   UNL     1       6.632  -0.080  27.163  0.00  0.00    -0.445 OA
BRANCH   7   8
ATOM      8  C   UNL     1       6.007   1.106  26.625  0.00  0.00    +0.206 C 
ATOM      9  C   UNL     1       5.189   0.883  25.353  0.00  0.00    +0.204 C 
ATOM     10  O   UNL     1       5.380   2.019  24.490  0.00  0.00    -0.376 OA
ATOM     11  C   UNL     1       6.286   2.921  25.132  0.00  0.00    +0.163 C 
ATOM     12  C   UNL     1       7.051   2.098  26.144  0.00  0.00    +0.075 C 
ENDBRANCH   7   8
ENDBRANCH   5   7
ENDBRANCH   2   3
BRANCH   2  13
ATOM     13  C   UNL     1       4.226  -3.219  25.355  0.00  0.00    +0.060 C 
BRANCH  13  14
ATOM     14  C   UNL     1       3.295  -4.311  24.857  0.00  0.00    -0.046 A 
ATOM     15  C   UNL     1       3.631  -4.980  23.651  0.00  0.00    +0.004 A 
ATOM     16  C   UNL     1       2.854  -6.032  23.157  0.00  0.00    +0.000 A 
ATOM     17  C   UNL     1       1.719  -6.437  23.848  0.00  0.00    +0.000 A 
ATOM     18  C   UNL     1       1.351  -5.768  25.018  0.00  0.00    +0.000 A 
ATOM     19  C   UNL     1       2.130  -4.707  25.509  0.00  0.00    +0.004 A 
ENDBRANCH  13  14
ENDBRANCH   2  13
ENDBRANCH   1   2
BRANCH   1  20
ATOM     20  O   UNL     1       6.473  -5.003  28.160  0.00  0.00    -0.280 OA
BRANCH  20  21
ATOM     21  P   UNL     1       5.501  -6.047  29.139  0.00  0.00    +0.473 P 
ATOM     22  O   UNL     1       6.478  -7.207  28.977  0.00  0.00    -0.228 OA
BRANCH  21  23
ATOM     23  O   UNL     1       6.003  -5.289  30.485  0.00  0.00    -0.303 OA
ATOM     24  H   UNL     1       5.669  -5.777  31.259  0.00  0.00    +0.222 HD
ENDBRANCH  21  23
BRANCH  21  25
ATOM     25  O   UNL     1       4.530  -7.092  30.117  0.00  0.00    -0.303 OA
ATOM     26  H   UNL     1       3.841  -7.405  29.497  0.00  0.00    +0.222 HD
ENDBRANCH  21  25
ENDBRANCH  20  21
ENDBRANCH   1  20
BRANCH   1  27
ATOM     27  C   UNL     1       7.054  -5.134  25.824  0.00  0.00    +0.143 C 
BRANCH  27  28
ATOM     28  N   UNL     1       7.466  -4.359  24.556  0.00  0.00    -0.174 NA
BRANCH  28  29
ATOM     29  S   UNL     1       8.952  -3.473  24.995  0.00  0.00    +0.061 S 
ATOM     30  O   UNL     1      10.076  -4.319  24.628  0.00  0.00    -0.153 OA
ATOM     31  O   UNL     1       8.847  -2.969  26.343  0.00  0.00    -0.153 OA
BRANCH  29  32
ATOM     32  C   UNL     1       8.975  -2.076  23.858  0.00  0.00    +0.106 A 
ATOM     33  C   UNL     1       9.927  -2.012  22.830  0.00  0.00    +0.030 A 
ATOM     34  C   UNL     1       9.893  -0.954  21.911  0.00  0.00    +0.024 A 
ATOM     35  C   UNL     1       8.916   0.042  22.001  0.00  0.00    +0.025 A 
ATOM     36  C   UNL     1       8.055   0.030  23.102  0.00  0.00    +0.024 A 
ATOM     37  C   UNL     1       8.073  -1.026  24.022  0.00  0.00    +0.030 A 
BRANCH  35  38
ATOM     38  N   UNL     1       8.958   1.152  21.150  0.00  0.00    -0.358 N 
ATOM     39  H   UNL     1       9.839   1.264  20.657  0.00  0.00    +0.142 HD
ATOM     40  H   UNL     1       8.161   1.225  20.523  0.00  0.00    +0.142 HD
ENDBRANCH  35  38
ENDBRANCH  29  32
ENDBRANCH  28  29
BRANCH  28  41
ATOM     41  C   UNL     1       7.515  -5.159  23.263  0.00  0.00    +0.112 C 
BRANCH  41  43
ATOM     42  C   UNL     1       6.222  -5.646  20.990  0.00  0.00    +0.008 C 
ATOM     43  C   UNL     1       6.910  -4.631  21.909  0.00  0.00    -0.001 C 
ATOM     44  C   UNL     1       6.136  -3.303  21.899  0.00  0.00    +0.008 C 
ENDBRANCH  41  43
ENDBRANCH  28  41
ENDBRANCH  27  28
ENDBRANCH   1  27
TORSDOF 17
ENDMDL
MODEL 2
REMARK VINA RESULT:      -6.4      2.886      6.980
REMARK  Name = 
REMARK  19 active torsions:
REMARK  status: ('A' for Active; 'I' for Inactive)
REMARK    1  A    between atoms: C_1  and  C_2
REMARK    2  A    between atoms: C_2  and  C_3
REMARK    3  A    between atoms: C_2  and  C_4
REMARK    4  A    between atoms: C_4  and  N_5
REMARK    5  A    between atoms: N_5  and  C_6
REMARK    6  A    between atoms: N_5  and  S_33
REMARK    7  A    between atoms: C_6  and  C_7
REMARK    8  A    between atoms: C_7  and  C_9
REMARK    9  A    between atoms: C_7  and  O_28
REMARK   10  A    between atoms: C_9  and  C_11
REMARK   11  A    between atoms: C_9  and  N_18
REMARK   12  A    between atoms: C_11  and  C_12
REMARK   13  A    between atoms: C_19  and  O_21
REMARK   14  A    between atoms: O_21  and  C_22
REMARK   15  A    between atoms: O_28  and  P_29
REMARK   16  A    between atoms: P_29  and  O_31
REMARK   17  A    between atoms: P_29  and  O_32
REMARK   18  A    between atoms: S_33  and  C_36
REMARK   19  A    between atoms: C_39  and  N_42
REMARK                            x       y       z     vdW  Elec       q    Type
REMARK                         _______ _______ _______ _____ _____    ______ ____
ROOT
ATOM      1  C   UNL     1       8.660  -3.885  24.770  0.00  0.00    +0.166 C 
ENDROOT
BRANCH   1   2
ATOM      2  C   UNL     1       8.559  -2.580  23.886  0.00  0.00    +0.111 C 
BRANCH   2   3
ATOM      3  N   UNL     1       7.622  -1.554  24.404  0.00  0.00    -0.275 N 
ATOM      4  H   UNL     1       7.926  -0.941  25.149  0.00  0.00    +0.152 HD
ATOM      5  C   UNL     1       6.524  -1.117  23.700  0.00  0.00    +0.401 C 
ATOM      6  O   UNL     1       6.092  -1.652  22.696  0.00  0.00    -0.226 OA
BRANCH   5   7
ATOM      7  O   UNL     1       6.027   0.035  24.244  0.00  0.00    -0.445 OA
BRANCH   7   8
ATOM      8  C   UNL     1       6.829   1.217  24.029  0.00  0.00    +0.206 C 
ATOM      9  C   UNL     1       6.623   2.332  25.055  0.00  0.00    +0.204 C 
ATOM     10  O   UNL     1       6.689   3.594  24.367  0.00  0.00    -0.376 OA
ATOM     11  C   UNL     1       6.894   3.335  22.975  0.00  0.00    +0.163 C 
ATOM     12  C   UNL     1       6.432   1.915  22.741  0.00  0.00    +0.075 C 
ENDBRANCH   7   8
ENDBRANCH   5   7
ENDBRANCH   2   3
BRANCH   2  13
ATOM     13  C   UNL     1       9.863  -1.945  23.301  0.00  0.00    +0.060 C 
BRANCH  13  14
ATOM     14  C   UNL     1      10.102  -0.448  23.195  0.00  0.00    -0.046 A 
ATOM     15  C   UNL     1       9.851   0.185  21.949  0.00  0.00    +0.004 A 
ATOM     16  C   UNL     1       9.994   1.566  21.788  0.00  0.00    +0.000 A 
ATOM     17  C   UNL     1      10.399   2.350  22.862  0.00  0.00    +0.000 A 
ATOM     18  C   UNL     1      10.685   1.741  24.087  0.00  0.00    +0.000 A 
ATOM     19  C   UNL     1      10.546   0.353  24.244  0.00  0.00    +0.004 A 
ENDBRANCH  13  14
ENDBRANCH   2  13
ENDBRANCH   1   2
BRANCH   1  20
ATOM     20  O   UNL     1       8.075  -5.117  24.163  0.00  0.00    -0.280 OA
BRANCH  20  21
ATOM     21  P   UNL     1       7.200  -4.786  22.708  0.00  0.00    +0.473 P 
ATOM     22  O   UNL     1       7.216  -6.253  22.294  0.00  0.00    -0.228 OA
BRANCH  21  23
ATOM     23  O   UNL     1       5.819  -4.625  23.549  0.00  0.00    -0.303 OA
ATOM     24  H   UNL     1       5.083  -4.958  23.004  0.00  0.00    +0.222 HD
ENDBRANCH  21  23
BRANCH  21  25
ATOM     25  O   UNL     1       6.325  -4.456  21.253  0.00  0.00    -0.303 OA
ATOM     26  H   UNL     1       5.393  -4.424  21.552  0.00  0.00    +0.222 HD
ENDBRANCH  21  25
ENDBRANCH  20  21
ENDBRANCH   1  20
BRANCH   1  27
ATOM     27  C   UNL     1       8.001  -3.779  26.167  0.00  0.00    +0.143 C 
BRANCH  27  28
ATOM     28  N   UNL     1       6.497  -3.856  26.502  0.00  0.00    -0.174 NA
BRANCH  28  29
ATOM     29  S   UNL     1       6.317  -5.266  27.580  0.00  0.00    +0.061 S 
ATOM     30  O   UNL     1       6.001  -4.752  28.904  0.00  0.00    -0.153 OA
ATOM     31  O   UNL     1       7.432  -6.165  27.410  0.00  0.00    -0.153 OA
BRANCH  29  32
ATOM     32  C   UNL     1       4.825  -6.080  26.983  0.00  0.00    +0.106 A 
ATOM     33  C   UNL     1       3.636  -6.020  27.724  0.00  0.00    +0.030 A 
ATOM     34  C   UNL     1       2.465  -6.600  27.216  0.00  0.00    +0.024 A 
ATOM     35  C   UNL     1       2.463  -7.237  25.973  0.00  0.00    +0.025 A 
ATOM     36  C   UNL     1       3.681  -7.396  25.306  0.00  0.00    +0.024 A 
ATOM     37  C   UNL     1       4.856  -6.814  25.798  0.00  0.00    +0.030 A 
BRANCH  35  38
ATOM     38  N   UNL     1       1.320  -7.910  25.525  0.00  0.00    -0.358 N 
ATOM     39  H   UNL     1       0.709  -8.232  26.270  0.00  0.00    +0.142 HD
ATOM     40  H   UNL     1       0.805  -7.417  24.800  0.00  0.00    +0.142 HD
ENDBRANCH  35  38
ENDBRANCH  29  32
ENDBRANCH  28  29
BRANCH  28  41
ATOM     41  C   UNL     1       5.844  -2.563  26.967  0.00  0.00    +0.112 C 
BRANCH  41  43
ATOM     42  C   UNL     1       3.598  -2.939  25.592  0.00  0.00    +0.008 C 
ATOM     43  C   UNL     1       4.311  -2.261  26.765  0.00  0.00    -0.001 C 
ATOM     44  C   UNL     1       3.386  -2.221  27.992  0.00  0.00    +0.008 C 
ENDBRANCH  41  43
ENDBRANCH  28  41
ENDBRANCH  27  28
ENDBRANCH   1  27
TORSDOF 17
ENDMDL
MODEL 3
REMARK VINA RESULT:      -6.3      2.137      2.961
REMARK  Name = 
REMARK  19 active torsions:
REMARK  status: ('A' for Active; 'I' for Inactive)
REMARK    1  A    between atoms: C_1  and  C_2
REMARK    2  A    between atoms: C_2  and  C_3
REMARK    3  A    between atoms: C_2  and  C_4
REMARK    4  A    between atoms: C_4  and  N_5
REMARK    5  A    between atoms: N_5  and  C_6
REMARK    6  A    between atoms: N_5  and  S_33
REMARK    7  A    between atoms: C_6  and  C_7
REMARK    8  A    between atoms: C_7  and  C_9
REMARK    9  A    between atoms: C_7  and  O_28
REMARK   10  A    between atoms: C_9  and  C_11
REMARK   11  A    between atoms: C_9  and  N_18
REMARK   12  A    between atoms: C_11  and  C_12
REMARK   13  A    between atoms: C_19  and  O_21
REMARK   14  A    between atoms: O_21  and  C_22
REMARK   15  A    between atoms: O_28  and  P_29
REMARK   16  A    between atoms: P_29  and  O_31
REMARK   17  A    between atoms: P_29  and  O_32
REMARK   18  A    between atoms: S_33  and  C_36
REMARK   19  A    between atoms: C_39  and  N_42
REMARK                            x       y       z     vdW  Elec       q    Type
REMARK                         _______ _______ _______ _____ _____    ______ ____
ROOT
ATOM      1  C   UNL     1       6.651  -3.044  25.837  0.00  0.00    +0.166 C 
ENDROOT
BRANCH   1   2
ATOM      2  C   UNL     1       5.499  -2.103  26.368  0.00  0.00    +0.111 C 
BRANCH   2   3
ATOM      3  N   UNL     1       5.147  -0.985  25.460  0.00  0.00    -0.275 N 
ATOM      4  H   UNL     1       4.439  -1.130  24.752  0.00  0.00    +0.152 HD
ATOM      5  C   UNL     1       5.422   0.332  25.750  0.00  0.00    +0.401 C 
ATOM      6  O   UNL     1       6.147   0.702  26.654  0.00  0.00    -0.226 OA
BRANCH   5   7
ATOM      7  O   UNL     1       4.719   1.166  24.924  0.00  0.00    -0.445 OA
BRANCH   7   8
ATOM      8  C   UNL     1       5.492   2.216  24.302  0.00  0.00    +0.206 C 
ATOM      9  C   UNL     1       4.671   3.257  23.541  0.00  0.00    +0.204 C 
ATOM     10  O   UNL     1       5.403   3.631  22.359  0.00  0.00    -0.376 OA
ATOM     11  C   UNL     1       6.613   2.868  22.322  0.00  0.00    +0.163 C 
ATOM     12  C   UNL     1       6.374   1.659  23.199  0.00  0.00    +0.075 C 
ENDBRANCH   7   8
ENDBRANCH   5   7
ENDBRANCH   2   3
BRANCH   2  13
ATOM     13  C   UNL     1       4.236  -2.737  27.039  0.00  0.00    +0.060 C 
BRANCH  13  14
ATOM     14  C   UNL     1       3.676  -4.100  26.669  0.00  0.00    -0.046 A 
ATOM     15  C   UNL     1       2.572  -4.153  25.778  0.00  0.00    +0.004 A 
ATOM     16  C   UNL     1       2.037  -5.371  25.348  0.00  0.00    +0.000 A 
ATOM     17  C   UNL     1       2.582  -6.566  25.802  0.00  0.00    +0.000 A 
ATOM     18  C   UNL     1       3.646  -6.535  26.708  0.00  0.00    +0.000 A 
ATOM     19  C   UNL     1       4.178  -5.310  27.143  0.00  0.00    +0.004 A 
ENDBRANCH  13  14
ENDBRANCH   2  13
ENDBRANCH   1   2
BRANCH   1  20
ATOM     20  O   UNL     1       7.438  -3.749  26.891  0.00  0.00    -0.280 OA
BRANCH  20  21
ATOM     21  P   UNL     1       8.381  -5.052  26.253  0.00  0.00    +0.473 P 
ATOM     22  O   UNL     1       9.685  -4.418  26.727  0.00  0.00    -0.228 OA
BRANCH  21  23
ATOM     23  O   UNL     1       7.933  -6.008  27.487  0.00  0.00    -0.303 OA
ATOM     24  H   UNL     1       7.503  -6.804  27.123  0.00  0.00    +0.222 HD
ENDBRANCH  21  23
BRANCH  21  25
ATOM     25  O   UNL     1       9.325  -6.354  25.617  0.00  0.00    -0.303 OA
ATOM     26  H   UNL     1       9.329  -7.007  26.345  0.00  0.00    +0.222 HD
ENDBRANCH  21  25
ENDBRANCH  20  21
ENDBRANCH   1  20
BRANCH   1  27
ATOM     27  C   UNL     1       7.710  -2.342  24.952  0.00  0.00    +0.143 C 
BRANCH  27  28
ATOM     28  N   UNL     1       7.608  -2.019  23.447  0.00  0.00    -0.174 NA
BRANCH  28  29
ATOM     29  S   UNL     1       9.287  -1.997  22.845  0.00  0.00    +0.061 S 
ATOM     30  O   UNL     1       9.234  -2.305  21.424  0.00  0.00    -0.153 OA
ATOM     31  O   UNL     1      10.134  -2.778  23.713  0.00  0.00    -0.153 OA
BRANCH  29  32
ATOM     32  C   UNL     1       9.771  -0.267  22.972  0.00  0.00    +0.106 A 
ATOM     33  C   UNL     1       9.746   0.563  21.842  0.00  0.00    +0.030 A 
ATOM     34  C   UNL     1      10.060   1.924  21.967  0.00  0.00    +0.024 A 
ATOM     35  C   UNL     1      10.395   2.470  23.209  0.00  0.00    +0.025 A 
ATOM     36  C   UNL     1      10.536   1.606  24.299  0.00  0.00    +0.024 A 
ATOM     37  C   UNL     1      10.216   0.247  24.188  0.00  0.00    +0.030 A 
BRANCH  35  38
ATOM     38  N   UNL     1      10.816   3.801  23.306  0.00  0.00    -0.358 N 
ATOM     39  H   UNL     1      10.619   4.360  22.481  0.00  0.00    +0.142 HD
ATOM     40  H   UNL     1      10.521   4.270  24.159  0.00  0.00    +0.142 HD
ENDBRANCH  35  38
ENDBRANCH  29  32
ENDBRANCH  28  29
BRANCH  28  41
ATOM     41  C   UNL     1       6.615  -2.847  22.645  0.00  0.00    +0.112 C 
BRANCH  41  43
ATOM     42  C   UNL     1       5.145  -4.974  23.273  0.00  0.00    +0.008 C 
ATOM     43  C   UNL     1       6.487  -4.410  22.797  0.00  0.00    -0.001 C 
ATOM     44  C   UNL     1       7.087  -5.321  21.714  0.00  0.00    +0.008 C 
ENDBRANCH  41  43
ENDBRANCH  28  41
ENDBRANCH  27  28
ENDBRANCH   1  27
TORSDOF 17
ENDMDL
MODEL 4
REMARK VINA RESULT:      -6.2      2.620      5.363
REMARK  Name = 
REMARK  19 active torsions:
REMARK  status: ('A' for Active; 'I' for Inactive)
REMARK    1  A    between atoms: C_1  and  C_2
REMARK    2  A    between atoms: C_2  and  C_3
REMARK    3  A    between atoms: C_2  and  C_4
REMARK    4  A    between atoms: C_4  and  N_5
REMARK    5  A    between atoms: N_5  and  C_6
REMARK    6  A    between atoms: N_5  and  S_33
REMARK    7  A    between atoms: C_6  and  C_7
REMARK    8  A    between atoms: C_7  and  C_9
REMARK    9  A    between atoms: C_7  and  O_28
REMARK   10  A    between atoms: C_9  and  C_11
REMARK   11  A    between atoms: C_9  and  N_18
REMARK   12  A    between atoms: C_11  and  C_12
REMARK   13  A    between atoms: C_19  and  O_21
REMARK   14  A    between atoms: O_21  and  C_22
REMARK   15  A    between atoms: O_28  and  P_29
REMARK   16  A    between atoms: P_29  and  O_31
REMARK   17  A    between atoms: P_29  and  O_32
REMARK   18  A    between atoms: S_33  and  C_36
REMARK   19  A    between atoms: C_39  and  N_42
REMARK                            x       y       z     vdW  Elec       q    Type
REMARK                         _______ _______ _______ _____ _____    ______ ____
ROOT
ATOM      1  C   UNL     1       6.885  -4.227  24.079  0.00  0.00    +0.166 C 
ENDROOT
BRANCH   1   2
ATOM      2  C   UNL     1       5.464  -4.904  24.219  0.00  0.00    +0.111 C 
BRANCH   2   3
ATOM      3  N   UNL     1       5.301  -5.753  25.424  0.00  0.00    -0.275 N 
ATOM      4  H   UNL     1       5.477  -5.352  26.336  0.00  0.00    +0.152 HD
ATOM      5  C   UNL     1       4.564  -6.914  25.429  0.00  0.00    +0.401 C 
ATOM      6  O   UNL     1       4.147  -7.471  24.431  0.00  0.00    -0.226 OA
BRANCH   5   7
ATOM      7  O   UNL     1       4.309  -7.321  26.710  0.00  0.00    -0.445 OA
BRANCH   7   8
ATOM      8  C   UNL     1       4.149  -6.258  27.676  0.00  0.00    +0.206 C 
ATOM      9  C   UNL     1       4.687  -6.570  29.073  0.00  0.00    +0.204 C 
ATOM     10  O   UNL     1       3.792  -5.989  30.039  0.00  0.00    -0.376 OA
ATOM     11  C   UNL     1       2.718  -5.361  29.334  0.00  0.00    +0.163 C 
ATOM     12  C   UNL     1       2.681  -6.006  27.966  0.00  0.00    +0.075 C 
ENDBRANCH   7   8
ENDBRANCH   5   7
ENDBRANCH   2   3
BRANCH   2  13
ATOM     13  C   UNL     1       4.179  -4.067  23.911  0.00  0.00    +0.060 C 
BRANCH  13  14
ATOM     14  C   UNL     1       3.256  -3.507  24.980  0.00  0.00    -0.046 A 
ATOM     15  C   UNL     1       3.806  -2.622  25.944  0.00  0.00    +0.004 A 
ATOM     16  C   UNL     1       3.010  -2.023  26.925  0.00  0.00    +0.000 A 
ATOM     17  C   UNL     1       1.649  -2.299  26.976  0.00  0.00    +0.000 A 
ATOM     18  C   UNL     1       1.096  -3.196  26.058  0.00  0.00    +0.000 A 
ATOM     19  C   UNL     1       1.898  -3.800  25.077  0.00  0.00    +0.004 A 
ENDBRANCH  13  14
ENDBRANCH   2  13
ENDBRANCH   1   2
BRANCH   1  20
ATOM     20  O   UNL     1       7.563  -3.892  25.366  0.00  0.00    -0.280 OA
BRANCH  20  21
ATOM     21  P   UNL     1       8.998  -4.823  25.620  0.00  0.00    +0.473 P 
ATOM     22  O   UNL     1       8.240  -5.886  26.407  0.00  0.00    -0.228 OA
BRANCH  21  23
ATOM     23  O   UNL     1       8.952  -5.354  24.086  0.00  0.00    -0.303 OA
ATOM     24  H   UNL     1       9.860  -5.354  23.730  0.00  0.00    +0.222 HD
ENDBRANCH  21  23
BRANCH  21  25
ATOM     25  O   UNL     1      10.433  -5.754  25.876  0.00  0.00    -0.303 OA
ATOM     26  H   UNL     1      10.396  -5.969  26.830  0.00  0.00    +0.222 HD
ENDBRANCH  21  25
ENDBRANCH  20  21
ENDBRANCH   1  20
BRANCH   1  27
ATOM     27  C   UNL     1       6.901  -2.911  23.265  0.00  0.00    +0.143 C 
BRANCH  27  28
ATOM     28  N   UNL     1       7.601  -1.587  23.637  0.00  0.00    -0.174 NA
BRANCH  28  29
ATOM     29  S   UNL     1       9.192  -1.641  22.830  0.00  0.00    +0.061 S 
ATOM     30  O   UNL     1       8.945  -1.893  21.419  0.00  0.00    -0.153 OA
ATOM     31  O   UNL     1      10.089  -2.502  23.563  0.00  0.00    -0.153 OA
BRANCH  29  32
ATOM     32  C   UNL     1       9.795   0.052  22.947  0.00  0.00    +0.106 A 
ATOM     33  C   UNL     1       9.748   0.902  21.833  0.00  0.00    +0.030 A 
ATOM     34  C   UNL     1      10.158   2.237  21.954  0.00  0.00    +0.024 A 
ATOM     35  C   UNL     1      10.610   2.739  23.177  0.00  0.00    +0.025 A 
ATOM     36  C   UNL     1      10.768   1.848  24.243  0.00  0.00    +0.024 A 
ATOM     37  C   UNL     1      10.354   0.515  24.137  0.00  0.00    +0.030 A 
BRANCH  35  38
ATOM     38  N   UNL     1      11.123   4.038  23.262  0.00  0.00    -0.358 N 
ATOM     39  H   UNL     1      11.837   4.250  22.571  0.00  0.00    +0.142 HD
ATOM     40  H   UNL     1      10.411   4.764  23.305  0.00  0.00    +0.142 HD
ENDBRANCH  35  38
ENDBRANCH  29  32
ENDBRANCH  28  29
BRANCH  28  41
ATOM     41  C   UNL     1       6.788  -0.317  23.441  0.00  0.00    +0.112 C 
BRANCH  41  43
ATOM     42  C   UNL     1       6.943   2.216  24.239  0.00  0.00    +0.008 C 
ATOM     43  C   UNL     1       6.602   0.761  24.574  0.00  0.00    -0.001 C 
ATOM     44  C   UNL     1       5.351   0.705  25.465  0.00  0.00    +0.008 C 
ENDBRANCH  41  43
ENDBRANCH  28  41
ENDBRANCH  27  28
ENDBRANCH   1  27
TORSDOF 17
ENDMDL
MODEL 5
REMARK VINA RESULT:      -6.2      3.146      7.491
REMARK  Name = 
REMARK  19 active torsions:
REMARK  status: ('A' for Active; 'I' for Inactive)
REMARK    1  A    between atoms: C_1  and  C_2
REMARK    2  A    between atoms: C_2  and  C_3
REMARK    3  A    between atoms: C_2  and  C_4
REMARK    4  A    between atoms: C_4  and  N_5
REMARK    5  A    between atoms: N_5  and  C_6
REMARK    6  A    between atoms: N_5  and  S_33
REMARK    7  A    between atoms: C_6  and  C_7
REMARK    8  A    between atoms: C_7  and  C_9
REMARK    9  A    between atoms: C_7  and  O_28
REMARK   10  A    between atoms: C_9  and  C_11
REMARK   11  A    between atoms: C_9  and  N_18
REMARK   12  A    between atoms: C_11  and  C_12
REMARK   13  A    between atoms: C_19  and  O_21
REMARK   14  A    between atoms: O_21  and  C_22
REMARK   15  A    between atoms: O_28  and  P_29
REMARK   16  A    between atoms: P_29  and  O_31
REMARK   17  A    between atoms: P_29  and  O_32
REMARK   18  A    between atoms: S_33  and  C_36
REMARK   19  A    between atoms: C_39  and  N_42
REMARK                            x       y       z     vdW  Elec       q    Type
REMARK                         _______ _______ _______ _____ _____    ______ ____
ROOT
ATOM      1  C   UNL     1       6.992  -1.889  24.030  0.00  0.00    +0.166 C 
ENDROOT
BRANCH   1   2
ATOM      2  C   UNL     1       8.270  -1.824  24.956  0.00  0.00    +0.111 C 
BRANCH   2   3
ATOM      3  N   UNL     1       8.403  -2.956  25.905  0.00  0.00    -0.275 N 
ATOM      4  H   UNL     1       7.950  -2.898  26.808  0.00  0.00    +0.152 HD
ATOM      5  C   UNL     1       8.762  -4.225  25.513  0.00  0.00    +0.401 C 
ATOM      6  O   UNL     1       9.200  -4.509  24.414  0.00  0.00    -0.226 OA
BRANCH   5   7
ATOM      7  O   UNL     1       8.499  -5.130  26.504  0.00  0.00    -0.445 OA
BRANCH   7   8
ATOM      8  C   UNL     1       7.121  -5.198  26.931  0.00  0.00    +0.206 C 
ATOM      9  C   UNL     1       6.859  -6.114  28.127  0.00  0.00    +0.204 C 
ATOM     10  O   UNL     1       5.599  -6.777  27.918  0.00  0.00    -0.376 OA
ATOM     11  C   UNL     1       5.073  -6.353  26.657  0.00  0.00    +0.163 C 
ATOM     12  C   UNL     1       6.253  -5.838  25.863  0.00  0.00    +0.075 C 
ENDBRANCH   7   8
ENDBRANCH   5   7
ENDBRANCH   2   3
BRANCH   2  13
ATOM     13  C   UNL     1       9.646  -1.408  24.339  0.00  0.00    +0.060 C 
BRANCH  13  14
ATOM     14  C   UNL     1       9.910  -0.062  23.687  0.00  0.00    -0.046 A 
ATOM     15  C   UNL     1      10.476   0.969  24.482  0.00  0.00    +0.004 A 
ATOM     16  C   UNL     1      10.798   2.217  23.941  0.00  0.00    +0.000 A 
ATOM     17  C   UNL     1      10.555   2.472  22.597  0.00  0.00    +0.000 A 
ATOM     18  C   UNL     1       9.965   1.483  21.806  0.00  0.00    +0.000 A 
ATOM     19  C   UNL     1       9.637   0.232  22.353  0.00  0.00    +0.004 A 
ENDBRANCH  13  14
ENDBRANCH   2  13
ENDBRANCH   1   2
BRANCH   1  20
ATOM     20  O   UNL     1       7.169  -2.633  22.748  0.00  0.00    -0.280 OA
BRANCH  20  21
ATOM     21  P   UNL     1       5.985  -3.877  22.536  0.00  0.00    +0.473 P 
ATOM     22  O   UNL     1       5.622  -3.375  21.143  0.00  0.00    -0.228 OA
BRANCH  21  23
ATOM     23  O   UNL     1       7.154  -4.974  22.271  0.00  0.00    -0.303 OA
ATOM     24  H   UNL     1       6.745  -5.781  21.908  0.00  0.00    +0.222 HD
ENDBRANCH  21  23
BRANCH  21  25
ATOM     25  O   UNL     1       4.801  -5.120  22.322  0.00  0.00    -0.303 OA
ATOM     26  H   UNL     1       4.254  -4.786  21.583  0.00  0.00    +0.222 HD
ENDBRANCH  21  25
ENDBRANCH  20  21
ENDBRANCH   1  20
BRANCH   1  27
ATOM     27  C   UNL     1       6.417  -0.513  23.615  0.00  0.00    +0.143 C 
BRANCH  27  28
ATOM     28  N   UNL     1       6.292   0.752  24.488  0.00  0.00    -0.174 NA
BRANCH  28  29
ATOM     29  S   UNL     1       6.015   2.097  23.349  0.00  0.00    +0.061 S 
ATOM     30  O   UNL     1       4.664   2.583  23.585  0.00  0.00    -0.153 OA
ATOM     31  O   UNL     1       6.411   1.708  22.018  0.00  0.00    -0.153 OA
BRANCH  29  32
ATOM     32  C   UNL     1       7.127   3.391  23.926  0.00  0.00    +0.106 A 
ATOM     33  C   UNL     1       7.605   4.366  23.039  0.00  0.00    +0.030 A 
ATOM     34  C   UNL     1       8.416   5.406  23.514  0.00  0.00    +0.024 A 
ATOM     35  C   UNL     1       8.755   5.490  24.867  0.00  0.00    +0.025 A 
ATOM     36  C   UNL     1       8.375   4.443  25.712  0.00  0.00    +0.024 A 
ATOM     37  C   UNL     1       7.557   3.404  25.252  0.00  0.00    +0.030 A 
BRANCH  35  38
ATOM     38  N   UNL     1       9.655   6.464  25.312  0.00  0.00    -0.358 N 
ATOM     39  H   UNL     1       9.456   7.400  24.972  0.00  0.00    +0.142 HD
ATOM     40  H   UNL     1       9.818   6.452  26.315  0.00  0.00    +0.142 HD
ENDBRANCH  35  38
ENDBRANCH  29  32
ENDBRANCH  28  29
BRANCH  28  41
ATOM     41  C   UNL     1       5.341   0.663  25.672  0.00  0.00    +0.112 C 
BRANCH  41  43
ATOM     42  C   UNL     1       4.872   0.313  28.267  0.00  0.00    +0.008 C 
ATOM     43  C   UNL     1       5.822   0.793  27.166  0.00  0.00    -0.001 C 
ATOM     44  C   UNL     1       7.271   0.424  27.523  0.00  0.00    +0.008 C 
ENDBRANCH  41  43
ENDBRANCH  28  41
ENDBRANCH  27  28
ENDBRANCH   1  27
TORSDOF 17
ENDMDL
MODEL 6
REMARK VINA RESULT:      -6.2      2.476      5.828
REMARK  Name = 
REMARK  19 active torsions:
REMARK  status: ('A' for Active; 'I' for Inactive)
REMARK    1  A    between atoms: C_1  and  C_2
REMARK    2  A    between atoms: C_2  and  C_3
REMARK    3  A    between atoms: C_2  and  C_4
REMARK    4  A    between atoms: C_4  and  N_5
REMARK    5  A    between atoms: N_5  and  C_6
REMARK    6  A    between atoms: N_5  and  S_33
REMARK    7  A    between atoms: C_6  and  C_7
REMARK    8  A    between atoms: C_7  and  C_9
REMARK    9  A    between atoms: C_7  and  O_28
REMARK   10  A    between atoms: C_9  and  C_11
REMARK   11  A    between atoms: C_9  and  N_18
REMARK   12  A    between atoms: C_11  and  C_12
REMARK   13  A    between atoms: C_19  and  O_21
REMARK   14  A    between atoms: O_21  and  C_22
REMARK   15  A    between atoms: O_28  and  P_29
REMARK   16  A    between atoms: P_29  and  O_31
REMARK   17  A    between atoms: P_29  and  O_32
REMARK   18  A    between atoms: S_33  and  C_36
REMARK   19  A    between atoms: C_39  and  N_42
REMARK                            x       y       z     vdW  Elec       q    Type
REMARK                         _______ _______ _______ _____ _____    ______ ____
ROOT
ATOM      1  C   UNL     1       6.875  -1.904  26.153  0.00  0.00    +0.166 C 
ENDROOT
BRANCH   1   2
ATOM      2  C   UNL     1       7.361  -3.367  25.805  0.00  0.00    +0.111 C 
BRANCH   2   3
ATOM      3  N   UNL     1       6.378  -4.434  26.115  0.00  0.00    -0.275 N 
ATOM      4  H   UNL     1       5.539  -4.507  25.555  0.00  0.00    +0.152 HD
ATOM      5  C   UNL     1       6.696  -5.558  26.841  0.00  0.00    +0.401 C 
ATOM      6  O   UNL     1       7.728  -5.703  27.470  0.00  0.00    -0.226 OA
BRANCH   5   7
ATOM      7  O   UNL     1       5.726  -6.512  26.707  0.00  0.00    -0.445 OA
BRANCH   7   8
ATOM      8  C   UNL     1       4.599  -6.137  25.884  0.00  0.00    +0.206 C 
ATOM      9  C   UNL     1       3.228  -6.392  26.511  0.00  0.00    +0.204 C 
ATOM     10  O   UNL     1       2.335  -6.838  25.473  0.00  0.00    -0.376 OA
ATOM     11  C   UNL     1       3.070  -6.902  24.247  0.00  0.00    +0.163 C 
ATOM     12  C   UNL     1       4.528  -7.000  24.637  0.00  0.00    +0.075 C 
ENDBRANCH   7   8
ENDBRANCH   5   7
ENDBRANCH   2   3
BRANCH   2  13
ATOM     13  C   UNL     1       8.108  -3.628  24.456  0.00  0.00    +0.060 C 
BRANCH  13  14
ATOM     14  C   UNL     1       7.450  -4.230  23.226  0.00  0.00    -0.046 A 
ATOM     15  C   UNL     1       7.653  -5.611  22.965  0.00  0.00    +0.004 A 
ATOM     16  C   UNL     1       7.036  -6.249  21.885  0.00  0.00    +0.000 A 
ATOM     17  C   UNL     1       6.209  -5.527  21.033  0.00  0.00    +0.000 A 
ATOM     18  C   UNL     1       6.025  -4.159  21.253  0.00  0.00    +0.000 A 
ATOM     19  C   UNL     1       6.650  -3.518  22.335  0.00  0.00    +0.004 A 
ENDBRANCH  13  14
ENDBRANCH   2  13
ENDBRANCH   1   2
BRANCH   1  20
ATOM     20  O   UNL     1       5.965  -1.796  27.331  0.00  0.00    -0.280 OA
BRANCH  20  21
ATOM     21  P   UNL     1       4.300  -1.690  26.875  0.00  0.00    +0.473 P 
ATOM     22  O   UNL     1       3.974  -3.027  27.530  0.00  0.00    -0.228 OA
BRANCH  21  23
ATOM     23  O   UNL     1       4.027  -0.596  28.045  0.00  0.00    -0.303 OA
ATOM     24  H   UNL     1       3.431  -0.992  28.707  0.00  0.00    +0.222 HD
ENDBRANCH  21  23
BRANCH  21  25
ATOM     25  O   UNL     1       2.635  -1.585  26.420  0.00  0.00    -0.303 OA
ATOM     26  H   UNL     1       2.656  -1.036  25.610  0.00  0.00    +0.222 HD
ENDBRANCH  21  25
ENDBRANCH  20  21
ENDBRANCH   1  20
BRANCH   1  27
ATOM     27  C   UNL     1       6.131  -1.175  25.007  0.00  0.00    +0.143 C 
BRANCH  27  28
ATOM     28  N   UNL     1       6.625   0.037  24.191  0.00  0.00    -0.174 NA
BRANCH  28  29
ATOM     29  S   UNL     1       5.998   1.476  25.040  0.00  0.00    +0.061 S 
ATOM     30  O   UNL     1       6.705   1.565  26.307  0.00  0.00    -0.153 OA
ATOM     31  O   UNL     1       4.555   1.468  25.025  0.00  0.00    -0.153 OA
BRANCH  29  32
ATOM     32  C   UNL     1       6.576   2.856  24.038  0.00  0.00    +0.106 A 
ATOM     33  C   UNL     1       6.079   3.051  22.741  0.00  0.00    +0.030 A 
ATOM     34  C   UNL     1       6.487   4.167  21.996  0.00  0.00    +0.024 A 
ATOM     35  C   UNL     1       7.383   5.097  22.531  0.00  0.00    +0.025 A 
ATOM     36  C   UNL     1       7.962   4.821  23.773  0.00  0.00    +0.024 A 
ATOM     37  C   UNL     1       7.557   3.715  24.530  0.00  0.00    +0.030 A 
BRANCH  35  38
ATOM     38  N   UNL     1       7.870   6.144  21.741  0.00  0.00    -0.358 N 
ATOM     39  H   UNL     1       8.612   6.683  22.178  0.00  0.00    +0.142 HD
ATOM     40  H   UNL     1       8.109   5.872  20.791  0.00  0.00    +0.142 HD
ENDBRANCH  35  38
ENDBRANCH  29  32
ENDBRANCH  28  29
BRANCH  28  41
ATOM     41  C   UNL     1       8.105   0.054  23.838  0.00  0.00    +0.112 C 
BRANCH  41  43
ATOM     42  C   UNL     1       9.265   1.353  21.827  0.00  0.00    +0.008 C 
ATOM     43  C   UNL     1       8.628   0.062  22.353  0.00  0.00    -0.001 C 
ATOM     44  C   UNL     1       9.395  -1.158  21.820  0.00  0.00    +0.008 C 
ENDBRANCH  41  43
ENDBRANCH  28  41
ENDBRANCH  27  28
ENDBRANCH   1  27
TORSDOF 17
ENDMDL
MODEL 7
REMARK VINA RESULT:      -6.2      2.627      6.055
REMARK  Name = 
REMARK  19 active torsions:
REMARK  status: ('A' for Active; 'I' for Inactive)
REMARK    1  A    between atoms: C_1  and  C_2
REMARK    2  A    between atoms: C_2  and  C_3
REMARK    3  A    between atoms: C_2  and  C_4
REMARK    4  A    between atoms: C_4  and  N_5
REMARK    5  A    between atoms: N_5  and  C_6
REMARK    6  A    between atoms: N_5  and  S_33
REMARK    7  A    between atoms: C_6  and  C_7
REMARK    8  A    between atoms: C_7  and  C_9
REMARK    9  A    between atoms: C_7  and  O_28
REMARK   10  A    between atoms: C_9  and  C_11
REMARK   11  A    between atoms: C_9  and  N_18
REMARK   12  A    between atoms: C_11  and  C_12
REMARK   13  A    between atoms: C_19  and  O_21
REMARK   14  A    between atoms: O_21  and  C_22
REMARK   15  A    between atoms: O_28  and  P_29
REMARK   16  A    between atoms: P_29  and  O_31
REMARK   17  A    between atoms: P_29  and  O_32
REMARK   18  A    between atoms: S_33  and  C_36
REMARK   19  A    between atoms: C_39  and  N_42
REMARK                            x       y       z     vdW  Elec       q    Type
REMARK                         _______ _______ _______ _____ _____    ______ ____
ROOT
ATOM      1  C   UNL     1       6.884  -1.410  25.879  0.00  0.00    +0.166 C 
ENDROOT
BRANCH   1   2
ATOM      2  C   UNL     1       7.738  -2.716  25.630  0.00  0.00    +0.111 C 
BRANCH   2   3
ATOM      3  N   UNL     1       7.217  -3.931  26.301  0.00  0.00    -0.275 N 
ATOM      4  H   UNL     1       6.261  -4.216  26.131  0.00  0.00    +0.152 HD
ATOM      5  C   UNL     1       8.033  -4.908  26.821  0.00  0.00    +0.401 C 
ATOM      6  O   UNL     1       9.235  -4.794  26.973  0.00  0.00    -0.226 OA
BRANCH   5   7
ATOM      7  O   UNL     1       7.321  -6.046  27.083  0.00  0.00    -0.445 OA
BRANCH   7   8
ATOM      8  C   UNL     1       6.154  -5.868  27.917  0.00  0.00    +0.206 C 
ATOM      9  C   UNL     1       6.246  -6.512  29.301  0.00  0.00    +0.204 C 
ATOM     10  O   UNL     1       4.951  -7.045  29.634  0.00  0.00    -0.376 OA
ATOM     11  C   UNL     1       4.068  -6.798  28.536  0.00  0.00    +0.163 C 
ATOM     12  C   UNL     1       4.952  -6.583  27.328  0.00  0.00    +0.075 C 
ENDBRANCH   7   8
ENDBRANCH   5   7
ENDBRANCH   2   3
BRANCH   2  13
ATOM     13  C   UNL     1       8.275  -3.021  24.192  0.00  0.00    +0.060 C 
BRANCH  13  14
ATOM     14  C   UNL     1       7.553  -3.904  23.189  0.00  0.00    -0.046 A 
ATOM     15  C   UNL     1       6.621  -3.296  22.308  0.00  0.00    +0.004 A 
ATOM     16  C   UNL     1       5.959  -4.033  21.322  0.00  0.00    +0.000 A 
ATOM     17  C   UNL     1       6.202  -5.395  21.194  0.00  0.00    +0.000 A 
ATOM     18  C   UNL     1       7.090  -6.019  22.075  0.00  0.00    +0.000 A 
ATOM     19  C   UNL     1       7.749  -5.278  23.069  0.00  0.00    +0.004 A 
ENDBRANCH  13  14
ENDBRANCH   2  13
ENDBRANCH   1   2
BRANCH   1  20
ATOM     20  O   UNL     1       5.414  -1.558  25.667  0.00  0.00    -0.280 OA
BRANCH  20  21
ATOM     21  P   UNL     1       4.521  -1.495  27.147  0.00  0.00    +0.473 P 
ATOM     22  O   UNL     1       3.325  -0.839  26.467  0.00  0.00    -0.228 OA
BRANCH  21  23
ATOM     23  O   UNL     1       4.210  -3.086  27.052  0.00  0.00    -0.303 OA
ATOM     24  H   UNL     1       5.003  -3.538  26.710  0.00  0.00    +0.222 HD
ENDBRANCH  21  23
BRANCH  21  25
ATOM     25  O   UNL     1       3.628  -1.432  28.627  0.00  0.00    -0.303 OA
ATOM     26  H   UNL     1       3.706  -2.342  28.976  0.00  0.00    +0.222 HD
ENDBRANCH  21  25
ENDBRANCH  20  21
ENDBRANCH   1  20
BRANCH   1  27
ATOM     27  C   UNL     1       7.290  -0.191  25.016  0.00  0.00    +0.143 C 
BRANCH  27  28
ATOM     28  N   UNL     1       6.473   0.474  23.889  0.00  0.00    -0.174 NA
BRANCH  28  29
ATOM     29  S   UNL     1       5.746   1.931  24.619  0.00  0.00    +0.061 S 
ATOM     30  O   UNL     1       5.828   1.771  26.062  0.00  0.00    -0.153 OA
ATOM     31  O   UNL     1       4.471   2.209  24.003  0.00  0.00    -0.153 OA
BRANCH  29  32
ATOM     32  C   UNL     1       6.894   3.250  24.188  0.00  0.00    +0.106 A 
ATOM     33  C   UNL     1       8.035   3.483  24.969  0.00  0.00    +0.030 A 
ATOM     34  C   UNL     1       8.956   4.469  24.586  0.00  0.00    +0.024 A 
ATOM     35  C   UNL     1       8.755   5.224  23.428  0.00  0.00    +0.025 A 
ATOM     36  C   UNL     1       7.554   5.066  22.731  0.00  0.00    +0.024 A 
ATOM     37  C   UNL     1       6.630   4.079  23.099  0.00  0.00    +0.030 A 
BRANCH  35  38
ATOM     38  N   UNL     1       9.618   6.280  23.114  0.00  0.00    -0.358 N 
ATOM     39  H   UNL     1       9.362   7.167  23.539  0.00  0.00    +0.142 HD
ATOM     40  H   UNL     1      10.603   6.066  23.249  0.00  0.00    +0.142 HD
ENDBRANCH  35  38
ENDBRANCH  29  32
ENDBRANCH  28  29
BRANCH  28  41
ATOM     41  C   UNL     1       7.190   0.670  22.562  0.00  0.00    +0.112 C 
BRANCH  41  43
ATOM     42  C   UNL     1       9.264  -0.709  21.627  0.00  0.00    +0.008 C 
ATOM     43  C   UNL     1       8.748   0.508  22.401  0.00  0.00    -0.001 C 
ATOM     44  C   UNL     1       9.602   1.743  22.071  0.00  0.00    +0.008 C 
ENDBRANCH  41  43
ENDBRANCH  28  41
ENDBRANCH  27  28
ENDBRANCH   1  27
TORSDOF 17
ENDMDL
MODEL 8
REMARK VINA RESULT:      -6.1      2.820      5.863
REMARK  Name = 
REMARK  19 active torsions:
REMARK  status: ('A' for Active; 'I' for Inactive)
REMARK    1  A    between atoms: C_1  and  C_2
REMARK    2  A    between atoms: C_2  and  C_3
REMARK    3  A    between atoms: C_2  and  C_4
REMARK    4  A    between atoms: C_4  and  N_5
REMARK    5  A    between atoms: N_5  and  C_6
REMARK    6  A    between atoms: N_5  and  S_33
REMARK    7  A    between atoms: C_6  and  C_7
REMARK    8  A    between atoms: C_7  and  C_9
REMARK    9  A    between atoms: C_7  and  O_28
REMARK   10  A    between atoms: C_9  and  C_11
REMARK   11  A    between atoms: C_9  and  N_18
REMARK   12  A    between atoms: C_11  and  C_12
REMARK   13  A    between atoms: C_19  and  O_21
REMARK   14  A    between atoms: O_21  and  C_22
REMARK   15  A    between atoms: O_28  and  P_29
REMARK   16  A    between atoms: P_29  and  O_31
REMARK   17  A    between atoms: P_29  and  O_32
REMARK   18  A    between atoms: S_33  and  C_36
REMARK   19  A    between atoms: C_39  and  N_42
REMARK                            x       y       z     vdW  Elec       q    Type
REMARK                         _______ _______ _______ _____ _____    ______ ____
ROOT
ATOM      1  C   UNL     1       6.813  -4.185  23.909  0.00  0.00    +0.166 C 
ENDROOT
BRANCH   1   2
ATOM      2  C   UNL     1       5.256  -4.444  23.977  0.00  0.00    +0.111 C 
BRANCH   2   3
ATOM      3  N   UNL     1       4.874  -5.864  24.164  0.00  0.00    -0.275 N 
ATOM      4  H   UNL     1       5.271  -6.383  24.937  0.00  0.00    +0.152 HD
ATOM      5  C   UNL     1       3.741  -6.415  23.611  0.00  0.00    +0.401 C 
ATOM      6  O   UNL     1       3.056  -5.876  22.763  0.00  0.00    -0.226 OA
BRANCH   5   7
ATOM      7  O   UNL     1       3.456  -7.621  24.192  0.00  0.00    -0.445 OA
BRANCH   7   8
ATOM      8  C   UNL     1       2.129  -7.740  24.750  0.00  0.00    +0.206 C 
ATOM      9  C   UNL     1       1.956  -7.128  26.140  0.00  0.00    +0.204 C 
ATOM     10  O   UNL     1       1.075  -7.978  26.899  0.00  0.00    -0.376 OA
ATOM     11  C   UNL     1       0.713  -9.093  26.079  0.00  0.00    +0.163 C 
ATOM     12  C   UNL     1       1.781  -9.194  25.013  0.00  0.00    +0.075 C 
ENDBRANCH   7   8
ENDBRANCH   5   7
ENDBRANCH   2   3
BRANCH   2  13
ATOM     13  C   UNL     1       4.351  -3.476  24.808  0.00  0.00    +0.060 C 
BRANCH  13  14
ATOM     14  C   UNL     1       3.874  -3.767  26.221  0.00  0.00    -0.046 A 
ATOM     15  C   UNL     1       2.533  -3.444  26.556  0.00  0.00    +0.004 A 
ATOM     16  C   UNL     1       2.004  -3.732  27.817  0.00  0.00    +0.000 A 
ATOM     17  C   UNL     1       2.801  -4.341  28.779  0.00  0.00    +0.000 A 
ATOM     18  C   UNL     1       4.134  -4.635  28.481  0.00  0.00    +0.000 A 
ATOM     19  C   UNL     1       4.665  -4.339  27.215  0.00  0.00    +0.004 A 
ENDBRANCH  13  14
ENDBRANCH   2  13
ENDBRANCH   1   2
BRANCH   1  20
ATOM     20  O   UNL     1       7.671  -5.354  24.262  0.00  0.00    -0.280 OA
BRANCH  20  21
ATOM     21  P   UNL     1       8.608  -5.081  25.691  0.00  0.00    +0.473 P 
ATOM     22  O   UNL     1       7.729  -6.014  26.517  0.00  0.00    -0.228 OA
BRANCH  21  23
ATOM     23  O   UNL     1       9.789  -6.043  25.126  0.00  0.00    -0.303 OA
ATOM     24  H   UNL     1       9.539  -6.971  25.290  0.00  0.00    +0.222 HD
ENDBRANCH  21  23
BRANCH  21  25
ATOM     25  O   UNL     1       9.544  -4.809  27.119  0.00  0.00    -0.303 OA
ATOM     26  H   UNL     1      10.467  -4.858  26.798  0.00  0.00    +0.222 HD
ENDBRANCH  21  25
ENDBRANCH  20  21
ENDBRANCH   1  20
BRANCH   1  27
ATOM     27  C   UNL     1       7.321  -3.032  24.809  0.00  0.00    +0.143 C 
BRANCH  27  28
ATOM     28  N   UNL     1       7.650  -1.586  24.383  0.00  0.00    -0.174 NA
BRANCH  28  29
ATOM     29  S   UNL     1       9.009  -1.720  23.234  0.00  0.00    +0.061 S 
ATOM     30  O   UNL     1       8.437  -2.016  21.930  0.00  0.00    -0.153 OA
ATOM     31  O   UNL     1      10.032  -2.579  23.777  0.00  0.00    -0.153 OA
BRANCH  29  32
ATOM     32  C   UNL     1       9.658  -0.043  23.135  0.00  0.00    +0.106 A 
ATOM     33  C   UNL     1       9.632   0.659  21.921  0.00  0.00    +0.030 A 
ATOM     34  C   UNL     1      10.079   1.987  21.872  0.00  0.00    +0.024 A 
ATOM     35  C   UNL     1      10.549   2.628  23.021  0.00  0.00    +0.025 A 
ATOM     36  C   UNL     1      10.685   1.876  24.191  0.00  0.00    +0.024 A 
ATOM     37  C   UNL     1      10.234   0.552  24.256  0.00  0.00    +0.030 A 
BRANCH  35  38
ATOM     38  N   UNL     1      11.097   3.913  22.940  0.00  0.00    -0.358 N 
ATOM     39  H   UNL     1      10.817   4.433  22.113  0.00  0.00    +0.142 HD
ATOM     40  H   UNL     1      10.991   4.464  23.788  0.00  0.00    +0.142 HD
ENDBRANCH  35  38
ENDBRANCH  29  32
ENDBRANCH  28  29
BRANCH  28  41
ATOM     41  C   UNL     1       6.473  -0.731  23.939  0.00  0.00    +0.112 C 
BRANCH  41  43
ATOM     42  C   UNL     1       6.339   1.830  23.228  0.00  0.00    +0.008 C 
ATOM     43  C   UNL     1       6.316   0.783  24.346  0.00  0.00    -0.001 C 
ATOM     44  C   UNL     1       5.275   1.170  25.408  0.00  0.00    +0.008 C 
ENDBRANCH  41  43
ENDBRANCH  28  41
ENDBRANCH  27  28
ENDBRANCH   1  27
TORSDOF 17
ENDMDL
MODEL 9
REMARK VINA RESULT:      -6.1      2.473      5.203
REMARK  Name = 
REMARK  19 active torsions:
REMARK  status: ('A' for Active; 'I' for Inactive)
REMARK    1  A    between atoms: C_1  and  C_2
REMARK    2  A    between atoms: C_2  and  C_3
REMARK    3  A    between atoms: C_2  and  C_4
REMARK    4  A    between atoms: C_4  and  N_5
REMARK    5  A    between atoms: N_5  and  C_6
REMARK    6  A    between atoms: N_5  and  S_33
REMARK    7  A    between atoms: C_6  and  C_7
REMARK    8  A    between atoms: C_7  and  C_9
REMARK    9  A    between atoms: C_7  and  O_28
REMARK   10  A    between atoms: C_9  and  C_11
REMARK   11  A    between atoms: C_9  and  N_18
REMARK   12  A    between atoms: C_11  and  C_12
REMARK   13  A    between atoms: C_19  and  O_21
REMARK   14  A    between atoms: O_21  and  C_22
REMARK   15  A    between atoms: O_28  and  P_29
REMARK   16  A    between atoms: P_29  and  O_31
REMARK   17  A    between atoms: P_29  and  O_32
REMARK   18  A    between atoms: S_33  and  C_36
REMARK   19  A    between atoms: C_39  and  N_42
REMARK                            x       y       z     vdW  Elec       q    Type
REMARK                         _______ _______ _______ _____ _____    ______ ____
ROOT
ATOM      1  C   UNL     1       7.432  -2.044  25.854  0.00  0.00    +0.166 C 
ENDROOT
BRANCH   1   2
ATOM      2  C   UNL     1       6.507  -3.318  25.982  0.00  0.00    +0.111 C 
BRANCH   2   3
ATOM      3  N   UNL     1       6.711  -4.108  27.221  0.00  0.00    -0.275 N 
ATOM      4  H   UNL     1       6.147  -3.902  28.035  0.00  0.00    +0.152 HD
ATOM      5  C   UNL     1       7.326  -5.338  27.232  0.00  0.00    +0.401 C 
ATOM      6  O   UNL     1       7.938  -5.812  26.294  0.00  0.00    -0.226 OA
BRANCH   5   7
ATOM      7  O   UNL     1       7.100  -5.982  28.418  0.00  0.00    -0.445 OA
BRANCH   7   8
ATOM      8  C   UNL     1       5.746  -5.901  28.917  0.00  0.00    +0.206 C 
ATOM      9  C   UNL     1       5.569  -6.333  30.373  0.00  0.00    +0.204 C 
ATOM     10  O   UNL     1       4.317  -7.035  30.485  0.00  0.00    -0.376 OA
ATOM     11  C   UNL     1       3.719  -7.092  29.187  0.00  0.00    +0.163 C 
ATOM     12  C   UNL     1       4.843  -6.886  28.197  0.00  0.00    +0.075 C 
ENDBRANCH   7   8
ENDBRANCH   5   7
ENDBRANCH   2   3
BRANCH   2  13
ATOM     13  C   UNL     1       4.994  -3.213  25.595  0.00  0.00    +0.060 C 
BRANCH  13  14
ATOM     14  C   UNL     1       4.200  -4.345  24.967  0.00  0.00    -0.046 A 
ATOM     15  C   UNL     1       2.837  -4.112  24.646  0.00  0.00    +0.004 A 
ATOM     16  C   UNL     1       2.057  -5.085  24.016  0.00  0.00    +0.000 A 
ATOM     17  C   UNL     1       2.612  -6.319  23.699  0.00  0.00    +0.000 A 
ATOM     18  C   UNL     1       3.941  -6.581  24.039  0.00  0.00    +0.000 A 
ATOM     19  C   UNL     1       4.722  -5.604  24.677  0.00  0.00    +0.004 A 
ENDBRANCH  13  14
ENDBRANCH   2  13
ENDBRANCH   1   2
BRANCH   1  20
ATOM     20  O   UNL     1       7.134  -0.939  26.812  0.00  0.00    -0.280 OA
BRANCH  20  21
ATOM     21  P   UNL     1       6.692   0.530  26.013  0.00  0.00    +0.473 P 
ATOM     22  O   UNL     1       5.329   0.561  26.695  0.00  0.00    -0.228 OA
BRANCH  21  23
ATOM     23  O   UNL     1       7.653   1.384  27.005  0.00  0.00    -0.303 OA
ATOM     24  H   UNL     1       8.192   0.762  27.528  0.00  0.00    +0.222 HD
ENDBRANCH  21  23
BRANCH  21  25
ATOM     25  O   UNL     1       6.250   1.999  25.214  0.00  0.00    -0.303 OA
ATOM     26  H   UNL     1       5.279   2.034  25.330  0.00  0.00    +0.222 HD
ENDBRANCH  21  25
ENDBRANCH  20  21
ENDBRANCH   1  20
BRANCH   1  27
ATOM     27  C   UNL     1       7.428  -1.374  24.459  0.00  0.00    +0.143 C 
BRANCH  27  28
ATOM     28  N   UNL     1       8.090  -1.895  23.167  0.00  0.00    -0.174 NA
BRANCH  28  29
ATOM     29  S   UNL     1       9.701  -1.131  23.111  0.00  0.00    +0.061 S 
ATOM     30  O   UNL     1      10.295  -1.483  21.830  0.00  0.00    -0.153 OA
ATOM     31  O   UNL     1      10.421  -1.405  24.331  0.00  0.00    -0.153 OA
BRANCH  29  32
ATOM     32  C   UNL     1       9.343   0.632  23.037  0.00  0.00    +0.106 A 
ATOM     33  C   UNL     1       8.571   1.158  21.991  0.00  0.00    +0.030 A 
ATOM     34  C   UNL     1       8.242   2.521  21.981  0.00  0.00    +0.024 A 
ATOM     35  C   UNL     1       8.671   3.369  23.005  0.00  0.00    +0.025 A 
ATOM     36  C   UNL     1       9.543   2.855  23.971  0.00  0.00    +0.024 A 
ATOM     37  C   UNL     1       9.871   1.494  23.997  0.00  0.00    +0.030 A 
BRANCH  35  38
ATOM     38  N   UNL     1       8.436   4.746  22.929  0.00  0.00    -0.358 N 
ATOM     39  H   UNL     1       8.166   5.071  22.005  0.00  0.00    +0.142 HD
ATOM     40  H   UNL     1       7.815   5.102  23.651  0.00  0.00    +0.142 HD
ENDBRANCH  35  38
ENDBRANCH  29  32
ENDBRANCH  28  29
BRANCH  28  41
ATOM     41  C   UNL     1       8.048  -3.399  22.947  0.00  0.00    +0.112 C 
BRANCH  41  43
ATOM     42  C   UNL     1       7.052  -5.616  21.864  0.00  0.00    +0.008 C 
ATOM     43  C   UNL     1       7.073  -4.085  21.917  0.00  0.00    -0.001 C 
ATOM     44  C   UNL     1       5.649  -3.533  21.749  0.00  0.00    +0.008 C 
ENDBRANCH  41  43
ENDBRANCH  28  41
ENDBRANCH  27  28
ENDBRANCH   1  27
TORSDOF 17
ENDMDL
