MODEL 1
REMARK VINA RESULT:      -6.7      0.000      0.000
REMARK  Name = 
REMARK  11 active torsions:
REMARK  status: ('A' for Active; 'I' for Inactive)
REMARK    1  A    between atoms: C_1  and  C_2
REMARK    2  A    between atoms: C_2  and  C_3
REMARK    3  A    between atoms: C_2  and  C_4
REMARK    4  A    between atoms: C_2  and  C_5
REMARK    5  A    between atoms: C_7  and  N_28
REMARK    6  A    between atoms: C_9  and  C_13
REMARK    7  A    between atoms: C_10  and  O_11
REMARK    8  A    between atoms: O_11  and  C_12
REMARK    9  A    between atoms: C_20  and  N_23
REMARK   10  A    between atoms: N_23  and  S_24
REMARK   11  A    between atoms: S_24  and  C_27
REMARK                            x       y       z     vdW  Elec       q    Type
REMARK                         _______ _______ _______ _____ _____    ______ ____
ROOT
ATOM      1  C   UNL     1       8.410   0.836  23.992  0.00  0.00    +0.002 A 
ATOM      2  C   UNL     1       7.951  -0.498  23.795  0.00  0.00    +0.132 A 
ATOM      3  C   UNL     1       6.587  -0.854  24.131  0.00  0.00    +0.026 A 
ATOM      4  C   UNL     1       5.765   0.104  24.765  0.00  0.00    +0.038 A 
ATOM      5  C   UNL     1       6.219   1.375  25.100  0.00  0.00    +0.052 A 
ATOM      6  C   UNL     1       7.519   1.690  24.700  0.00  0.00    +0.034 A 
ENDROOT
BRANCH   3   7
ATOM      7  C   UNL     1       5.979  -2.204  23.816  0.00  0.00    -0.014 A 
ATOM      8  C   UNL     1       5.830  -2.685  22.501  0.00  0.00    +0.009 A 
ATOM      9  C   UNL     1       5.270  -3.946  22.225  0.00  0.00    +0.009 A 
ATOM     10  C   UNL     1       4.761  -4.741  23.260  0.00  0.00    -0.016 A 
ATOM     11  C   UNL     1       4.113  -5.967  23.023  0.00  0.00    +0.033 A 
ATOM     12  C   UNL     1       3.540  -6.677  24.080  0.00  0.00    +0.048 A 
ATOM     13  C   UNL     1       3.599  -6.179  25.377  0.00  0.00    +0.025 A 
ATOM     14  C   UNL     1       4.290  -4.997  25.630  0.00  0.00    +0.010 A 
ATOM     15  C   UNL     1       4.877  -4.273  24.584  0.00  0.00    -0.017 A 
ATOM     16  C   UNL     1       5.545  -3.068  24.837  0.00  0.00    +0.017 A 
BRANCH  12  17
ATOM     17  N   UNL     1       2.810  -7.876  23.819  0.00  0.00    -0.221 N 
ATOM     18  H   UNL     1       2.939  -8.611  24.519  0.00  0.00    +0.173 HD
BRANCH  17  19
ATOM     19  S   UNL     1       1.148  -7.708  23.527  0.00  0.00    +0.040 S 
ATOM     20  C   UNL     1       1.076  -8.015  21.777  0.00  0.00    +0.218 C 
ATOM     21  O   UNL     1       0.723  -6.353  23.791  0.00  0.00    -0.155 OA
ATOM     22  O   UNL     1       0.528  -8.834  24.194  0.00  0.00    -0.155 OA
ENDBRANCH  17  19
ENDBRANCH  12  17
ENDBRANCH   3   7
BRANCH   5  23
ATOM     23  N   UNL     1       5.386   2.319  25.830  0.00  0.00    -0.269 N 
ATOM     24  C   UNL     1       4.231   2.867  25.221  0.00  0.00    +0.334 A 
ATOM     25  O   UNL     1       3.757   2.568  24.126  0.00  0.00    -0.246 OA
ATOM     26  N   UNL     1       3.543   3.798  25.962  0.00  0.00    -0.275 N 
ATOM     27  H   UNL     1       2.694   4.144  25.539  0.00  0.00    +0.173 HD
ATOM     28  C   UNL     1       3.732   4.086  27.275  0.00  0.00    +0.254 A 
ATOM     29  O   UNL     1       2.955   4.761  27.938  0.00  0.00    -0.268 OA
ATOM     30  C   UNL     1       4.943   3.515  27.868  0.00  0.00    +0.088 A 
ATOM     31  C   UNL     1       5.697   2.691  27.137  0.00  0.00    +0.101 A 
ENDBRANCH   5  23
BRANCH   1  33
ATOM     32  C   UNL     1       9.835   3.030  23.731  0.00  0.00    +0.015 C 
ATOM     33  C   UNL     1       9.753   1.478  23.525  0.00  0.00    -0.009 C 
ATOM     34  C   UNL     1      10.946   0.950  24.347  0.00  0.00    +0.015 C 
ATOM     35  C   UNL     1       9.941   1.329  21.990  0.00  0.00    +0.015 C 
ENDBRANCH   1  33
BRANCH   2  36
ATOM     36  O   UNL     1       8.668  -1.607  23.454  0.00  0.00    -0.494 OA
ATOM     37  C   UNL     1       9.520  -2.436  24.206  0.00  0.00    +0.277 C 
ENDBRANCH   2  36
TORSDOF 6
ENDMDL
MODEL 2
REMARK VINA RESULT:      -6.6      1.628      2.300
REMARK  Name = 
REMARK  11 active torsions:
REMARK  status: ('A' for Active; 'I' for Inactive)
REMARK    1  A    between atoms: C_1  and  C_2
REMARK    2  A    between atoms: C_2  and  C_3
REMARK    3  A    between atoms: C_2  and  C_4
REMARK    4  A    between atoms: C_2  and  C_5
REMARK    5  A    between atoms: C_7  and  N_28
REMARK    6  A    between atoms: C_9  and  C_13
REMARK    7  A    between atoms: C_10  and  O_11
REMARK    8  A    between atoms: O_11  and  C_12
REMARK    9  A    between atoms: C_20  and  N_23
REMARK   10  A    between atoms: N_23  and  S_24
REMARK   11  A    between atoms: S_24  and  C_27
REMARK                            x       y       z     vdW  Elec       q    Type
REMARK                         _______ _______ _______ _____ _____    ______ ____
ROOT
ATOM      1  C   UNL     1       9.020   1.251  24.516  0.00  0.00    +0.002 A 
ATOM      2  C   UNL     1       8.577  -0.096  24.654  0.00  0.00    +0.132 A 
ATOM      3  C   UNL     1       7.306  -0.383  25.287  0.00  0.00    +0.026 A 
ATOM      4  C   UNL     1       6.576   0.678  25.870  0.00  0.00    +0.038 A 
ATOM      5  C   UNL     1       7.039   1.990  25.878  0.00  0.00    +0.052 A 
ATOM      6  C   UNL     1       8.238   2.223  25.201  0.00  0.00    +0.034 A 
ENDROOT
BRANCH   3   7
ATOM      7  C   UNL     1       6.698  -1.767  25.340  0.00  0.00    -0.014 A 
ATOM      8  C   UNL     1       6.912  -2.653  26.413  0.00  0.00    +0.009 A 
ATOM      9  C   UNL     1       6.333  -3.935  26.452  0.00  0.00    +0.009 A 
ATOM     10  C   UNL     1       5.579  -4.409  25.370  0.00  0.00    -0.016 A 
ATOM     11  C   UNL     1       5.057  -5.715  25.326  0.00  0.00    +0.033 A 
ATOM     12  C   UNL     1       4.393  -6.170  24.186  0.00  0.00    +0.048 A 
ATOM     13  C   UNL     1       4.245  -5.341  23.078  0.00  0.00    +0.025 A 
ATOM     14  C   UNL     1       4.706  -4.028  23.134  0.00  0.00    +0.010 A 
ATOM     15  C   UNL     1       5.369  -3.551  24.273  0.00  0.00    -0.017 A 
ATOM     16  C   UNL     1       5.859  -2.238  24.315  0.00  0.00    +0.017 A 
BRANCH  12  17
ATOM     17  N   UNL     1       3.943  -7.523  24.117  0.00  0.00    -0.221 N 
ATOM     18  H   UNL     1       4.518  -8.188  24.641  0.00  0.00    +0.173 HD
BRANCH  17  19
ATOM     19  S   UNL     1       2.318  -7.807  24.508  0.00  0.00    +0.040 S 
ATOM     20  C   UNL     1       1.565  -7.763  22.898  0.00  0.00    +0.218 C 
ATOM     21  O   UNL     1       1.793  -6.724  25.308  0.00  0.00    -0.155 OA
ATOM     22  O   UNL     1       2.270  -9.177  24.975  0.00  0.00    -0.155 OA
ENDBRANCH  17  19
ENDBRANCH  12  17
ENDBRANCH   3   7
BRANCH   5  23
ATOM     23  N   UNL     1       6.316   3.054  26.557  0.00  0.00    -0.269 N 
ATOM     24  C   UNL     1       6.541   3.300  27.933  0.00  0.00    +0.334 A 
ATOM     25  O   UNL     1       7.381   2.765  28.656  0.00  0.00    -0.246 OA
ATOM     26  N   UNL     1       5.767   4.282  28.504  0.00  0.00    -0.275 N 
ATOM     27  H   UNL     1       5.970   4.484  29.471  0.00  0.00    +0.173 HD
ATOM     28  C   UNL     1       4.971   5.168  27.850  0.00  0.00    +0.254 A 
ATOM     29  O   UNL     1       4.476   6.153  28.381  0.00  0.00    -0.268 OA
ATOM     30  C   UNL     1       4.749   4.873  26.433  0.00  0.00    +0.088 A 
ATOM     31  C   UNL     1       5.404   3.855  25.871  0.00  0.00    +0.101 A 
ENDBRANCH   5  23
BRANCH   1  33
ATOM     32  C   UNL     1      10.203   1.451  22.176  0.00  0.00    +0.015 C 
ATOM     33  C   UNL     1      10.237   1.794  23.706  0.00  0.00    -0.009 C 
ATOM     34  C   UNL     1      10.282   3.335  23.721  0.00  0.00    +0.015 C 
ATOM     35  C   UNL     1      11.562   1.129  24.173  0.00  0.00    +0.015 C 
ENDBRANCH   1  33
BRANCH   2  36
ATOM     36  O   UNL     1       9.260  -1.250  24.401  0.00  0.00    -0.494 OA
ATOM     37  C   UNL     1       9.558  -1.914  23.197  0.00  0.00    +0.277 C 
ENDBRANCH   2  36
TORSDOF 6
ENDMDL
MODEL 3
REMARK VINA RESULT:      -6.4      3.826     10.071
REMARK  Name = 
REMARK  11 active torsions:
REMARK  status: ('A' for Active; 'I' for Inactive)
REMARK    1  A    between atoms: C_1  and  C_2
REMARK    2  A    between atoms: C_2  and  C_3
REMARK    3  A    between atoms: C_2  and  C_4
REMARK    4  A    between atoms: C_2  and  C_5
REMARK    5  A    between atoms: C_7  and  N_28
REMARK    6  A    between atoms: C_9  and  C_13
REMARK    7  A    between atoms: C_10  and  O_11
REMARK    8  A    between atoms: O_11  and  C_12
REMARK    9  A    between atoms: C_20  and  N_23
REMARK   10  A    between atoms: N_23  and  S_24
REMARK   11  A    between atoms: S_24  and  C_27
REMARK                            x       y       z     vdW  Elec       q    Type
REMARK                         _______ _______ _______ _____ _____    ______ ____
ROOT
ATOM      1  C   UNL     1       2.553  -6.107  28.106  0.00  0.00    +0.002 A 
ATOM      2  C   UNL     1       3.578  -5.119  28.083  0.00  0.00    +0.132 A 
ATOM      3  C   UNL     1       3.975  -4.512  26.828  0.00  0.00    +0.026 A 
ATOM      4  C   UNL     1       3.418  -5.001  25.625  0.00  0.00    +0.038 A 
ATOM      5  C   UNL     1       2.516  -6.058  25.592  0.00  0.00    +0.052 A 
ATOM      6  C   UNL     1       2.119  -6.567  26.832  0.00  0.00    +0.034 A 
ENDROOT
BRANCH   3   7
ATOM      7  C   UNL     1       4.947  -3.355  26.735  0.00  0.00    -0.014 A 
ATOM      8  C   UNL     1       4.645  -2.066  27.214  0.00  0.00    +0.009 A 
ATOM      9  C   UNL     1       5.562  -1.003  27.127  0.00  0.00    +0.009 A 
ATOM     10  C   UNL     1       6.792  -1.174  26.479  0.00  0.00    -0.016 A 
ATOM     11  C   UNL     1       7.701  -0.117  26.289  0.00  0.00    +0.033 A 
ATOM     12  C   UNL     1       8.872  -0.318  25.555  0.00  0.00    +0.048 A 
ATOM     13  C   UNL     1       9.150  -1.562  24.997  0.00  0.00    +0.025 A 
ATOM     14  C   UNL     1       8.286  -2.628  25.229  0.00  0.00    +0.010 A 
ATOM     15  C   UNL     1       7.109  -2.449  25.969  0.00  0.00    -0.017 A 
ATOM     16  C   UNL     1       6.226  -3.518  26.175  0.00  0.00    +0.017 A 
BRANCH  12  17
ATOM     17  N   UNL     1       9.745   0.781  25.295  0.00  0.00    -0.221 N 
ATOM     18  H   UNL     1      10.673   0.513  24.954  0.00  0.00    +0.173 HD
BRANCH  17  19
ATOM     19  S   UNL     1       9.148   2.010  24.291  0.00  0.00    +0.040 S 
ATOM     20  C   UNL     1      10.655   2.647  23.596  0.00  0.00    +0.218 C 
ATOM     21  O   UNL     1       8.513   3.042  25.079  0.00  0.00    -0.155 OA
ATOM     22  O   UNL     1       8.433   1.326  23.233  0.00  0.00    -0.155 OA
ENDBRANCH  17  19
ENDBRANCH  12  17
ENDBRANCH   3   7
BRANCH   5  23
ATOM     23  N   UNL     1       2.019  -6.604  24.339  0.00  0.00    -0.269 N 
ATOM     24  C   UNL     1       2.268  -7.957  24.005  0.00  0.00    +0.334 A 
ATOM     25  O   UNL     1       2.801  -8.811  24.712  0.00  0.00    -0.246 OA
ATOM     26  N   UNL     1       1.816  -8.367  22.773  0.00  0.00    -0.275 N 
ATOM     27  H   UNL     1       1.953  -9.345  22.566  0.00  0.00    +0.173 HD
ATOM     28  C   UNL     1       0.986  -7.679  21.946  0.00  0.00    +0.254 A 
ATOM     29  O   UNL     1       0.444  -8.175  20.967  0.00  0.00    -0.268 OA
ATOM     30  C   UNL     1       0.764  -6.279  22.314  0.00  0.00    +0.088 A 
ATOM     31  C   UNL     1       1.282  -5.818  23.454  0.00  0.00    +0.101 A 
ENDBRANCH   5  23
BRANCH   1  33
ATOM     32  C   UNL     1       0.788  -7.844  28.991  0.00  0.00    +0.015 C 
ATOM     33  C   UNL     1       1.842  -6.738  29.343  0.00  0.00    -0.009 C 
ATOM     34  C   UNL     1       2.844  -7.483  30.249  0.00  0.00    +0.015 C 
ATOM     35  C   UNL     1       0.988  -5.682  30.097  0.00  0.00    +0.015 C 
ENDBRANCH   1  33
BRANCH   2  36
ATOM     36  O   UNL     1       4.406  -4.722  29.092  0.00  0.00    -0.494 OA
ATOM     37  C   UNL     1       4.157  -4.009  30.279  0.00  0.00    +0.277 C 
ENDBRANCH   2  36
TORSDOF 6
ENDMDL
MODEL 4
REMARK VINA RESULT:      -6.3      3.888      9.635
REMARK  Name = 
REMARK  11 active torsions:
REMARK  status: ('A' for Active; 'I' for Inactive)
REMARK    1  A    between atoms: C_1  and  C_2
REMARK    2  A    between atoms: C_2  and  C_3
REMARK    3  A    between atoms: C_2  and  C_4
REMARK    4  A    between atoms: C_2  and  C_5
REMARK    5  A    between atoms: C_7  and  N_28
REMARK    6  A    between atoms: C_9  and  C_13
REMARK    7  A    between atoms: C_10  and  O_11
REMARK    8  A    between atoms: O_11  and  C_12
REMARK    9  A    between atoms: C_20  and  N_23
REMARK   10  A    between atoms: N_23  and  S_24
REMARK   11  A    between atoms: S_24  and  C_27
REMARK                            x       y       z     vdW  Elec       q    Type
REMARK                         _______ _______ _______ _____ _____    ______ ____
ROOT
ATOM      1  C   UNL     1       5.107  -5.807  27.291  0.00  0.00    +0.002 A 
ATOM      2  C   UNL     1       5.961  -4.901  26.600  0.00  0.00    +0.132 A 
ATOM      3  C   UNL     1       5.725  -4.602  25.202  0.00  0.00    +0.026 A 
ATOM      4  C   UNL     1       4.717  -5.310  24.510  0.00  0.00    +0.038 A 
ATOM      5  C   UNL     1       3.951  -6.303  25.113  0.00  0.00    +0.052 A 
ATOM      6  C   UNL     1       4.175  -6.509  26.476  0.00  0.00    +0.034 A 
ENDROOT
BRANCH   3   7
ATOM      7  C   UNL     1       6.492  -3.544  24.438  0.00  0.00    -0.014 A 
ATOM      8  C   UNL     1       7.558  -3.852  23.572  0.00  0.00    +0.009 A 
ATOM      9  C   UNL     1       8.256  -2.858  22.862  0.00  0.00    +0.009 A 
ATOM     10  C   UNL     1       7.962  -1.502  23.060  0.00  0.00    -0.016 A 
ATOM     11  C   UNL     1       8.693  -0.471  22.442  0.00  0.00    +0.033 A 
ATOM     12  C   UNL     1       8.422   0.865  22.744  0.00  0.00    +0.048 A 
ATOM     13  C   UNL     1       7.431   1.192  23.665  0.00  0.00    +0.025 A 
ATOM     14  C   UNL     1       6.663   0.181  24.237  0.00  0.00    +0.010 A 
ATOM     15  C   UNL     1       6.915  -1.165  23.941  0.00  0.00    -0.017 A 
ATOM     16  C   UNL     1       6.160  -2.182  24.542  0.00  0.00    +0.017 A 
BRANCH  12  17
ATOM     17  N   UNL     1       9.225   1.899  22.178  0.00  0.00    -0.221 N 
ATOM     18  H   UNL     1       8.715   2.548  21.572  0.00  0.00    +0.173 HD
BRANCH  17  19
ATOM     19  S   UNL     1      10.165   2.811  23.255  0.00  0.00    +0.040 S 
ATOM     20  C   UNL     1      10.980   1.524  24.172  0.00  0.00    +0.218 C 
ATOM     21  O   UNL     1       9.319   3.570  24.147  0.00  0.00    -0.155 OA
ATOM     22  O   UNL     1      11.165   3.462  22.433  0.00  0.00    -0.155 OA
ENDBRANCH  17  19
ENDBRANCH  12  17
ENDBRANCH   3   7
BRANCH   5  23
ATOM     23  N   UNL     1       2.977  -7.081  24.364  0.00  0.00    -0.269 N 
ATOM     24  C   UNL     1       2.692  -6.755  23.016  0.00  0.00    +0.334 A 
ATOM     25  O   UNL     1       3.255  -5.909  22.322  0.00  0.00    -0.246 OA
ATOM     26  N   UNL     1       1.713  -7.504  22.408  0.00  0.00    -0.275 N 
ATOM     27  H   UNL     1       1.553  -7.297  21.434  0.00  0.00    +0.173 HD
ATOM     28  C   UNL     1       1.148  -8.641  22.891  0.00  0.00    +0.254 A 
ATOM     29  O   UNL     1       0.443  -9.384  22.220  0.00  0.00    -0.268 OA
ATOM     30  C   UNL     1       1.453  -8.938  24.292  0.00  0.00    +0.088 A 
ATOM     31  C   UNL     1       2.320  -8.163  24.947  0.00  0.00    +0.101 A 
ENDBRANCH   5  23
BRANCH   1  33
ATOM     32  C   UNL     1       3.924  -7.120  29.238  0.00  0.00    +0.015 C 
ATOM     33  C   UNL     1       5.055  -6.118  28.819  0.00  0.00    -0.009 C 
ATOM     34  C   UNL     1       6.343  -6.823  29.294  0.00  0.00    +0.015 C 
ATOM     35  C   UNL     1       4.703  -4.846  29.638  0.00  0.00    +0.015 C 
ENDBRANCH   1  33
BRANCH   2  36
ATOM     36  O   UNL     1       7.130  -4.339  27.023  0.00  0.00    -0.494 OA
ATOM     37  C   UNL     1       8.469  -4.740  26.868  0.00  0.00    +0.277 C 
ENDBRANCH   2  36
TORSDOF 6
ENDMDL
MODEL 5
REMARK VINA RESULT:      -6.3      1.775      2.410
REMARK  Name = 
REMARK  11 active torsions:
REMARK  status: ('A' for Active; 'I' for Inactive)
REMARK    1  A    between atoms: C_1  and  C_2
REMARK    2  A    between atoms: C_2  and  C_3
REMARK    3  A    between atoms: C_2  and  C_4
REMARK    4  A    between atoms: C_2  and  C_5
REMARK    5  A    between atoms: C_7  and  N_28
REMARK    6  A    between atoms: C_9  and  C_13
REMARK    7  A    between atoms: C_10  and  O_11
REMARK    8  A    between atoms: O_11  and  C_12
REMARK    9  A    between atoms: C_20  and  N_23
REMARK   10  A    between atoms: N_23  and  S_24
REMARK   11  A    between atoms: S_24  and  C_27
REMARK                            x       y       z     vdW  Elec       q    Type
REMARK                         _______ _______ _______ _____ _____    ______ ____
ROOT
ATOM      1  C   UNL     1       8.472   0.595  23.887  0.00  0.00    +0.002 A 
ATOM      2  C   UNL     1       7.899  -0.601  24.405  0.00  0.00    +0.132 A 
ATOM      3  C   UNL     1       6.481  -0.664  24.693  0.00  0.00    +0.026 A 
ATOM      4  C   UNL     1       5.704   0.510  24.568  0.00  0.00    +0.038 A 
ATOM      5  C   UNL     1       6.251   1.734  24.197  0.00  0.00    +0.052 A 
ATOM      6  C   UNL     1       7.609   1.727  23.871  0.00  0.00    +0.034 A 
ENDROOT
BRANCH   3   7
ATOM      7  C   UNL     1       5.771  -1.936  25.104  0.00  0.00    -0.014 A 
ATOM      8  C   UNL     1       5.429  -2.221  26.439  0.00  0.00    +0.009 A 
ATOM      9  C   UNL     1       4.762  -3.405  26.804  0.00  0.00    +0.009 A 
ATOM     10  C   UNL     1       4.486  -4.390  25.847  0.00  0.00    -0.016 A 
ATOM     11  C   UNL     1       3.903  -5.627  26.181  0.00  0.00    +0.033 A 
ATOM     12  C   UNL     1       3.734  -6.612  25.207  0.00  0.00    +0.048 A 
ATOM     13  C   UNL     1       4.145  -6.386  23.897  0.00  0.00    +0.025 A 
ATOM     14  C   UNL     1       4.668  -5.145  23.545  0.00  0.00    +0.010 A 
ATOM     15  C   UNL     1       4.840  -4.141  24.507  0.00  0.00    -0.017 A 
ATOM     16  C   UNL     1       5.395  -2.903  24.155  0.00  0.00    +0.017 A 
BRANCH  12  17
ATOM     17  N   UNL     1       3.221  -7.893  25.572  0.00  0.00    -0.221 N 
ATOM     18  H   UNL     1       3.660  -8.304  26.401  0.00  0.00    +0.173 HD
BRANCH  17  19
ATOM     19  S   UNL     1       1.539  -8.021  25.747  0.00  0.00    +0.040 S 
ATOM     20  C   UNL     1       1.266  -9.693  25.208  0.00  0.00    +0.218 C 
ATOM     21  O   UNL     1       0.867  -7.114  24.844  0.00  0.00    -0.155 OA
ATOM     22  O   UNL     1       1.298  -7.976  27.174  0.00  0.00    -0.155 OA
ENDBRANCH  17  19
ENDBRANCH  12  17
ENDBRANCH   3   7
BRANCH   5  23
ATOM     23  N   UNL     1       5.454   2.950  24.157  0.00  0.00    -0.269 N 
ATOM     24  C   UNL     1       5.326   3.755  25.314  0.00  0.00    +0.334 A 
ATOM     25  O   UNL     1       5.905   3.607  26.390  0.00  0.00    -0.246 OA
ATOM     26  N   UNL     1       4.501   4.849  25.200  0.00  0.00    -0.275 N 
ATOM     27  H   UNL     1       4.458   5.443  26.014  0.00  0.00    +0.173 HD
ATOM     28  C   UNL     1       3.972   5.346  24.052  0.00  0.00    +0.254 A 
ATOM     29  O   UNL     1       3.427   6.440  23.977  0.00  0.00    -0.268 OA
ATOM     30  C   UNL     1       4.110   4.480  22.879  0.00  0.00    +0.088 A 
ATOM     31  C   UNL     1       4.815   3.352  22.985  0.00  0.00    +0.101 A 
ENDBRANCH   5  23
BRANCH   1  33
ATOM     32  C   UNL     1      10.202   2.286  22.856  0.00  0.00    +0.015 C 
ATOM     33  C   UNL     1       9.911   0.820  23.329  0.00  0.00    -0.009 C 
ATOM     34  C   UNL     1      10.980   0.582  24.415  0.00  0.00    +0.015 C 
ATOM     35  C   UNL     1      10.145  -0.007  22.034  0.00  0.00    +0.015 C 
ENDBRANCH   1  33
BRANCH   2  36
ATOM     36  O   UNL     1       8.529  -1.731  24.840  0.00  0.00    -0.494 OA
ATOM     37  C   UNL     1       9.181  -2.764  24.143  0.00  0.00    +0.277 C 
ENDBRANCH   2  36
TORSDOF 6
ENDMDL
MODEL 6
REMARK VINA RESULT:      -6.3      3.788      9.948
REMARK  Name = 
REMARK  11 active torsions:
REMARK  status: ('A' for Active; 'I' for Inactive)
REMARK    1  A    between atoms: C_1  and  C_2
REMARK    2  A    between atoms: C_2  and  C_3
REMARK    3  A    between atoms: C_2  and  C_4
REMARK    4  A    between atoms: C_2  and  C_5
REMARK    5  A    between atoms: C_7  and  N_28
REMARK    6  A    between atoms: C_9  and  C_13
REMARK    7  A    between atoms: C_10  and  O_11
REMARK    8  A    between atoms: O_11  and  C_12
REMARK    9  A    between atoms: C_20  and  N_23
REMARK   10  A    between atoms: N_23  and  S_24
REMARK   11  A    between atoms: S_24  and  C_27
REMARK                            x       y       z     vdW  Elec       q    Type
REMARK                         _______ _______ _______ _____ _____    ______ ____
ROOT
ATOM      1  C   UNL     1       2.325  -4.850  27.658  0.00  0.00    +0.002 A 
ATOM      2  C   UNL     1       3.499  -4.057  27.505  0.00  0.00    +0.132 A 
ATOM      3  C   UNL     1       4.085  -3.871  26.193  0.00  0.00    +0.026 A 
ATOM      4  C   UNL     1       3.549  -4.582  25.096  0.00  0.00    +0.038 A 
ATOM      5  C   UNL     1       2.488  -5.472  25.226  0.00  0.00    +0.052 A 
ATOM      6  C   UNL     1       1.919  -5.569  26.499  0.00  0.00    +0.034 A 
ENDROOT
BRANCH   3   7
ATOM      7  C   UNL     1       5.239  -2.929  25.925  0.00  0.00    -0.014 A 
ATOM      8  C   UNL     1       6.582  -3.286  26.151  0.00  0.00    +0.009 A 
ATOM      9  C   UNL     1       7.645  -2.402  25.889  0.00  0.00    +0.009 A 
ATOM     10  C   UNL     1       7.393  -1.091  25.466  0.00  0.00    -0.016 A 
ATOM     11  C   UNL     1       8.418  -0.145  25.278  0.00  0.00    +0.033 A 
ATOM     12  C   UNL     1       8.108   1.175  24.946  0.00  0.00    +0.048 A 
ATOM     13  C   UNL     1       6.782   1.572  24.803  0.00  0.00    +0.025 A 
ATOM     14  C   UNL     1       5.764   0.631  24.927  0.00  0.00    +0.010 A 
ATOM     15  C   UNL     1       6.055  -0.700  25.254  0.00  0.00    -0.017 A 
ATOM     16  C   UNL     1       5.026  -1.639  25.409  0.00  0.00    +0.017 A 
BRANCH  12  17
ATOM     17  N   UNL     1       9.148   2.146  24.843  0.00  0.00    -0.221 N 
ATOM     18  H   UNL     1       9.584   2.396  25.734  0.00  0.00    +0.173 HD
BRANCH  17  19
ATOM     19  S   UNL     1      10.381   1.826  23.723  0.00  0.00    +0.040 S 
ATOM     20  C   UNL     1      11.066   3.452  23.496  0.00  0.00    +0.218 C 
ATOM     21  O   UNL     1       9.822   1.366  22.473  0.00  0.00    -0.155 OA
ATOM     22  O   UNL     1      11.359   1.038  24.445  0.00  0.00    -0.155 OA
ENDBRANCH  17  19
ENDBRANCH  12  17
ENDBRANCH   3   7
BRANCH   5  23
ATOM     23  N   UNL     1       2.005  -6.259  24.103  0.00  0.00    -0.269 N 
ATOM     24  C   UNL     1       2.425  -7.601  23.942  0.00  0.00    +0.334 A 
ATOM     25  O   UNL     1       3.114  -8.262  24.718  0.00  0.00    -0.246 OA
ATOM     26  N   UNL     1       1.968  -8.246  22.816  0.00  0.00    -0.275 N 
ATOM     27  H   UNL     1       2.232  -9.216  22.738  0.00  0.00    +0.173 HD
ATOM     28  C   UNL     1       1.003  -7.805  21.968  0.00  0.00    +0.254 A 
ATOM     29  O   UNL     1       0.483  -8.508  21.112  0.00  0.00    -0.268 OA
ATOM     30  C   UNL     1       0.604  -6.408  22.154  0.00  0.00    +0.088 A 
ATOM     31  C   UNL     1       1.115  -5.718  23.176  0.00  0.00    +0.101 A 
ENDBRANCH   5  23
BRANCH   1  33
ATOM     32  C   UNL     1       2.211  -5.397  30.227  0.00  0.00    +0.015 C 
ATOM     33  C   UNL     1       1.427  -5.020  28.922  0.00  0.00    -0.009 C 
ATOM     34  C   UNL     1       0.730  -3.697  29.300  0.00  0.00    +0.015 C 
ATOM     35  C   UNL     1       0.448  -6.214  28.756  0.00  0.00    +0.015 C 
ENDBRANCH   1  33
BRANCH   2  36
ATOM     36  O   UNL     1       4.302  -3.525  28.471  0.00  0.00    -0.494 OA
ATOM     37  C   UNL     1       4.129  -2.419  29.324  0.00  0.00    +0.277 C 
ENDBRANCH   2  36
TORSDOF 6
ENDMDL
MODEL 7
REMARK VINA RESULT:      -6.1      3.048      4.393
REMARK  Name = 
REMARK  11 active torsions:
REMARK  status: ('A' for Active; 'I' for Inactive)
REMARK    1  A    between atoms: C_1  and  C_2
REMARK    2  A    between atoms: C_2  and  C_3
REMARK    3  A    between atoms: C_2  and  C_4
REMARK    4  A    between atoms: C_2  and  C_5
REMARK    5  A    between atoms: C_7  and  N_28
REMARK    6  A    between atoms: C_9  and  C_13
REMARK    7  A    between atoms: C_10  and  O_11
REMARK    8  A    between atoms: O_11  and  C_12
REMARK    9  A    between atoms: C_20  and  N_23
REMARK   10  A    between atoms: N_23  and  S_24
REMARK   11  A    between atoms: S_24  and  C_27
REMARK                            x       y       z     vdW  Elec       q    Type
REMARK                         _______ _______ _______ _____ _____    ______ ____
ROOT
ATOM      1  C   UNL     1       9.088   4.678  24.866  0.00  0.00    +0.002 A 
ATOM      2  C   UNL     1       8.981   3.281  24.607  0.00  0.00    +0.132 A 
ATOM      3  C   UNL     1       7.922   2.506  25.221  0.00  0.00    +0.026 A 
ATOM      4  C   UNL     1       7.079   3.129  26.169  0.00  0.00    +0.038 A 
ATOM      5  C   UNL     1       7.236   4.456  26.553  0.00  0.00    +0.052 A 
ATOM      6  C   UNL     1       8.231   5.176  25.887  0.00  0.00    +0.034 A 
ENDROOT
BRANCH   3   7
ATOM      7  C   UNL     1       7.651   1.056  24.884  0.00  0.00    -0.014 A 
ATOM      8  C   UNL     1       6.978   0.659  23.713  0.00  0.00    +0.009 A 
ATOM      9  C   UNL     1       6.740  -0.694  23.409  0.00  0.00    +0.009 A 
ATOM     10  C   UNL     1       7.099  -1.701  24.315  0.00  0.00    -0.016 A 
ATOM     11  C   UNL     1       6.801  -3.058  24.095  0.00  0.00    +0.033 A 
ATOM     12  C   UNL     1       7.096  -4.012  25.071  0.00  0.00    +0.048 A 
ATOM     13  C   UNL     1       7.682  -3.631  26.274  0.00  0.00    +0.025 A 
ATOM     14  C   UNL     1       8.035  -2.299  26.476  0.00  0.00    +0.010 A 
ATOM     15  C   UNL     1       7.753  -1.329  25.506  0.00  0.00    -0.017 A 
ATOM     16  C   UNL     1       8.082   0.016  25.726  0.00  0.00    +0.017 A 
BRANCH  12  17
ATOM     17  N   UNL     1       6.712  -5.373  24.875  0.00  0.00    -0.221 N 
ATOM     18  H   UNL     1       7.449  -6.054  25.075  0.00  0.00    +0.173 HD
BRANCH  17  19
ATOM     19  S   UNL     1       5.295  -5.885  25.653  0.00  0.00    +0.040 S 
ATOM     20  C   UNL     1       4.556  -6.894  24.388  0.00  0.00    +0.218 C 
ATOM     21  O   UNL     1       4.432  -4.757  25.926  0.00  0.00    -0.155 OA
ATOM     22  O   UNL     1       5.737  -6.767  26.713  0.00  0.00    -0.155 OA
ENDBRANCH  17  19
ENDBRANCH  12  17
ENDBRANCH   3   7
BRANCH   5  23
ATOM     23  N   UNL     1       6.414   5.056  27.593  0.00  0.00    -0.269 N 
ATOM     24  C   UNL     1       6.650   4.745  28.953  0.00  0.00    +0.334 A 
ATOM     25  O   UNL     1       7.568   4.066  29.412  0.00  0.00    -0.246 OA
ATOM     26  N   UNL     1       5.783   5.309  29.860  0.00  0.00    -0.275 N 
ATOM     27  H   UNL     1       5.991   5.122  30.829  0.00  0.00    +0.173 HD
ATOM     28  C   UNL     1       4.870   6.282  29.608  0.00  0.00    +0.254 A 
ATOM     29  O   UNL     1       4.278   6.898  30.485  0.00  0.00    -0.268 OA
ATOM     30  C   UNL     1       4.641   6.566  28.189  0.00  0.00    +0.088 A 
ATOM     31  C   UNL     1       5.394   5.952  27.275  0.00  0.00    +0.101 A 
ENDBRANCH   5  23
BRANCH   1  33
ATOM     32  C   UNL     1      11.311   5.123  23.534  0.00  0.00    +0.015 C 
ATOM     33  C   UNL     1      10.010   5.726  24.171  0.00  0.00    -0.009 C 
ATOM     34  C   UNL     1       9.306   6.389  22.969  0.00  0.00    +0.015 C 
ATOM     35  C   UNL     1      10.576   6.744  25.199  0.00  0.00    +0.015 C 
ENDBRANCH   1  33
BRANCH   2  36
ATOM     36  O   UNL     1       9.853   2.466  23.945  0.00  0.00    -0.494 OA
ATOM     37  C   UNL     1       9.875   2.006  22.616  0.00  0.00    +0.277 C 
ENDBRANCH   2  36
TORSDOF 6
ENDMDL
MODEL 8
REMARK VINA RESULT:      -6.0      4.515      9.154
REMARK  Name = 
REMARK  11 active torsions:
REMARK  status: ('A' for Active; 'I' for Inactive)
REMARK    1  A    between atoms: C_1  and  C_2
REMARK    2  A    between atoms: C_2  and  C_3
REMARK    3  A    between atoms: C_2  and  C_4
REMARK    4  A    between atoms: C_2  and  C_5
REMARK    5  A    between atoms: C_7  and  N_28
REMARK    6  A    between atoms: C_9  and  C_13
REMARK    7  A    between atoms: C_10  and  O_11
REMARK    8  A    between atoms: O_11  and  C_12
REMARK    9  A    between atoms: C_20  and  N_23
REMARK   10  A    between atoms: N_23  and  S_24
REMARK   11  A    between atoms: S_24  and  C_27
REMARK                            x       y       z     vdW  Elec       q    Type
REMARK                         _______ _______ _______ _____ _____    ______ ____
ROOT
ATOM      1  C   UNL     1       5.965  -4.171  23.616  0.00  0.00    +0.002 A 
ATOM      2  C   UNL     1       6.438  -2.853  23.357  0.00  0.00    +0.132 A 
ATOM      3  C   UNL     1       6.147  -1.780  24.287  0.00  0.00    +0.026 A 
ATOM      4  C   UNL     1       5.290  -2.036  25.381  0.00  0.00    +0.038 A 
ATOM      5  C   UNL     1       4.696  -3.275  25.593  0.00  0.00    +0.052 A 
ATOM      6  C   UNL     1       5.057  -4.291  24.705  0.00  0.00    +0.034 A 
ENDROOT
BRANCH   3   7
ATOM      7  C   UNL     1       6.734  -0.391  24.163  0.00  0.00    -0.014 A 
ATOM      8  C   UNL     1       5.956   0.741  23.852  0.00  0.00    +0.009 A 
ATOM      9  C   UNL     1       6.516   2.027  23.748  0.00  0.00    +0.009 A 
ATOM     10  C   UNL     1       7.898   2.215  23.872  0.00  0.00    -0.016 A 
ATOM     11  C   UNL     1       8.512   3.468  23.687  0.00  0.00    +0.033 A 
ATOM     12  C   UNL     1       9.902   3.585  23.730  0.00  0.00    +0.048 A 
ATOM     13  C   UNL     1      10.698   2.464  23.949  0.00  0.00    +0.025 A 
ATOM     14  C   UNL     1      10.098   1.231  24.192  0.00  0.00    +0.010 A 
ATOM     15  C   UNL     1       8.703   1.095  24.161  0.00  0.00    -0.017 A 
ATOM     16  C   UNL     1       8.104  -0.153  24.375  0.00  0.00    +0.017 A 
BRANCH  12  17
ATOM     17  N   UNL     1      10.519   4.842  23.455  0.00  0.00    -0.221 N 
ATOM     18  H   UNL     1      10.382   5.182  22.499  0.00  0.00    +0.173 HD
BRANCH  17  19
ATOM     19  S   UNL     1      10.169   6.112  24.522  0.00  0.00    +0.040 S 
ATOM     20  C   UNL     1      11.799   6.743  24.850  0.00  0.00    +0.218 C 
ATOM     21  O   UNL     1       9.601   5.601  25.748  0.00  0.00    -0.155 OA
ATOM     22  O   UNL     1       9.471   7.100  23.725  0.00  0.00    -0.155 OA
ENDBRANCH  17  19
ENDBRANCH  12  17
ENDBRANCH   3   7
BRANCH   5  23
ATOM     23  N   UNL     1       3.749  -3.497  26.675  0.00  0.00    -0.269 N 
ATOM     24  C   UNL     1       4.195  -4.015  27.915  0.00  0.00    +0.334 A 
ATOM     25  O   UNL     1       5.358  -4.233  28.253  0.00  0.00    -0.246 OA
ATOM     26  N   UNL     1       3.221  -4.251  28.856  0.00  0.00    -0.275 N 
ATOM     27  H   UNL     1       3.555  -4.572  29.751  0.00  0.00    +0.173 HD
ATOM     28  C   UNL     1       1.925  -3.849  28.796  0.00  0.00    +0.254 A 
ATOM     29  O   UNL     1       1.158  -3.895  29.749  0.00  0.00    -0.268 OA
ATOM     30  C   UNL     1       1.495  -3.333  27.495  0.00  0.00    +0.088 A 
ATOM     31  C   UNL     1       2.397  -3.193  26.521  0.00  0.00    +0.101 A 
ENDBRANCH   5  23
BRANCH   1  33
ATOM     32  C   UNL     1       6.062  -5.452  21.322  0.00  0.00    +0.015 C 
ATOM     33  C   UNL     1       6.320  -5.493  22.868  0.00  0.00    -0.009 C 
ATOM     34  C   UNL     1       7.827  -5.807  22.964  0.00  0.00    +0.015 C 
ATOM     35  C   UNL     1       5.409  -6.662  23.334  0.00  0.00    +0.015 C 
ENDBRANCH   1  33
BRANCH   2  36
ATOM     36  O   UNL     1       7.039  -2.366  22.233  0.00  0.00    -0.494 OA
ATOM     37  C   UNL     1       8.392  -2.289  21.856  0.00  0.00    +0.277 C 
ENDBRANCH   2  36
TORSDOF 6
ENDMDL
MODEL 9
REMARK VINA RESULT:      -5.9      4.515      9.049
REMARK  Name = 
REMARK  11 active torsions:
REMARK  status: ('A' for Active; 'I' for Inactive)
REMARK    1  A    between atoms: C_1  and  C_2
REMARK    2  A    between atoms: C_2  and  C_3
REMARK    3  A    between atoms: C_2  and  C_4
REMARK    4  A    between atoms: C_2  and  C_5
REMARK    5  A    between atoms: C_7  and  N_28
REMARK    6  A    between atoms: C_9  and  C_13
REMARK    7  A    between atoms: C_10  and  O_11
REMARK    8  A    between atoms: O_11  and  C_12
REMARK    9  A    between atoms: C_20  and  N_23
REMARK   10  A    between atoms: N_23  and  S_24
REMARK   11  A    between atoms: S_24  and  C_27
REMARK                            x       y       z     vdW  Elec       q    Type
REMARK                         _______ _______ _______ _____ _____    ______ ____
ROOT
ATOM      1  C   UNL     1       6.333  -4.411  23.552  0.00  0.00    +0.002 A 
ATOM      2  C   UNL     1       7.030  -3.184  23.356  0.00  0.00    +0.132 A 
ATOM      3  C   UNL     1       7.043  -2.180  24.401  0.00  0.00    +0.026 A 
ATOM      4  C   UNL     1       6.260  -2.385  25.559  0.00  0.00    +0.038 A 
ATOM      5  C   UNL     1       5.455  -3.507  25.729  0.00  0.00    +0.052 A 
ATOM      6  C   UNL     1       5.526  -4.474  24.723  0.00  0.00    +0.034 A 
ENDROOT
BRANCH   3   7
ATOM      7  C   UNL     1       7.878  -0.920  24.331  0.00  0.00    -0.014 A 
ATOM      8  C   UNL     1       9.138  -0.804  24.949  0.00  0.00    +0.009 A 
ATOM      9  C   UNL     1       9.905   0.372  24.868  0.00  0.00    +0.009 A 
ATOM     10  C   UNL     1       9.398   1.511  24.229  0.00  0.00    -0.016 A 
ATOM     11  C   UNL     1      10.091   2.735  24.201  0.00  0.00    +0.033 A 
ATOM     12  C   UNL     1       9.502   3.866  23.633  0.00  0.00    +0.048 A 
ATOM     13  C   UNL     1       8.221   3.798  23.094  0.00  0.00    +0.025 A 
ATOM     14  C   UNL     1       7.552   2.577  23.063  0.00  0.00    +0.010 A 
ATOM     15  C   UNL     1       8.129   1.430  23.622  0.00  0.00    -0.017 A 
ATOM     16  C   UNL     1       7.440   0.210  23.617  0.00  0.00    +0.017 A 
BRANCH  12  17
ATOM     17  N   UNL     1      10.177   5.123  23.687  0.00  0.00    -0.221 N 
ATOM     18  H   UNL     1      10.201   5.629  22.797  0.00  0.00    +0.173 HD
BRANCH  17  19
ATOM     19  S   UNL     1       9.683   6.203  24.896  0.00  0.00    +0.040 S 
ATOM     20  C   UNL     1       8.404   7.104  24.049  0.00  0.00    +0.218 C 
ATOM     21  O   UNL     1      10.757   7.108  25.236  0.00  0.00    -0.155 OA
ATOM     22  O   UNL     1       9.044   5.383  25.905  0.00  0.00    -0.155 OA
ENDBRANCH  17  19
ENDBRANCH  12  17
ENDBRANCH   3   7
BRANCH   5  23
ATOM     23  N   UNL     1       4.590  -3.661  26.888  0.00  0.00    -0.269 N 
ATOM     24  C   UNL     1       3.409  -2.889  27.000  0.00  0.00    +0.334 A 
ATOM     25  O   UNL     1       2.939  -2.124  26.159  0.00  0.00    -0.246 OA
ATOM     26  N   UNL     1       2.687  -3.055  28.159  0.00  0.00    -0.275 N 
ATOM     27  H   UNL     1       1.822  -2.538  28.206  0.00  0.00    +0.173 HD
ATOM     28  C   UNL     1       2.874  -4.020  29.096  0.00  0.00    +0.254 A 
ATOM     29  O   UNL     1       2.075  -4.255  29.993  0.00  0.00    -0.268 OA
ATOM     30  C   UNL     1       4.113  -4.788  28.957  0.00  0.00    +0.088 A 
ATOM     31  C   UNL     1       4.895  -4.574  27.897  0.00  0.00    +0.101 A 
ENDBRANCH   5  23
BRANCH   1  33
ATOM     32  C   UNL     1       6.011  -5.431  21.150  0.00  0.00    +0.015 C 
ATOM     33  C   UNL     1       6.350  -5.690  22.660  0.00  0.00    -0.009 C 
ATOM     34  C   UNL     1       7.757  -6.318  22.601  0.00  0.00    +0.015 C 
ATOM     35  C   UNL     1       5.240  -6.688  23.090  0.00  0.00    +0.015 C 
ENDBRANCH   1  33
BRANCH   2  36
ATOM     36  O   UNL     1       7.607  -2.703  22.217  0.00  0.00    -0.494 OA
ATOM     37  C   UNL     1       8.955  -2.539  21.851  0.00  0.00    +0.277 C 
ENDBRANCH   2  36
TORSDOF 6
ENDMDL
