MODEL 1
REMARK VINA RESULT:      -7.6      0.000      0.000
REMARK  Name = 
REMARK  17 active torsions:
REMARK  status: ('A' for Active; 'I' for Inactive)
REMARK    1  A    between atoms: C_1  and  C_2
REMARK    2  A    between atoms: C_2  and  C_3
REMARK    3  A    between atoms: C_2  and  C_4
REMARK    4  A    between atoms: C_2  and  N_5
REMARK    5  A    between atoms: C_6  and  C_8
REMARK    6  A    between atoms: N_20  and  C_21
REMARK    7  A    between atoms: C_21  and  C_22
REMARK    8  A    between atoms: C_22  and  C_24
REMARK    9  A    between atoms: C_22  and  O_55
REMARK   10  A    between atoms: C_24  and  C_26
REMARK   11  A    between atoms: C_24  and  N_33
REMARK   12  A    between atoms: C_26  and  C_27
REMARK   13  A    between atoms: C_34  and  C_36
REMARK   14  A    between atoms: C_36  and  C_38
REMARK   15  A    between atoms: C_36  and  N_42
REMARK   16  A    between atoms: C_38  and  C_39
REMARK   17  A    between atoms: C_43  and  C_45
REMARK                            x       y       z     vdW  Elec       q    Type
REMARK                         _______ _______ _______ _____ _____    ______ ____
ROOT
ATOM      1  C   UNL     1       9.441  -2.639  24.862  0.00  0.00    +0.107 C 
ENDROOT
BRANCH   1   2
ATOM      2  N   UNL     1       8.379  -1.612  25.105  0.00  0.00    -0.308 N 
ATOM      3  H   UNL     1       7.816  -1.306  24.321  0.00  0.00    +0.149 HD
ATOM      4  C   UNL     1       8.320  -0.796  26.215  0.00  0.00    +0.234 C 
ATOM      5  O   UNL     1       9.117  -0.925  27.149  0.00  0.00    -0.274 OA
BRANCH   4   6
ATOM      6  C   UNL     1       7.098   0.135  26.355  0.00  0.00    +0.168 C 
BRANCH   6   7
ATOM      7  N   UNL     1       7.179   1.393  25.640  0.00  0.00    -0.298 N 
ATOM      8  H   UNL     1       7.390   1.415  24.640  0.00  0.00    +0.150 HD
ATOM      9  C   UNL     1       7.165   2.594  26.317  0.00  0.00    +0.263 C 
ATOM     10  O   UNL     1       7.050   2.666  27.524  0.00  0.00    -0.269 OA
BRANCH   9  11
ATOM     11  C   UNL     1       7.397   3.820  25.496  0.00  0.00    +0.126 A 
ATOM     12  C   UNL     1       8.675   4.034  24.985  0.00  0.00    +0.033 A 
ATOM     13  C   UNL     1       8.805   4.956  23.962  0.00  0.00    +0.012 A 
ATOM     14  C   UNL     1       7.672   5.603  23.459  0.00  0.00    +0.000 A 
ATOM     15  C   UNL     1       6.444   5.422  24.146  0.00  0.00    +0.072 A 
ATOM     16  C   UNL     1       5.341   6.127  23.689  0.00  0.00    +0.028 A 
ATOM     17  C   UNL     1       5.385   6.874  22.506  0.00  0.00    +0.002 A 
ATOM     18  C   UNL     1       6.566   6.950  21.779  0.00  0.00    +0.001 A 
ATOM     19  C   UNL     1       7.718   6.352  22.278  0.00  0.00    +0.010 A 
ATOM     20  N   UNL     1       6.301   4.541  25.150  0.00  0.00    -0.242 NA
ENDBRANCH   9  11
ENDBRANCH   6   7
BRANCH   6  21
ATOM     21  C   UNL     1       5.812  -0.649  26.067  0.00  0.00    +0.127 C 
BRANCH  21  22
ATOM     22  C   UNL     1       4.851  -0.725  27.230  0.00  0.00    +0.213 C 
ATOM     23  N   UNL     1       5.095   0.177  28.224  0.00  0.00    -0.329 N 
ATOM     24  H   UNL     1       4.497   0.169  29.017  0.00  0.00    +0.145 HD
ATOM     25  H   UNL     1       5.898   0.786  28.226  0.00  0.00    +0.145 HD
ATOM     26  O   UNL     1       3.893  -1.491  27.285  0.00  0.00    -0.276 OA
ENDBRANCH  21  22
ENDBRANCH   6  21
ENDBRANCH   4   6
ENDBRANCH   1   2
BRANCH   1  27
ATOM     27  C   UNL     1       8.824  -4.081  24.848  0.00  0.00    +0.149 C 
BRANCH  27  28
ATOM     28  O   UNL     1       9.827  -5.089  24.790  0.00  0.00    -0.389 OA
ATOM     29  H   UNL     1      10.661  -4.701  24.479  0.00  0.00    +0.210 HD
ENDBRANCH  27  28
BRANCH  27  30
ATOM     30  C   UNL     1       7.817  -4.389  23.682  0.00  0.00    +0.118 C 
BRANCH  30  32
ATOM     31  C   UNL     1       5.761  -4.296  25.088  0.00  0.00    +0.143 C 
ATOM     32  N   UNL     1       6.522  -5.067  24.042  0.00  0.00    -0.289 NA
ATOM     33  C   UNL     1       5.744  -5.298  22.807  0.00  0.00    +0.089 C 
ATOM     34  C   UNL     1       4.290  -5.706  23.043  0.00  0.00    +0.006 C 
ATOM     35  C   UNL     1       3.546  -4.532  23.697  0.00  0.00    -0.005 C 
ATOM     36  C   UNL     1       2.211  -4.944  24.316  0.00  0.00    +0.004 C 
ATOM     37  C   UNL     1       2.341  -6.158  25.214  0.00  0.00    +0.000 C 
ATOM     38  C   UNL     1       2.875  -7.349  24.434  0.00  0.00    +0.000 C 
ATOM     39  C   UNL     1       4.205  -7.063  23.752  0.00  0.00    +0.005 C 
ATOM     40  C   UNL     1       4.418  -3.678  24.638  0.00  0.00    +0.032 C 
BRANCH  31  43
ATOM     41  N   UNL     1       4.669  -4.522  27.330  0.00  0.00    -0.309 N 
ATOM     42  H   UNL     1       4.449  -3.545  27.150  0.00  0.00    +0.149 HD
ATOM     43  C   UNL     1       5.536  -5.074  26.415  0.00  0.00    +0.231 C 
ATOM     44  O   UNL     1       6.041  -6.184  26.596  0.00  0.00    -0.274 OA
BRANCH  41  46
ATOM     45  C   UNL     1       3.537  -4.167  29.512  0.00  0.00    +0.031 C 
ATOM     46  C   UNL     1       4.404  -5.109  28.659  0.00  0.00    +0.026 C 
ATOM     47  C   UNL     1       3.634  -6.427  28.472  0.00  0.00    +0.031 C 
ATOM     48  C   UNL     1       5.711  -5.416  29.421  0.00  0.00    +0.031 C 
ENDBRANCH  41  46
ENDBRANCH  31  43
ENDBRANCH  30  32
ENDBRANCH  27  30
ENDBRANCH   1  27
BRANCH   1  49
ATOM     49  C   UNL     1      10.161  -2.387  23.508  0.00  0.00    +0.060 C 
BRANCH  49  50
ATOM     50  C   UNL     1      10.051  -0.977  22.980  0.00  0.00    -0.046 A 
ATOM     51  C   UNL     1       9.351  -0.719  21.797  0.00  0.00    +0.004 A 
ATOM     52  C   UNL     1       9.218   0.587  21.336  0.00  0.00    +0.000 A 
ATOM     53  C   UNL     1       9.756   1.652  22.049  0.00  0.00    +0.000 A 
ATOM     54  C   UNL     1      10.497   1.401  23.200  0.00  0.00    +0.000 A 
ATOM     55  C   UNL     1      10.651   0.092  23.659  0.00  0.00    +0.004 A 
ENDBRANCH  49  50
ENDBRANCH   1  49
TORSDOF 14
ENDMDL
MODEL 2
REMARK VINA RESULT:      -7.5      2.311      7.688
REMARK  Name = 
REMARK  17 active torsions:
REMARK  status: ('A' for Active; 'I' for Inactive)
REMARK    1  A    between atoms: C_1  and  C_2
REMARK    2  A    between atoms: C_2  and  C_3
REMARK    3  A    between atoms: C_2  and  C_4
REMARK    4  A    between atoms: C_2  and  N_5
REMARK    5  A    between atoms: C_6  and  C_8
REMARK    6  A    between atoms: N_20  and  C_21
REMARK    7  A    between atoms: C_21  and  C_22
REMARK    8  A    between atoms: C_22  and  C_24
REMARK    9  A    between atoms: C_22  and  O_55
REMARK   10  A    between atoms: C_24  and  C_26
REMARK   11  A    between atoms: C_24  and  N_33
REMARK   12  A    between atoms: C_26  and  C_27
REMARK   13  A    between atoms: C_34  and  C_36
REMARK   14  A    between atoms: C_36  and  C_38
REMARK   15  A    between atoms: C_36  and  N_42
REMARK   16  A    between atoms: C_38  and  C_39
REMARK   17  A    between atoms: C_43  and  C_45
REMARK                            x       y       z     vdW  Elec       q    Type
REMARK                         _______ _______ _______ _____ _____    ______ ____
ROOT
ATOM      1  C   UNL     1       4.069  -4.065  25.705  0.00  0.00    +0.107 C 
ENDROOT
BRANCH   1   2
ATOM      2  N   UNL     1       5.482  -4.070  25.209  0.00  0.00    -0.308 N 
ATOM      3  H   UNL     1       5.954  -3.183  25.086  0.00  0.00    +0.149 HD
ATOM      4  C   UNL     1       6.085  -5.140  24.582  0.00  0.00    +0.234 C 
ATOM      5  O   UNL     1       5.506  -6.224  24.463  0.00  0.00    -0.274 OA
BRANCH   4   6
ATOM      6  C   UNL     1       7.582  -5.011  24.228  0.00  0.00    +0.168 C 
BRANCH   6   7
ATOM      7  N   UNL     1       8.002  -3.717  23.731  0.00  0.00    -0.298 N 
ATOM      8  H   UNL     1       7.382  -3.153  23.144  0.00  0.00    +0.150 HD
ATOM      9  C   UNL     1       9.308  -3.294  23.872  0.00  0.00    +0.263 C 
ATOM     10  O   UNL     1      10.153  -3.954  24.440  0.00  0.00    -0.269 OA
BRANCH   9  11
ATOM     11  C   UNL     1       9.664  -2.009  23.199  0.00  0.00    +0.126 A 
ATOM     12  C   UNL     1       9.127  -1.760  21.937  0.00  0.00    +0.033 A 
ATOM     13  C   UNL     1       9.169  -0.456  21.474  0.00  0.00    +0.012 A 
ATOM     14  C   UNL     1       9.703   0.553  22.282  0.00  0.00    +0.000 A 
ATOM     15  C   UNL     1      10.352   0.169  23.483  0.00  0.00    +0.072 A 
ATOM     16  C   UNL     1      10.946   1.166  24.241  0.00  0.00    +0.028 A 
ATOM     17  C   UNL     1      10.789   2.520  23.925  0.00  0.00    +0.002 A 
ATOM     18  C   UNL     1      10.053   2.890  22.807  0.00  0.00    +0.001 A 
ATOM     19  C   UNL     1       9.548   1.907  21.963  0.00  0.00    +0.010 A 
ATOM     20  N   UNL     1      10.334  -1.093  23.943  0.00  0.00    -0.242 NA
ENDBRANCH   9  11
ENDBRANCH   6   7
BRANCH   6  21
ATOM     21  C   UNL     1       8.437  -5.526  25.392  0.00  0.00    +0.127 C 
BRANCH  21  22
ATOM     22  C   UNL     1       7.978  -5.067  26.757  0.00  0.00    +0.213 C 
ATOM     23  N   UNL     1       7.566  -6.073  27.581  0.00  0.00    -0.329 N 
ATOM     24  H   UNL     1       7.248  -5.829  28.489  0.00  0.00    +0.145 HD
ATOM     25  H   UNL     1       7.491  -7.032  27.280  0.00  0.00    +0.145 HD
ATOM     26  O   UNL     1       8.007  -3.901  27.138  0.00  0.00    -0.276 OA
ENDBRANCH  21  22
ENDBRANCH   6  21
ENDBRANCH   4   6
ENDBRANCH   1   2
BRANCH   1  27
ATOM     27  C   UNL     1       3.828  -2.854  26.674  0.00  0.00    +0.149 C 
BRANCH  27  28
ATOM     28  O   UNL     1       2.883  -1.930  26.145  0.00  0.00    -0.389 OA
ATOM     29  H   UNL     1       3.186  -1.024  26.312  0.00  0.00    +0.210 HD
ENDBRANCH  27  28
BRANCH  27  30
ATOM     30  C   UNL     1       5.099  -2.017  27.062  0.00  0.00    +0.118 C 
BRANCH  30  32
ATOM     31  C   UNL     1       5.292   0.464  27.208  0.00  0.00    +0.143 C 
ATOM     32  N   UNL     1       5.347  -0.739  26.305  0.00  0.00    -0.289 NA
ATOM     33  C   UNL     1       6.624  -0.859  25.569  0.00  0.00    +0.089 C 
ATOM     34  C   UNL     1       7.150   0.457  24.998  0.00  0.00    +0.006 C 
ATOM     35  C   UNL     1       7.515   1.392  26.161  0.00  0.00    -0.005 C 
ATOM     36  C   UNL     1       7.690   2.845  25.724  0.00  0.00    +0.004 C 
ATOM     37  C   UNL     1       6.527   3.341  24.887  0.00  0.00    +0.000 C 
ATOM     38  C   UNL     1       6.370   2.497  23.632  0.00  0.00    +0.000 C 
ATOM     39  C   UNL     1       6.200   1.015  23.932  0.00  0.00    +0.005 C 
ATOM     40  C   UNL     1       6.620   1.231  27.405  0.00  0.00    +0.032 C 
BRANCH  31  43
ATOM     41  N   UNL     1       4.262   2.738  27.400  0.00  0.00    -0.309 N 
ATOM     42  H   UNL     1       4.915   2.800  28.178  0.00  0.00    +0.149 HD
ATOM     43  C   UNL     1       4.175   1.482  26.846  0.00  0.00    +0.231 C 
ATOM     44  O   UNL     1       3.300   1.202  26.023  0.00  0.00    -0.274 OA
BRANCH  41  46
ATOM     45  C   UNL     1       3.005   4.048  25.705  0.00  0.00    +0.031 C 
ATOM     46  C   UNL     1       3.244   3.790  27.203  0.00  0.00    +0.026 C 
ATOM     47  C   UNL     1       1.918   3.316  27.823  0.00  0.00    +0.031 C 
ATOM     48  C   UNL     1       3.649   5.115  27.882  0.00  0.00    +0.031 C 
ENDBRANCH  41  46
ENDBRANCH  31  43
ENDBRANCH  30  32
ENDBRANCH  27  30
ENDBRANCH   1  27
BRANCH   1  49
ATOM     49  C   UNL     1       3.065  -3.971  24.524  0.00  0.00    +0.060 C 
BRANCH  49  50
ATOM     50  C   UNL     1       2.212  -5.199  24.312  0.00  0.00    -0.046 A 
ATOM     51  C   UNL     1       1.826  -5.986  25.401  0.00  0.00    +0.004 A 
ATOM     52  C   UNL     1       1.006  -7.093  25.205  0.00  0.00    +0.000 A 
ATOM     53  C   UNL     1       0.543  -7.421  23.935  0.00  0.00    +0.000 A 
ATOM     54  C   UNL     1       0.962  -6.673  22.840  0.00  0.00    +0.000 A 
ATOM     55  C   UNL     1       1.800  -5.572  23.025  0.00  0.00    +0.004 A 
ENDBRANCH  49  50
ENDBRANCH   1  49
TORSDOF 14
ENDMDL
MODEL 3
REMARK VINA RESULT:      -7.4      2.233      8.213
REMARK  Name = 
REMARK  17 active torsions:
REMARK  status: ('A' for Active; 'I' for Inactive)
REMARK    1  A    between atoms: C_1  and  C_2
REMARK    2  A    between atoms: C_2  and  C_3
REMARK    3  A    between atoms: C_2  and  C_4
REMARK    4  A    between atoms: C_2  and  N_5
REMARK    5  A    between atoms: C_6  and  C_8
REMARK    6  A    between atoms: N_20  and  C_21
REMARK    7  A    between atoms: C_21  and  C_22
REMARK    8  A    between atoms: C_22  and  C_24
REMARK    9  A    between atoms: C_22  and  O_55
REMARK   10  A    between atoms: C_24  and  C_26
REMARK   11  A    between atoms: C_24  and  N_33
REMARK   12  A    between atoms: C_26  and  C_27
REMARK   13  A    between atoms: C_34  and  C_36
REMARK   14  A    between atoms: C_36  and  C_38
REMARK   15  A    between atoms: C_36  and  N_42
REMARK   16  A    between atoms: C_38  and  C_39
REMARK   17  A    between atoms: C_43  and  C_45
REMARK                            x       y       z     vdW  Elec       q    Type
REMARK                         _______ _______ _______ _____ _____    ______ ____
ROOT
ATOM      1  C   UNL     1       4.481  -2.867  27.981  0.00  0.00    +0.107 C 
ENDROOT
BRANCH   1   2
ATOM      2  N   UNL     1       5.562  -3.298  27.040  0.00  0.00    -0.308 N 
ATOM      3  H   UNL     1       6.527  -3.152  27.312  0.00  0.00    +0.149 HD
ATOM      4  C   UNL     1       5.373  -3.562  25.700  0.00  0.00    +0.234 C 
ATOM      5  O   UNL     1       4.246  -3.540  25.195  0.00  0.00    -0.274 OA
BRANCH   4   6
ATOM      6  C   UNL     1       6.577  -4.098  24.898  0.00  0.00    +0.168 C 
BRANCH   6   7
ATOM      7  N   UNL     1       7.523  -3.100  24.439  0.00  0.00    -0.298 N 
ATOM      8  H   UNL     1       7.726  -2.271  25.003  0.00  0.00    +0.150 HD
ATOM      9  C   UNL     1       8.027  -3.140  23.156  0.00  0.00    +0.263 C 
ATOM     10  O   UNL     1       7.741  -4.015  22.365  0.00  0.00    -0.269 OA
BRANCH   9  11
ATOM     11  C   UNL     1       8.881  -1.986  22.745  0.00  0.00    +0.126 A 
ATOM     12  C   UNL     1       8.728  -1.485  21.453  0.00  0.00    +0.033 A 
ATOM     13  C   UNL     1       9.250  -0.230  21.192  0.00  0.00    +0.012 A 
ATOM     14  C   UNL     1       9.867   0.495  22.215  0.00  0.00    +0.000 A 
ATOM     15  C   UNL     1      10.098  -0.163  23.450  0.00  0.00    +0.072 A 
ATOM     16  C   UNL     1      10.779   0.536  24.435  0.00  0.00    +0.028 A 
ATOM     17  C   UNL     1      11.099   1.889  24.286  0.00  0.00    +0.002 A 
ATOM     18  C   UNL     1      10.763   2.556  23.114  0.00  0.00    +0.001 A 
ATOM     19  C   UNL     1      10.188   1.849  22.064  0.00  0.00    +0.010 A 
ATOM     20  N   UNL     1       9.612  -1.387  23.718  0.00  0.00    -0.242 NA
ENDBRANCH   9  11
ENDBRANCH   6   7
BRANCH   6  21
ATOM     21  C   UNL     1       7.233  -5.257  25.658  0.00  0.00    +0.127 C 
BRANCH  21  22
ATOM     22  C   UNL     1       8.615  -4.956  26.189  0.00  0.00    +0.213 C 
ATOM     23  N   UNL     1       9.606  -5.723  25.651  0.00  0.00    -0.329 N 
ATOM     24  H   UNL     1      10.535  -5.573  25.968  0.00  0.00    +0.145 HD
ATOM     25  H   UNL     1       9.425  -6.486  25.017  0.00  0.00    +0.145 HD
ATOM     26  O   UNL     1       8.863  -4.070  27.001  0.00  0.00    -0.276 OA
ENDBRANCH  21  22
ENDBRANCH   6  21
ENDBRANCH   4   6
ENDBRANCH   1   2
BRANCH   1  27
ATOM     27  C   UNL     1       4.188  -1.334  27.823  0.00  0.00    +0.149 C 
BRANCH  27  28
ATOM     28  O   UNL     1       3.431  -1.055  26.650  0.00  0.00    -0.389 OA
ATOM     29  H   UNL     1       3.801  -0.279  26.200  0.00  0.00    +0.210 HD
ENDBRANCH  27  28
BRANCH  27  30
ATOM     30  C   UNL     1       5.446  -0.393  27.773  0.00  0.00    +0.118 C 
BRANCH  30  32
ATOM     31  C   UNL     1       5.397   1.913  26.829  0.00  0.00    +0.143 C 
ATOM     32  N   UNL     1       5.631   0.455  26.542  0.00  0.00    -0.289 NA
ATOM     33  C   UNL     1       6.967   0.180  25.970  0.00  0.00    +0.089 C 
ATOM     34  C   UNL     1       7.410   1.174  24.898  0.00  0.00    +0.006 C 
ATOM     35  C   UNL     1       7.598   2.554  25.547  0.00  0.00    -0.005 C 
ATOM     36  C   UNL     1       7.669   3.688  24.526  0.00  0.00    +0.004 C 
ATOM     37  C   UNL     1       6.533   3.636  23.524  0.00  0.00    +0.000 C 
ATOM     38  C   UNL     1       6.552   2.323  22.758  0.00  0.00    +0.000 C 
ATOM     39  C   UNL     1       6.497   1.105  23.668  0.00  0.00    +0.005 C 
ATOM     40  C   UNL     1       6.628   2.840  26.710  0.00  0.00    +0.032 C 
BRANCH  31  43
ATOM     41  N   UNL     1       4.093   3.909  26.063  0.00  0.00    -0.309 N 
ATOM     42  H   UNL     1       4.634   4.354  26.800  0.00  0.00    +0.149 HD
ATOM     43  C   UNL     1       4.220   2.540  26.029  0.00  0.00    +0.231 C 
ATOM     44  O   UNL     1       3.491   1.843  25.319  0.00  0.00    -0.274 OA
BRANCH  41  46
ATOM     45  C   UNL     1       1.625   4.152  25.919  0.00  0.00    +0.031 C 
ATOM     46  C   UNL     1       2.990   4.641  25.407  0.00  0.00    +0.026 C 
ATOM     47  C   UNL     1       3.119   6.136  25.746  0.00  0.00    +0.031 C 
ATOM     48  C   UNL     1       3.034   4.489  23.872  0.00  0.00    +0.031 C 
ENDBRANCH  41  46
ENDBRANCH  31  43
ENDBRANCH  30  32
ENDBRANCH  27  30
ENDBRANCH   1  27
BRANCH   1  49
ATOM     49  C   UNL     1       3.169  -3.658  27.722  0.00  0.00    +0.060 C 
BRANCH  49  50
ATOM     50  C   UNL     1       3.086  -5.000  28.408  0.00  0.00    -0.046 A 
ATOM     51  C   UNL     1       3.794  -5.232  29.592  0.00  0.00    +0.004 A 
ATOM     52  C   UNL     1       3.682  -6.456  30.243  0.00  0.00    +0.000 A 
ATOM     53  C   UNL     1       2.854  -7.456  29.743  0.00  0.00    +0.000 A 
ATOM     54  C   UNL     1       2.186  -7.253  28.540  0.00  0.00    +0.000 A 
ATOM     55  C   UNL     1       2.307  -6.034  27.870  0.00  0.00    +0.004 A 
ENDBRANCH  49  50
ENDBRANCH   1  49
TORSDOF 14
ENDMDL
MODEL 4
REMARK VINA RESULT:      -7.2      1.999      9.781
REMARK  Name = 
REMARK  17 active torsions:
REMARK  status: ('A' for Active; 'I' for Inactive)
REMARK    1  A    between atoms: C_1  and  C_2
REMARK    2  A    between atoms: C_2  and  C_3
REMARK    3  A    between atoms: C_2  and  C_4
REMARK    4  A    between atoms: C_2  and  N_5
REMARK    5  A    between atoms: C_6  and  C_8
REMARK    6  A    between atoms: N_20  and  C_21
REMARK    7  A    between atoms: C_21  and  C_22
REMARK    8  A    between atoms: C_22  and  C_24
REMARK    9  A    between atoms: C_22  and  O_55
REMARK   10  A    between atoms: C_24  and  C_26
REMARK   11  A    between atoms: C_24  and  N_33
REMARK   12  A    between atoms: C_26  and  C_27
REMARK   13  A    between atoms: C_34  and  C_36
REMARK   14  A    between atoms: C_36  and  C_38
REMARK   15  A    between atoms: C_36  and  N_42
REMARK   16  A    between atoms: C_38  and  C_39
REMARK   17  A    between atoms: C_43  and  C_45
REMARK                            x       y       z     vdW  Elec       q    Type
REMARK                         _______ _______ _______ _____ _____    ______ ____
ROOT
ATOM      1  C   UNL     1       6.423   0.133  26.292  0.00  0.00    +0.107 C 
ENDROOT
BRANCH   1   2
ATOM      2  N   UNL     1       6.975  -1.178  25.826  0.00  0.00    -0.308 N 
ATOM      3  H   UNL     1       6.327  -1.895  25.524  0.00  0.00    +0.149 HD
ATOM      4  C   UNL     1       8.252  -1.625  26.089  0.00  0.00    +0.234 C 
ATOM      5  O   UNL     1       9.075  -0.912  26.671  0.00  0.00    -0.274 OA
BRANCH   4   6
ATOM      6  C   UNL     1       8.692  -2.956  25.443  0.00  0.00    +0.168 C 
BRANCH   6   7
ATOM      7  N   UNL     1       7.636  -3.920  25.205  0.00  0.00    -0.298 N 
ATOM      8  H   UNL     1       6.998  -3.814  24.412  0.00  0.00    +0.150 HD
ATOM      9  C   UNL     1       7.340  -4.891  26.138  0.00  0.00    +0.263 C 
ATOM     10  O   UNL     1       7.959  -5.015  27.175  0.00  0.00    -0.269 OA
BRANCH   9  11
ATOM     11  C   UNL     1       6.144  -5.739  25.854  0.00  0.00    +0.126 A 
ATOM     12  C   UNL     1       5.534  -6.391  26.924  0.00  0.00    +0.033 A 
ATOM     13  C   UNL     1       4.254  -6.879  26.726  0.00  0.00    +0.012 A 
ATOM     14  C   UNL     1       3.615  -6.678  25.499  0.00  0.00    +0.000 A 
ATOM     15  C   UNL     1       4.376  -6.134  24.433  0.00  0.00    +0.072 A 
ATOM     16  C   UNL     1       3.758  -6.008  23.199  0.00  0.00    +0.028 A 
ATOM     17  C   UNL     1       2.392  -6.262  23.032  0.00  0.00    +0.002 A 
ATOM     18  C   UNL     1       1.630  -6.686  24.113  0.00  0.00    +0.001 A 
ATOM     19  C   UNL     1       2.249  -6.935  25.333  0.00  0.00    +0.010 A 
ATOM     20  N   UNL     1       5.624  -5.666  24.603  0.00  0.00    -0.242 NA
ENDBRANCH   9  11
ENDBRANCH   6   7
BRANCH   6  21
ATOM     21  C   UNL     1       9.551  -2.674  24.205  0.00  0.00    +0.127 C 
BRANCH  21  22
ATOM     22  C   UNL     1       8.782  -2.155  23.013  0.00  0.00    +0.213 C 
ATOM     23  N   UNL     1       9.554  -1.861  21.927  0.00  0.00    -0.329 N 
ATOM     24  H   UNL     1       9.102  -1.509  21.116  0.00  0.00    +0.145 HD
ATOM     25  H   UNL     1      10.561  -1.903  21.943  0.00  0.00    +0.145 HD
ATOM     26  O   UNL     1       7.561  -2.040  22.977  0.00  0.00    -0.276 OA
ENDBRANCH  21  22
ENDBRANCH   6  21
ENDBRANCH   4   6
ENDBRANCH   1   2
BRANCH   1  27
ATOM     27  C   UNL     1       5.444   0.734  25.223  0.00  0.00    +0.149 C 
BRANCH  27  28
ATOM     28  O   UNL     1       5.931   0.559  23.898  0.00  0.00    -0.389 OA
ATOM     29  H   UNL     1       6.747   0.033  23.917  0.00  0.00    +0.210 HD
ENDBRANCH  27  28
BRANCH  27  30
ATOM     30  C   UNL     1       5.110   2.261  25.375  0.00  0.00    +0.118 C 
BRANCH  30  32
ATOM     31  C   UNL     1       6.346   3.617  23.689  0.00  0.00    +0.143 C 
ATOM     32  N   UNL     1       6.226   3.244  25.142  0.00  0.00    -0.289 NA
ATOM     33  C   UNL     1       6.030   4.410  26.030  0.00  0.00    +0.089 C 
ATOM     34  C   UNL     1       6.912   5.612  25.697  0.00  0.00    +0.006 C 
ATOM     35  C   UNL     1       6.504   6.161  24.322  0.00  0.00    -0.005 C 
ATOM     36  C   UNL     1       7.545   7.107  23.726  0.00  0.00    +0.004 C 
ATOM     37  C   UNL     1       8.943   6.522  23.757  0.00  0.00    +0.000 C 
ATOM     38  C   UNL     1       9.364   6.212  25.185  0.00  0.00    +0.000 C 
ATOM     39  C   UNL     1       8.396   5.282  25.900  0.00  0.00    +0.005 C 
ATOM     40  C   UNL     1       6.019   5.085  23.332  0.00  0.00    +0.032 C 
BRANCH  31  43
ATOM     41  N   UNL     1       8.575   2.482  23.799  0.00  0.00    -0.309 N 
ATOM     42  H   UNL     1       8.340   2.452  24.788  0.00  0.00    +0.149 HD
ATOM     43  C   UNL     1       7.708   3.237  23.043  0.00  0.00    +0.231 C 
ATOM     44  O   UNL     1       7.958   3.522  21.869  0.00  0.00    -0.274 OA
BRANCH  41  46
ATOM     45  C   UNL     1      10.885   3.304  23.395  0.00  0.00    +0.031 C 
ATOM     46  C   UNL     1       9.929   2.099  23.347  0.00  0.00    +0.026 C 
ATOM     47  C   UNL     1      10.477   1.017  24.292  0.00  0.00    +0.031 C 
ATOM     48  C   UNL     1       9.914   1.527  21.914  0.00  0.00    +0.031 C 
ENDBRANCH  41  46
ENDBRANCH  31  43
ENDBRANCH  30  32
ENDBRANCH  27  30
ENDBRANCH   1  27
BRANCH   1  49
ATOM     49  C   UNL     1       5.661  -0.030  27.637  0.00  0.00    +0.060 C 
BRANCH  49  50
ATOM     50  C   UNL     1       4.508  -1.004  27.603  0.00  0.00    -0.046 A 
ATOM     51  C   UNL     1       3.190  -0.537  27.580  0.00  0.00    +0.004 A 
ATOM     52  C   UNL     1       2.132  -1.438  27.507  0.00  0.00    +0.000 A 
ATOM     53  C   UNL     1       2.366  -2.807  27.435  0.00  0.00    +0.000 A 
ATOM     54  C   UNL     1       3.671  -3.283  27.508  0.00  0.00    +0.000 A 
ATOM     55  C   UNL     1       4.738  -2.387  27.600  0.00  0.00    +0.004 A 
ENDBRANCH  49  50
ENDBRANCH   1  49
TORSDOF 14
ENDMDL
MODEL 5
REMARK VINA RESULT:      -7.1      2.222      9.729
REMARK  Name = 
REMARK  17 active torsions:
REMARK  status: ('A' for Active; 'I' for Inactive)
REMARK    1  A    between atoms: C_1  and  C_2
REMARK    2  A    between atoms: C_2  and  C_3
REMARK    3  A    between atoms: C_2  and  C_4
REMARK    4  A    between atoms: C_2  and  N_5
REMARK    5  A    between atoms: C_6  and  C_8
REMARK    6  A    between atoms: N_20  and  C_21
REMARK    7  A    between atoms: C_21  and  C_22
REMARK    8  A    between atoms: C_22  and  C_24
REMARK    9  A    between atoms: C_22  and  O_55
REMARK   10  A    between atoms: C_24  and  C_26
REMARK   11  A    between atoms: C_24  and  N_33
REMARK   12  A    between atoms: C_26  and  C_27
REMARK   13  A    between atoms: C_34  and  C_36
REMARK   14  A    between atoms: C_36  and  C_38
REMARK   15  A    between atoms: C_36  and  N_42
REMARK   16  A    between atoms: C_38  and  C_39
REMARK   17  A    between atoms: C_43  and  C_45
REMARK                            x       y       z     vdW  Elec       q    Type
REMARK                         _______ _______ _______ _____ _____    ______ ____
ROOT
ATOM      1  C   UNL     1       6.341   0.252  26.369  0.00  0.00    +0.107 C 
ENDROOT
BRANCH   1   2
ATOM      2  N   UNL     1       6.854  -1.118  26.051  0.00  0.00    -0.308 N 
ATOM      3  H   UNL     1       6.187  -1.835  25.789  0.00  0.00    +0.149 HD
ATOM      4  C   UNL     1       8.099  -1.589  26.408  0.00  0.00    +0.234 C 
ATOM      5  O   UNL     1       8.929  -0.857  26.956  0.00  0.00    -0.274 OA
BRANCH   4   6
ATOM      6  C   UNL     1       8.505  -2.991  25.908  0.00  0.00    +0.168 C 
BRANCH   6   7
ATOM      7  N   UNL     1       7.412  -3.892  25.601  0.00  0.00    -0.298 N 
ATOM      8  H   UNL     1       6.719  -3.652  24.888  0.00  0.00    +0.150 HD
ATOM      9  C   UNL     1       7.165  -4.999  26.385  0.00  0.00    +0.263 C 
ATOM     10  O   UNL     1       7.857  -5.296  27.337  0.00  0.00    -0.269 OA
BRANCH   9  11
ATOM     11  C   UNL     1       5.931  -5.776  26.063  0.00  0.00    +0.126 A 
ATOM     12  C   UNL     1       5.215  -6.337  27.119  0.00  0.00    +0.033 A 
ATOM     13  C   UNL     1       3.918  -6.746  26.862  0.00  0.00    +0.012 A 
ATOM     14  C   UNL     1       3.368  -6.558  25.591  0.00  0.00    +0.000 A 
ATOM     15  C   UNL     1       4.227  -6.114  24.553  0.00  0.00    +0.072 A 
ATOM     16  C   UNL     1       3.692  -6.003  23.278  0.00  0.00    +0.028 A 
ATOM     17  C   UNL     1       2.325  -6.172  23.039  0.00  0.00    +0.002 A 
ATOM     18  C   UNL     1       1.472  -6.494  24.087  0.00  0.00    +0.001 A 
ATOM     19  C   UNL     1       1.999  -6.730  25.352  0.00  0.00    +0.010 A 
ATOM     20  N   UNL     1       5.492  -5.724  24.780  0.00  0.00    -0.242 NA
ENDBRANCH   9  11
ENDBRANCH   6   7
BRANCH   6  21
ATOM     21  C   UNL     1       9.528  -2.862  24.773  0.00  0.00    +0.127 C 
BRANCH  21  22
ATOM     22  C   UNL     1       8.987  -2.229  23.512  0.00  0.00    +0.213 C 
ATOM     23  N   UNL     1       9.932  -1.958  22.567  0.00  0.00    -0.329 N 
ATOM     24  H   UNL     1       9.634  -1.535  21.719  0.00  0.00    +0.145 HD
ATOM     25  H   UNL     1      10.919  -2.087  22.725  0.00  0.00    +0.145 HD
ATOM     26  O   UNL     1       7.797  -2.009  23.307  0.00  0.00    -0.276 OA
ENDBRANCH  21  22
ENDBRANCH   6  21
ENDBRANCH   4   6
ENDBRANCH   1   2
BRANCH   1  27
ATOM     27  C   UNL     1       5.367   0.753  25.246  0.00  0.00    +0.149 C 
BRANCH  27  28
ATOM     28  O   UNL     1       5.867   0.472  23.943  0.00  0.00    -0.389 OA
ATOM     29  H   UNL     1       5.377  -0.272  23.560  0.00  0.00    +0.210 HD
ENDBRANCH  27  28
BRANCH  27  30
ATOM     30  C   UNL     1       5.020   2.285  25.267  0.00  0.00    +0.118 C 
BRANCH  30  32
ATOM     31  C   UNL     1       6.343   3.629  23.637  0.00  0.00    +0.143 C 
ATOM     32  N   UNL     1       6.155   3.257  25.083  0.00  0.00    -0.289 NA
ATOM     33  C   UNL     1       5.931   4.425  25.962  0.00  0.00    +0.089 C 
ATOM     34  C   UNL     1       6.838   5.619  25.668  0.00  0.00    +0.006 C 
ATOM     35  C   UNL     1       6.497   6.172  24.276  0.00  0.00    -0.005 C 
ATOM     36  C   UNL     1       7.571   7.107  23.726  0.00  0.00    +0.004 C 
ATOM     37  C   UNL     1       8.961   6.509  23.819  0.00  0.00    +0.000 C 
ATOM     38  C   UNL     1       9.316   6.196  25.264  0.00  0.00    +0.000 C 
ATOM     39  C   UNL     1       8.309   5.275  25.936  0.00  0.00    +0.005 C 
ATOM     40  C   UNL     1       6.045   5.100  23.265  0.00  0.00    +0.032 C 
BRANCH  31  43
ATOM     41  N   UNL     1       8.543   2.451  23.834  0.00  0.00    -0.309 N 
ATOM     42  H   UNL     1       8.258   2.406  24.809  0.00  0.00    +0.149 HD
ATOM     43  C   UNL     1       7.728   3.236  23.051  0.00  0.00    +0.231 C 
ATOM     44  O   UNL     1       8.041   3.538  21.897  0.00  0.00    -0.274 OA
BRANCH  41  46
ATOM     45  C   UNL     1       9.917   1.426  22.036  0.00  0.00    +0.031 C 
ATOM     46  C   UNL     1       9.910   2.051  23.442  0.00  0.00    +0.026 C 
ATOM     47  C   UNL     1      10.802   3.304  23.411  0.00  0.00    +0.031 C 
ATOM     48  C   UNL     1      10.522   1.047  24.441  0.00  0.00    +0.031 C 
ENDBRANCH  41  46
ENDBRANCH  31  43
ENDBRANCH  30  32
ENDBRANCH  27  30
ENDBRANCH   1  27
BRANCH   1  49
ATOM     49  C   UNL     1       5.589   0.263  27.729  0.00  0.00    +0.060 C 
BRANCH  49  50
ATOM     50  C   UNL     1       6.026   1.341  28.691  0.00  0.00    -0.046 A 
ATOM     51  C   UNL     1       7.267   1.256  29.330  0.00  0.00    +0.004 A 
ATOM     52  C   UNL     1       7.682   2.273  30.184  0.00  0.00    +0.000 A 
ATOM     53  C   UNL     1       6.886   3.393  30.399  0.00  0.00    +0.000 A 
ATOM     54  C   UNL     1       5.629   3.463  29.807  0.00  0.00    +0.000 A 
ATOM     55  C   UNL     1       5.196   2.437  28.963  0.00  0.00    +0.004 A 
ENDBRANCH  49  50
ENDBRANCH   1  49
TORSDOF 14
ENDMDL
MODEL 6
REMARK VINA RESULT:      -7.1      1.495      2.880
REMARK  Name = 
REMARK  17 active torsions:
REMARK  status: ('A' for Active; 'I' for Inactive)
REMARK    1  A    between atoms: C_1  and  C_2
REMARK    2  A    between atoms: C_2  and  C_3
REMARK    3  A    between atoms: C_2  and  C_4
REMARK    4  A    between atoms: C_2  and  N_5
REMARK    5  A    between atoms: C_6  and  C_8
REMARK    6  A    between atoms: N_20  and  C_21
REMARK    7  A    between atoms: C_21  and  C_22
REMARK    8  A    between atoms: C_22  and  C_24
REMARK    9  A    between atoms: C_22  and  O_55
REMARK   10  A    between atoms: C_24  and  C_26
REMARK   11  A    between atoms: C_24  and  N_33
REMARK   12  A    between atoms: C_26  and  C_27
REMARK   13  A    between atoms: C_34  and  C_36
REMARK   14  A    between atoms: C_36  and  C_38
REMARK   15  A    between atoms: C_36  and  N_42
REMARK   16  A    between atoms: C_38  and  C_39
REMARK   17  A    between atoms: C_43  and  C_45
REMARK                            x       y       z     vdW  Elec       q    Type
REMARK                         _______ _______ _______ _____ _____    ______ ____
ROOT
ATOM      1  C   UNL     1       8.750  -2.223  24.204  0.00  0.00    +0.107 C 
ENDROOT
BRANCH   1   2
ATOM      2  N   UNL     1       8.092  -1.068  24.892  0.00  0.00    -0.308 N 
ATOM      3  H   UNL     1       7.730  -0.311  24.325  0.00  0.00    +0.149 HD
ATOM      4  C   UNL     1       8.234  -0.772  26.231  0.00  0.00    +0.234 C 
ATOM      5  O   UNL     1       8.864  -1.515  26.989  0.00  0.00    -0.274 OA
BRANCH   4   6
ATOM      6  C   UNL     1       7.400   0.396  26.799  0.00  0.00    +0.168 C 
BRANCH   6   7
ATOM      7  N   UNL     1       7.405   1.613  26.013  0.00  0.00    -0.298 N 
ATOM      8  H   UNL     1       7.672   1.600  25.026  0.00  0.00    +0.150 HD
ATOM      9  C   UNL     1       7.238   2.844  26.613  0.00  0.00    +0.263 C 
ATOM     10  O   UNL     1       7.046   2.973  27.805  0.00  0.00    -0.269 OA
BRANCH   9  11
ATOM     11  C   UNL     1       7.402   4.038  25.731  0.00  0.00    +0.126 A 
ATOM     12  C   UNL     1       8.687   4.361  25.297  0.00  0.00    +0.033 A 
ATOM     13  C   UNL     1       8.796   5.231  24.226  0.00  0.00    +0.012 A 
ATOM     14  C   UNL     1       7.644   5.720  23.605  0.00  0.00    +0.000 A 
ATOM     15  C   UNL     1       6.392   5.446  24.214  0.00  0.00    +0.072 A 
ATOM     16  C   UNL     1       5.260   5.998  23.636  0.00  0.00    +0.028 A 
ATOM     17  C   UNL     1       5.316   6.675  22.413  0.00  0.00    +0.002 A 
ATOM     18  C   UNL     1       6.534   6.838  21.767  0.00  0.00    +0.001 A 
ATOM     19  C   UNL     1       7.701   6.399  22.383  0.00  0.00    +0.010 A 
ATOM     20  N   UNL     1       6.266   4.614  25.262  0.00  0.00    -0.242 NA
ENDBRANCH   9  11
ENDBRANCH   6   7
BRANCH   6  21
ATOM     21  C   UNL     1       5.992  -0.095  27.155  0.00  0.00    +0.127 C 
BRANCH  21  22
ATOM     22  C   UNL     1       5.039  -0.168  25.985  0.00  0.00    +0.213 C 
ATOM     23  N   UNL     1       4.744  -1.435  25.575  0.00  0.00    -0.329 N 
ATOM     24  H   UNL     1       4.127  -1.543  24.805  0.00  0.00    +0.145 HD
ATOM     25  H   UNL     1       5.188  -2.254  25.962  0.00  0.00    +0.145 HD
ATOM     26  O   UNL     1       4.521   0.810  25.456  0.00  0.00    -0.276 OA
ENDBRANCH  21  22
ENDBRANCH   6  21
ENDBRANCH   4   6
ENDBRANCH   1   2
BRANCH   1  27
ATOM     27  C   UNL     1       7.692  -3.319  23.828  0.00  0.00    +0.149 C 
BRANCH  27  28
ATOM     28  O   UNL     1       6.395  -2.765  23.640  0.00  0.00    -0.389 OA
ATOM     29  H   UNL     1       6.310  -1.950  24.161  0.00  0.00    +0.210 HD
ENDBRANCH  27  28
BRANCH  27  30
ATOM     30  C   UNL     1       7.525  -4.498  24.854  0.00  0.00    +0.118 C 
BRANCH  30  32
ATOM     31  C   UNL     1       5.349  -5.572  25.420  0.00  0.00    +0.143 C 
ATOM     32  N   UNL     1       6.319  -4.471  25.754  0.00  0.00    -0.289 NA
ATOM     33  C   UNL     1       6.772  -4.500  27.162  0.00  0.00    +0.089 C 
ATOM     34  C   UNL     1       5.664  -4.774  28.176  0.00  0.00    +0.006 C 
ATOM     35  C   UNL     1       5.136  -6.200  27.962  0.00  0.00    -0.005 C 
ATOM     36  C   UNL     1       3.795  -6.449  28.651  0.00  0.00    +0.004 C 
ATOM     37  C   UNL     1       2.777  -5.370  28.340  0.00  0.00    +0.000 C 
ATOM     38  C   UNL     1       3.282  -4.008  28.791  0.00  0.00    +0.000 C 
ATOM     39  C   UNL     1       4.627  -3.644  28.181  0.00  0.00    +0.005 C 
ATOM     40  C   UNL     1       5.164  -6.669  26.494  0.00  0.00    +0.032 C 
BRANCH  31  43
ATOM     41  N   UNL     1       2.905  -5.967  25.042  0.00  0.00    -0.309 N 
ATOM     42  H   UNL     1       3.200  -6.934  25.156  0.00  0.00    +0.149 HD
ATOM     43  C   UNL     1       3.948  -5.072  24.969  0.00  0.00    +0.231 C 
ATOM     44  O   UNL     1       3.764  -3.895  24.650  0.00  0.00    -0.274 OA
BRANCH  41  46
ATOM     45  C   UNL     1       1.012  -4.373  25.253  0.00  0.00    +0.031 C 
ATOM     46  C   UNL     1       1.534  -5.659  24.589  0.00  0.00    +0.026 C 
ATOM     47  C   UNL     1       1.554  -5.436  23.067  0.00  0.00    +0.031 C 
ATOM     48  C   UNL     1       0.556  -6.814  24.894  0.00  0.00    +0.031 C 
ENDBRANCH  41  46
ENDBRANCH  31  43
ENDBRANCH  30  32
ENDBRANCH  27  30
ENDBRANCH   1  27
BRANCH   1  49
ATOM     49  C   UNL     1       9.476  -1.761  22.911  0.00  0.00    +0.060 C 
BRANCH  49  50
ATOM     50  C   UNL     1       9.860  -0.301  22.881  0.00  0.00    -0.046 A 
ATOM     51  C   UNL     1       9.393   0.531  21.859  0.00  0.00    +0.004 A 
ATOM     52  C   UNL     1       9.716   1.884  21.860  0.00  0.00    +0.000 A 
ATOM     53  C   UNL     1      10.486   2.432  22.880  0.00  0.00    +0.000 A 
ATOM     54  C   UNL     1      10.997   1.604  23.872  0.00  0.00    +0.000 A 
ATOM     55  C   UNL     1      10.693   0.240  23.870  0.00  0.00    +0.004 A 
ENDBRANCH  49  50
ENDBRANCH   1  49
TORSDOF 14
ENDMDL
MODEL 7
REMARK VINA RESULT:      -7.0      2.244      7.187
REMARK  Name = 
REMARK  17 active torsions:
REMARK  status: ('A' for Active; 'I' for Inactive)
REMARK    1  A    between atoms: C_1  and  C_2
REMARK    2  A    between atoms: C_2  and  C_3
REMARK    3  A    between atoms: C_2  and  C_4
REMARK    4  A    between atoms: C_2  and  N_5
REMARK    5  A    between atoms: C_6  and  C_8
REMARK    6  A    between atoms: N_20  and  C_21
REMARK    7  A    between atoms: C_21  and  C_22
REMARK    8  A    between atoms: C_22  and  C_24
REMARK    9  A    between atoms: C_22  and  O_55
REMARK   10  A    between atoms: C_24  and  C_26
REMARK   11  A    between atoms: C_24  and  N_33
REMARK   12  A    between atoms: C_26  and  C_27
REMARK   13  A    between atoms: C_34  and  C_36
REMARK   14  A    between atoms: C_36  and  C_38
REMARK   15  A    between atoms: C_36  and  N_42
REMARK   16  A    between atoms: C_38  and  C_39
REMARK   17  A    between atoms: C_43  and  C_45
REMARK                            x       y       z     vdW  Elec       q    Type
REMARK                         _______ _______ _______ _____ _____    ______ ____
ROOT
ATOM      1  C   UNL     1       4.915  -4.080  25.333  0.00  0.00    +0.107 C 
ENDROOT
BRANCH   1   2
ATOM      2  N   UNL     1       6.246  -3.454  25.053  0.00  0.00    -0.308 N 
ATOM      3  H   UNL     1       6.357  -2.461  25.221  0.00  0.00    +0.149 HD
ATOM      4  C   UNL     1       7.227  -4.023  24.270  0.00  0.00    +0.234 C 
ATOM      5  O   UNL     1       7.100  -5.160  23.806  0.00  0.00    -0.274 OA
BRANCH   4   6
ATOM      6  C   UNL     1       8.581  -3.288  24.171  0.00  0.00    +0.168 C 
BRANCH   6   7
ATOM      7  N   UNL     1       8.510  -1.882  23.826  0.00  0.00    -0.298 N 
ATOM      8  H   UNL     1       7.664  -1.337  24.013  0.00  0.00    +0.150 HD
ATOM      9  C   UNL     1       9.498  -1.288  23.069  0.00  0.00    +0.263 C 
ATOM     10  O   UNL     1      10.481  -1.888  22.686  0.00  0.00    -0.269 OA
BRANCH   9  11
ATOM     11  C   UNL     1       9.253   0.126  22.653  0.00  0.00    +0.126 A 
ATOM     12  C   UNL     1       8.124   0.396  21.883  0.00  0.00    +0.033 A 
ATOM     13  C   UNL     1       7.715   1.716  21.795  0.00  0.00    +0.012 A 
ATOM     14  C   UNL     1       8.409   2.708  22.494  0.00  0.00    +0.000 A 
ATOM     15  C   UNL     1       9.626   2.348  23.127  0.00  0.00    +0.072 A 
ATOM     16  C   UNL     1      10.349   3.352  23.752  0.00  0.00    +0.028 A 
ATOM     17  C   UNL     1       9.837   4.646  23.892  0.00  0.00    +0.002 A 
ATOM     18  C   UNL     1       8.590   4.958  23.367  0.00  0.00    +0.001 A 
ATOM     19  C   UNL     1       7.897   4.003  22.631  0.00  0.00    +0.010 A 
ATOM     20  N   UNL     1      10.047   1.074  23.212  0.00  0.00    -0.242 NA
ENDBRANCH   9  11
ENDBRANCH   6   7
BRANCH   6  21
ATOM     21  C   UNL     1       9.417  -3.567  25.426  0.00  0.00    +0.127 C 
BRANCH  21  22
ATOM     22  C   UNL     1       9.088  -4.867  26.121  0.00  0.00    +0.213 C 
ATOM     23  N   UNL     1       9.730  -5.957  25.613  0.00  0.00    -0.329 N 
ATOM     24  H   UNL     1       9.547  -6.841  26.027  0.00  0.00    +0.145 HD
ATOM     25  H   UNL     1      10.309  -5.917  24.788  0.00  0.00    +0.145 HD
ATOM     26  O   UNL     1       8.346  -4.960  27.094  0.00  0.00    -0.276 OA
ENDBRANCH  21  22
ENDBRANCH   6  21
ENDBRANCH   4   6
ENDBRANCH   1   2
BRANCH   1  27
ATOM     27  C   UNL     1       4.106  -3.222  26.368  0.00  0.00    +0.149 C 
BRANCH  27  28
ATOM     28  O   UNL     1       3.314  -2.227  25.731  0.00  0.00    -0.389 OA
ATOM     29  H   UNL     1       3.670  -1.348  25.933  0.00  0.00    +0.210 HD
ENDBRANCH  27  28
BRANCH  27  30
ATOM     30  C   UNL     1       4.956  -2.480  27.462  0.00  0.00    +0.118 C 
BRANCH  30  32
ATOM     31  C   UNL     1       4.710  -0.060  28.008  0.00  0.00    +0.143 C 
ATOM     32  N   UNL     1       5.415  -1.080  27.154  0.00  0.00    -0.289 NA
ATOM     33  C   UNL     1       6.887  -1.022  27.272  0.00  0.00    +0.089 C 
ATOM     34  C   UNL     1       7.466   0.392  27.277  0.00  0.00    +0.006 C 
ATOM     35  C   UNL     1       6.996   1.115  28.548  0.00  0.00    -0.005 C 
ATOM     36  C   UNL     1       7.193   2.628  28.480  0.00  0.00    +0.004 C 
ATOM     37  C   UNL     1       6.641   3.226  27.201  0.00  0.00    +0.000 C 
ATOM     38  C   UNL     1       7.322   2.616  25.985  0.00  0.00    +0.000 C 
ATOM     39  C   UNL     1       7.208   1.100  25.941  0.00  0.00    +0.005 C 
ATOM     40  C   UNL     1       5.589   0.703  29.025  0.00  0.00    +0.032 C 
BRANCH  31  43
ATOM     41  N   UNL     1       3.335   2.030  27.905  0.00  0.00    -0.309 N 
ATOM     42  H   UNL     1       3.352   1.908  28.915  0.00  0.00    +0.149 HD
ATOM     43  C   UNL     1       3.862   0.967  27.207  0.00  0.00    +0.231 C 
ATOM     44  O   UNL     1       3.748   0.881  25.982  0.00  0.00    -0.274 OA
BRANCH  41  46
ATOM     45  C   UNL     1       1.199   2.401  26.693  0.00  0.00    +0.031 C 
ATOM     46  C   UNL     1       2.458   3.049  27.295  0.00  0.00    +0.026 C 
ATOM     47  C   UNL     1       2.010   4.033  28.389  0.00  0.00    +0.031 C 
ATOM     48  C   UNL     1       3.186   3.850  26.195  0.00  0.00    +0.031 C 
ENDBRANCH  41  46
ENDBRANCH  31  43
ENDBRANCH  30  32
ENDBRANCH  27  30
ENDBRANCH   1  27
BRANCH   1  49
ATOM     49  C   UNL     1       4.079  -4.217  24.031  0.00  0.00    +0.060 C 
BRANCH  49  50
ATOM     50  C   UNL     1       3.346  -5.528  23.877  0.00  0.00    -0.046 A 
ATOM     51  C   UNL     1       3.736  -6.645  24.621  0.00  0.00    +0.004 A 
ATOM     52  C   UNL     1       3.032  -7.840  24.505  0.00  0.00    +0.000 A 
ATOM     53  C   UNL     1       1.924  -7.936  23.671  0.00  0.00    +0.000 A 
ATOM     54  C   UNL     1       1.559  -6.845  22.889  0.00  0.00    +0.000 A 
ATOM     55  C   UNL     1       2.272  -5.648  22.985  0.00  0.00    +0.004 A 
ENDBRANCH  49  50
ENDBRANCH   1  49
TORSDOF 14
ENDMDL
MODEL 8
REMARK VINA RESULT:      -6.9      1.658      2.260
REMARK  Name = 
REMARK  17 active torsions:
REMARK  status: ('A' for Active; 'I' for Inactive)
REMARK    1  A    between atoms: C_1  and  C_2
REMARK    2  A    between atoms: C_2  and  C_3
REMARK    3  A    between atoms: C_2  and  C_4
REMARK    4  A    between atoms: C_2  and  N_5
REMARK    5  A    between atoms: C_6  and  C_8
REMARK    6  A    between atoms: N_20  and  C_21
REMARK    7  A    between atoms: C_21  and  C_22
REMARK    8  A    between atoms: C_22  and  C_24
REMARK    9  A    between atoms: C_22  and  O_55
REMARK   10  A    between atoms: C_24  and  C_26
REMARK   11  A    between atoms: C_24  and  N_33
REMARK   12  A    between atoms: C_26  and  C_27
REMARK   13  A    between atoms: C_34  and  C_36
REMARK   14  A    between atoms: C_36  and  C_38
REMARK   15  A    between atoms: C_36  and  N_42
REMARK   16  A    between atoms: C_38  and  C_39
REMARK   17  A    between atoms: C_43  and  C_45
REMARK                            x       y       z     vdW  Elec       q    Type
REMARK                         _______ _______ _______ _____ _____    ______ ____
ROOT
ATOM      1  C   UNL     1       9.214  -3.029  25.270  0.00  0.00    +0.107 C 
ENDROOT
BRANCH   1   2
ATOM      2  N   UNL     1       8.146  -1.982  25.332  0.00  0.00    -0.308 N 
ATOM      3  H   UNL     1       7.604  -1.796  24.497  0.00  0.00    +0.149 HD
ATOM      4  C   UNL     1       8.058  -1.013  26.308  0.00  0.00    +0.234 C 
ATOM      5  O   UNL     1       8.830  -1.000  27.271  0.00  0.00    -0.274 OA
BRANCH   4   6
ATOM      6  C   UNL     1       6.832  -0.076  26.278  0.00  0.00    +0.168 C 
BRANCH   6   7
ATOM      7  N   UNL     1       7.104   1.306  25.936  0.00  0.00    -0.298 N 
ATOM      8  H   UNL     1       7.622   1.545  25.087  0.00  0.00    +0.150 HD
ATOM      9  C   UNL     1       6.843   2.322  26.832  0.00  0.00    +0.263 C 
ATOM     10  O   UNL     1       6.347   2.124  27.922  0.00  0.00    -0.269 OA
BRANCH   9  11
ATOM     11  C   UNL     1       7.292   3.689  26.432  0.00  0.00    +0.126 A 
ATOM     12  C   UNL     1       7.014   4.748  27.294  0.00  0.00    +0.033 A 
ATOM     13  C   UNL     1       7.716   5.925  27.101  0.00  0.00    +0.012 A 
ATOM     14  C   UNL     1       8.684   6.002  26.096  0.00  0.00    +0.000 A 
ATOM     15  C   UNL     1       8.785   4.920  25.185  0.00  0.00    +0.072 A 
ATOM     16  C   UNL     1       9.694   5.036  24.145  0.00  0.00    +0.028 A 
ATOM     17  C   UNL     1      10.592   6.107  24.071  0.00  0.00    +0.002 A 
ATOM     18  C   UNL     1      10.560   7.105  25.036  0.00  0.00    +0.001 A 
ATOM     19  C   UNL     1       9.580   7.075  26.022  0.00  0.00    +0.010 A 
ATOM     20  N   UNL     1       8.102   3.774  25.347  0.00  0.00    -0.242 NA
ENDBRANCH   9  11
ENDBRANCH   6   7
BRANCH   6  21
ATOM     21  C   UNL     1       5.717  -0.706  25.435  0.00  0.00    +0.127 C 
BRANCH  21  22
ATOM     22  C   UNL     1       6.008  -0.763  23.954  0.00  0.00    +0.213 C 
ATOM     23  N   UNL     1       6.167   0.456  23.362  0.00  0.00    -0.329 N 
ATOM     24  H   UNL     1       6.353   0.479  22.387  0.00  0.00    +0.145 HD
ATOM     25  H   UNL     1       6.019   1.326  23.851  0.00  0.00    +0.145 HD
ATOM     26  O   UNL     1       6.142  -1.803  23.317  0.00  0.00    -0.276 OA
ENDBRANCH  21  22
ENDBRANCH   6  21
ENDBRANCH   4   6
ENDBRANCH   1   2
BRANCH   1  27
ATOM     27  C   UNL     1       8.590  -4.464  25.379  0.00  0.00    +0.149 C 
BRANCH  27  28
ATOM     28  O   UNL     1       9.588  -5.474  25.475  0.00  0.00    -0.389 OA
ATOM     29  H   UNL     1       9.177  -6.317  25.722  0.00  0.00    +0.210 HD
ENDBRANCH  27  28
BRANCH  27  30
ATOM     30  C   UNL     1       7.638  -4.893  24.205  0.00  0.00    +0.118 C 
BRANCH  30  32
ATOM     31  C   UNL     1       5.628  -4.693  25.666  0.00  0.00    +0.143 C 
ATOM     32  N   UNL     1       6.300  -5.479  24.573  0.00  0.00    -0.289 NA
ATOM     33  C   UNL     1       5.478  -5.599  23.350  0.00  0.00    +0.089 C 
ATOM     34  C   UNL     1       4.002  -5.898  23.608  0.00  0.00    +0.006 C 
ATOM     35  C   UNL     1       3.370  -4.696  24.325  0.00  0.00    -0.005 C 
ATOM     36  C   UNL     1       2.021  -5.025  24.963  0.00  0.00    +0.004 C 
ATOM     37  C   UNL     1       2.073  -6.280  25.810  0.00  0.00    +0.000 C 
ATOM     38  C   UNL     1       2.492  -7.478  24.972  0.00  0.00    +0.000 C 
ATOM     39  C   UNL     1       3.824  -7.271  24.268  0.00  0.00    +0.005 C 
ATOM     40  C   UNL     1       4.329  -3.952  25.275  0.00  0.00    +0.032 C 
BRANCH  31  43
ATOM     41  N   UNL     1       4.502  -4.959  27.887  0.00  0.00    -0.309 N 
ATOM     42  H   UNL     1       4.302  -3.974  27.731  0.00  0.00    +0.149 HD
ATOM     43  C   UNL     1       5.371  -5.502  26.968  0.00  0.00    +0.231 C 
ATOM     44  O   UNL     1       5.853  -6.626  27.125  0.00  0.00    -0.274 OA
BRANCH  41  46
ATOM     45  C   UNL     1       5.490  -5.715  30.037  0.00  0.00    +0.031 C 
ATOM     46  C   UNL     1       4.209  -5.578  29.196  0.00  0.00    +0.026 C 
ATOM     47  C   UNL     1       3.230  -4.672  29.962  0.00  0.00    +0.031 C 
ATOM     48  C   UNL     1       3.559  -6.968  29.040  0.00  0.00    +0.031 C 
ENDBRANCH  41  46
ENDBRANCH  31  43
ENDBRANCH  30  32
ENDBRANCH  27  30
ENDBRANCH   1  27
BRANCH   1  49
ATOM     49  C   UNL     1      10.016  -2.930  23.942  0.00  0.00    +0.060 C 
BRANCH  49  50
ATOM     50  C   UNL     1       9.940  -1.591  23.250  0.00  0.00    -0.046 A 
ATOM     51  C   UNL     1      10.479  -0.451  23.856  0.00  0.00    +0.004 A 
ATOM     52  C   UNL     1      10.443   0.773  23.196  0.00  0.00    +0.000 A 
ATOM     53  C   UNL     1       9.894   0.880  21.923  0.00  0.00    +0.000 A 
ATOM     54  C   UNL     1       9.311  -0.237  21.333  0.00  0.00    +0.000 A 
ATOM     55  C   UNL     1       9.326  -1.465  21.997  0.00  0.00    +0.004 A 
ENDBRANCH  49  50
ENDBRANCH   1  49
TORSDOF 14
ENDMDL
MODEL 9
REMARK VINA RESULT:      -6.9      2.217      7.385
REMARK  Name = 
REMARK  17 active torsions:
REMARK  status: ('A' for Active; 'I' for Inactive)
REMARK    1  A    between atoms: C_1  and  C_2
REMARK    2  A    between atoms: C_2  and  C_3
REMARK    3  A    between atoms: C_2  and  C_4
REMARK    4  A    between atoms: C_2  and  N_5
REMARK    5  A    between atoms: C_6  and  C_8
REMARK    6  A    between atoms: N_20  and  C_21
REMARK    7  A    between atoms: C_21  and  C_22
REMARK    8  A    between atoms: C_22  and  C_24
REMARK    9  A    between atoms: C_22  and  O_55
REMARK   10  A    between atoms: C_24  and  C_26
REMARK   11  A    between atoms: C_24  and  N_33
REMARK   12  A    between atoms: C_26  and  C_27
REMARK   13  A    between atoms: C_34  and  C_36
REMARK   14  A    between atoms: C_36  and  C_38
REMARK   15  A    between atoms: C_36  and  N_42
REMARK   16  A    between atoms: C_38  and  C_39
REMARK   17  A    between atoms: C_43  and  C_45
REMARK                            x       y       z     vdW  Elec       q    Type
REMARK                         _______ _______ _______ _____ _____    ______ ____
ROOT
ATOM      1  C   UNL     1       5.633  -2.942  27.080  0.00  0.00    +0.107 C 
ENDROOT
BRANCH   1   2
ATOM      2  N   UNL     1       6.480  -2.934  25.846  0.00  0.00    -0.308 N 
ATOM      3  H   UNL     1       6.135  -3.410  25.021  0.00  0.00    +0.149 HD
ATOM      4  C   UNL     1       7.826  -2.639  25.825  0.00  0.00    +0.234 C 
ATOM      5  O   UNL     1       8.418  -2.266  26.842  0.00  0.00    -0.274 OA
BRANCH   4   6
ATOM      6  C   UNL     1       8.524  -2.575  24.449  0.00  0.00    +0.168 C 
BRANCH   6   7
ATOM      7  N   UNL     1       8.701  -1.248  23.894  0.00  0.00    -0.298 N 
ATOM      8  H   UNL     1       9.530  -0.692  24.118  0.00  0.00    +0.150 HD
ATOM      9  C   UNL     1       7.679  -0.625  23.208  0.00  0.00    +0.263 C 
ATOM     10  O   UNL     1       6.607  -1.156  23.005  0.00  0.00    -0.269 OA
BRANCH   9  11
ATOM     11  C   UNL     1       7.921   0.792  22.804  0.00  0.00    +0.126 A 
ATOM     12  C   UNL     1       6.852   1.515  22.277  0.00  0.00    +0.033 A 
ATOM     13  C   UNL     1       6.978   2.892  22.231  0.00  0.00    +0.012 A 
ATOM     14  C   UNL     1       8.130   3.504  22.734  0.00  0.00    +0.000 A 
ATOM     15  C   UNL     1       9.214   2.671  23.111  0.00  0.00    +0.072 A 
ATOM     16  C   UNL     1      10.381   3.287  23.536  0.00  0.00    +0.028 A 
ATOM     17  C   UNL     1      10.451   4.670  23.735  0.00  0.00    +0.002 A 
ATOM     18  C   UNL     1       9.343   5.465  23.470  0.00  0.00    +0.001 A 
ATOM     19  C   UNL     1       8.199   4.888  22.929  0.00  0.00    +0.010 A 
ATOM     20  N   UNL     1       9.117   1.332  23.151  0.00  0.00    -0.242 NA
ENDBRANCH   9  11
ENDBRANCH   6   7
BRANCH   6  21
ATOM     21  C   UNL     1       9.816  -3.401  24.483  0.00  0.00    +0.127 C 
BRANCH  21  22
ATOM     22  C   UNL     1       9.616  -4.863  24.806  0.00  0.00    +0.213 C 
ATOM     23  N   UNL     1      10.194  -5.267  25.974  0.00  0.00    -0.329 N 
ATOM     24  H   UNL     1      10.101  -6.221  26.234  0.00  0.00    +0.145 HD
ATOM     25  H   UNL     1      10.778  -4.665  26.534  0.00  0.00    +0.145 HD
ATOM     26  O   UNL     1       8.956  -5.637  24.120  0.00  0.00    -0.276 OA
ENDBRANCH  21  22
ENDBRANCH   6  21
ENDBRANCH   4   6
ENDBRANCH   1   2
BRANCH   1  27
ATOM     27  C   UNL     1       4.876  -1.577  27.241  0.00  0.00    +0.149 C 
BRANCH  27  28
ATOM     28  O   UNL     1       3.516  -1.763  27.617  0.00  0.00    -0.389 OA
ATOM     29  H   UNL     1       3.150  -0.926  27.941  0.00  0.00    +0.210 HD
ENDBRANCH  27  28
BRANCH  27  30
ATOM     30  C   UNL     1       4.862  -0.643  25.977  0.00  0.00    +0.118 C 
BRANCH  30  32
ATOM     31  C   UNL     1       4.366   1.604  26.934  0.00  0.00    +0.143 C 
ATOM     32  N   UNL     1       5.347   0.771  26.153  0.00  0.00    -0.289 NA
ATOM     33  C   UNL     1       6.697   0.744  26.754  0.00  0.00    +0.089 C 
ATOM     34  C   UNL     1       7.191   2.098  27.260  0.00  0.00    +0.006 C 
ATOM     35  C   UNL     1       6.306   2.541  28.435  0.00  0.00    -0.005 C 
ATOM     36  C   UNL     1       6.461   4.023  28.771  0.00  0.00    +0.004 C 
ATOM     37  C   UNL     1       6.336   4.909  27.547  0.00  0.00    +0.000 C 
ATOM     38  C   UNL     1       7.398   4.556  26.517  0.00  0.00    +0.000 C 
ATOM     39  C   UNL     1       7.359   3.092  26.105  0.00  0.00    +0.005 C 
ATOM     40  C   UNL     1       4.837   2.090  28.323  0.00  0.00    +0.032 C 
BRANCH  31  43
ATOM     41  N   UNL     1       3.940   2.809  24.781  0.00  0.00    -0.309 N 
ATOM     42  H   UNL     1       4.621   2.132  24.444  0.00  0.00    +0.149 HD
ATOM     43  C   UNL     1       3.790   2.816  26.148  0.00  0.00    +0.231 C 
ATOM     44  O   UNL     1       3.145   3.697  26.721  0.00  0.00    -0.274 OA
BRANCH  41  46
ATOM     45  C   UNL     1       4.510   5.081  23.954  0.00  0.00    +0.031 C 
ATOM     46  C   UNL     1       3.504   3.918  23.908  0.00  0.00    +0.026 C 
ATOM     47  C   UNL     1       3.432   3.407  22.459  0.00  0.00    +0.031 C 
ATOM     48  C   UNL     1       2.109   4.446  24.304  0.00  0.00    +0.031 C 
ENDBRANCH  41  46
ENDBRANCH  31  43
ENDBRANCH  30  32
ENDBRANCH  27  30
ENDBRANCH   1  27
BRANCH   1  49
ATOM     49  C   UNL     1       4.589  -4.093  27.032  0.00  0.00    +0.060 C 
BRANCH  49  50
ATOM     50  C   UNL     1       4.418  -4.743  25.681  0.00  0.00    -0.046 A 
ATOM     51  C   UNL     1       3.564  -4.177  24.729  0.00  0.00    +0.004 A 
ATOM     52  C   UNL     1       3.442  -4.758  23.470  0.00  0.00    +0.000 A 
ATOM     53  C   UNL     1       4.176  -5.889  23.133  0.00  0.00    +0.000 A 
ATOM     54  C   UNL     1       4.989  -6.488  24.089  0.00  0.00    +0.000 A 
ATOM     55  C   UNL     1       5.104  -5.923  25.361  0.00  0.00    +0.004 A 
ENDBRANCH  49  50
ENDBRANCH   1  49
TORSDOF 14
ENDMDL
