MODEL 1
REMARK VINA RESULT:      -4.9      0.000      0.000
REMARK  Name = 
REMARK  20 active torsions:
REMARK  status: ('A' for Active; 'I' for Inactive)
REMARK    1  A    between atoms: C_1  and  C_2
REMARK    2  A    between atoms: C_2  and  C_3
REMARK    3  A    between atoms: C_2  and  C_4
REMARK    4  A    between atoms: C_4  and  C_6
REMARK    5  A    between atoms: C_4  and  C_11
REMARK    6  A    between atoms: C_6  and  C_7
REMARK    7  A    between atoms: C_7  and  O_9
REMARK    8  A    between atoms: O_9  and  C_10
REMARK    9  A    between atoms: C_17  and  C_19
REMARK   10  A    between atoms: C_22  and  C_24
REMARK   11  A    between atoms: C_27  and  C_30
REMARK   12  A    between atoms: C_33  and  C_36
REMARK   13  A    between atoms: C_39  and  C_41
REMARK   14  A    between atoms: C_47  and  C_49
REMARK   15  A    between atoms: C_49  and  C_51
REMARK   16  A    between atoms: C_49  and  N_54
REMARK   17  A    between atoms: C_51  and  C_52
REMARK   18  A    between atoms: C_51  and  C_53
REMARK   19  A    between atoms: C_55  and  O_57
REMARK   20  A    between atoms: O_57  and  C_58
REMARK                            x       y       z     vdW  Elec       q    Type
REMARK                         _______ _______ _______ _____ _____    ______ ____
ROOT
ATOM      1  C   UNL     1       7.660  -2.414  23.661  0.00  0.00    -0.018 A 
ATOM      2  C   UNL     1       7.802  -3.315  24.731  0.00  0.00    +0.009 A 
ATOM      3  C   UNL     1       6.958  -4.428  24.881  0.00  0.00    +0.010 A 
ATOM      4  C   UNL     1       5.933  -4.669  23.966  0.00  0.00    -0.000 A 
ATOM      5  C   UNL     1       5.806  -3.804  22.872  0.00  0.00    +0.010 A 
ATOM      6  C   UNL     1       6.659  -2.705  22.721  0.00  0.00    +0.009 A 
ENDROOT
BRANCH   1  10
ATOM      7  C   UNL     1       9.880   1.308  23.442  0.00  0.00    -0.000 A 
ATOM      8  C   UNL     1      10.021   0.459  24.541  0.00  0.00    +0.010 A 
ATOM      9  C   UNL     1       9.342  -0.770  24.595  0.00  0.00    +0.009 A 
ATOM     10  C   UNL     1       8.477  -1.178  23.565  0.00  0.00    -0.018 A 
ATOM     11  C   UNL     1       8.374  -0.326  22.451  0.00  0.00    +0.009 A 
ATOM     12  C   UNL     1       9.067   0.890  22.385  0.00  0.00    +0.010 A 
BRANCH   7  16
ATOM     13  C   UNL     1      10.919   4.781  23.806  0.00  0.00    +0.128 A 
ATOM     14  N   UNL     1      10.058   3.731  24.026  0.00  0.00    -0.340 N 
ATOM     15  H   UNL     1       9.175   3.793  24.517  0.00  0.00    +0.167 HD
ATOM     16  C   UNL     1      10.545   2.607  23.404  0.00  0.00    +0.066 A 
ATOM     17  C   UNL     1      11.706   3.051  22.804  0.00  0.00    +0.139 A 
ATOM     18  N   UNL     1      11.930   4.384  23.055  0.00  0.00    -0.238 NA
BRANCH  13  21
ATOM     19  C   UNL     1       8.618   5.976  25.846  0.00  0.00    +0.220 C 
ATOM     20  N   UNL     1       9.969   6.104  25.629  0.00  0.00    -0.291 N 
ATOM     21  C   UNL     1      10.692   6.169  24.355  0.00  0.00    +0.142 C 
ATOM     22  C   UNL     1      12.024   6.852  24.719  0.00  0.00    +0.032 C 
ATOM     23  C   UNL     1      11.961   7.107  26.228  0.00  0.00    +0.021 C 
ATOM     24  C   UNL     1      10.907   6.141  26.729  0.00  0.00    +0.108 C 
ATOM     25  O   UNL     1       8.178   5.685  26.960  0.00  0.00    -0.275 OA
BRANCH  19  26
ATOM     26  C   UNL     1       7.665   6.294  24.687  0.00  0.00    +0.088 C 
BRANCH  26  28
ATOM     27  C   UNL     1       6.084   6.758  26.683  0.00  0.00    +0.008 C 
ATOM     28  C   UNL     1       6.451   7.107  25.236  0.00  0.00    -0.005 C 
ATOM     29  C   UNL     1       5.213   6.968  24.346  0.00  0.00    +0.008 C 
ENDBRANCH  26  28
BRANCH  26  30
ATOM     30  C   UNL     1       7.260   4.989  23.976  0.00  0.00    +0.133 C 
BRANCH  30  31
ATOM     31  C   UNL     1       7.279   5.150  22.472  0.00  0.00    +0.308 C 
ATOM     32  O   UNL     1       7.677   6.141  21.876  0.00  0.00    -0.251 OA
BRANCH  31  33
ATOM     33  O   UNL     1       6.755   4.034  21.892  0.00  0.00    -0.468 OA
ATOM     34  C   UNL     1       5.848   3.291  22.710  0.00  0.00    +0.280 C 
ENDBRANCH  31  33
ENDBRANCH  30  31
ENDBRANCH  26  30
ENDBRANCH  19  26
ENDBRANCH  13  21
ENDBRANCH   7  16
ENDBRANCH   1  10
BRANCH   4  35
ATOM     35  C   UNL     1       5.001  -5.778  24.148  0.00  0.00    +0.066 A 
ATOM     36  N   UNL     1       3.737  -5.619  24.654  0.00  0.00    -0.340 N 
ATOM     37  H   UNL     1       3.312  -4.752  24.948  0.00  0.00    +0.167 HD
ATOM     38  C   UNL     1       3.089  -6.826  24.650  0.00  0.00    +0.128 A 
ATOM     39  N   UNL     1       3.903  -7.775  24.236  0.00  0.00    -0.238 NA
ATOM     40  C   UNL     1       5.083  -7.139  23.922  0.00  0.00    +0.139 A 
BRANCH  38  41
ATOM     41  C   UNL     1       1.627  -6.949  24.994  0.00  0.00    +0.142 C 
ATOM     42  N   UNL     1       1.105  -5.650  25.456  0.00  0.00    -0.290 N 
ATOM     43  C   UNL     1       1.084  -5.121  26.733  0.00  0.00    +0.237 C 
ATOM     44  O   UNL     1       0.725  -3.952  26.902  0.00  0.00    -0.274 OA
ATOM     45  C   UNL     1       0.445  -4.940  24.363  0.00  0.00    +0.108 C 
ATOM     46  C   UNL     1       0.616  -5.822  23.135  0.00  0.00    +0.021 C 
ATOM     47  C   UNL     1       0.804  -7.215  23.729  0.00  0.00    +0.032 C 
BRANCH  43  48
ATOM     48  C   UNL     1       1.584  -6.005  27.902  0.00  0.00    +0.165 C 
BRANCH  48  49
ATOM     49  N   UNL     1       2.723  -5.353  28.527  0.00  0.00    -0.270 N 
ATOM     50  H   UNL     1       2.607  -4.560  29.144  0.00  0.00    +0.153 HD
ATOM     51  C   UNL     1       3.998  -5.765  28.297  0.00  0.00    +0.401 C 
ATOM     52  O   UNL     1       4.307  -6.750  27.646  0.00  0.00    -0.226 OA
BRANCH  51  53
ATOM     53  O   UNL     1       4.865  -4.890  28.865  0.00  0.00    -0.454 OA
ATOM     54  C   UNL     1       4.222  -3.761  29.457  0.00  0.00    +0.282 C 
ENDBRANCH  51  53
ENDBRANCH  48  49
BRANCH  48  55
ATOM     55  C   UNL     1       0.506  -6.409  28.940  0.00  0.00    +0.012 C 
ATOM     56  C   UNL     1       0.507  -5.445  30.132  0.00  0.00    +0.009 C 
ATOM     57  C   UNL     1       0.568  -7.862  29.420  0.00  0.00    +0.009 C 
ENDBRANCH  48  55
ENDBRANCH  43  48
ENDBRANCH  38  41
ENDBRANCH   4  35
TORSDOF 14
ENDMDL
MODEL 2
REMARK VINA RESULT:      -3.0      2.716     13.053
REMARK  Name = 
REMARK  20 active torsions:
REMARK  status: ('A' for Active; 'I' for Inactive)
REMARK    1  A    between atoms: C_1  and  C_2
REMARK    2  A    between atoms: C_2  and  C_3
REMARK    3  A    between atoms: C_2  and  C_4
REMARK    4  A    between atoms: C_4  and  C_6
REMARK    5  A    between atoms: C_4  and  C_11
REMARK    6  A    between atoms: C_6  and  C_7
REMARK    7  A    between atoms: C_7  and  O_9
REMARK    8  A    between atoms: O_9  and  C_10
REMARK    9  A    between atoms: C_17  and  C_19
REMARK   10  A    between atoms: C_22  and  C_24
REMARK   11  A    between atoms: C_27  and  C_30
REMARK   12  A    between atoms: C_33  and  C_36
REMARK   13  A    between atoms: C_39  and  C_41
REMARK   14  A    between atoms: C_47  and  C_49
REMARK   15  A    between atoms: C_49  and  C_51
REMARK   16  A    between atoms: C_49  and  N_54
REMARK   17  A    between atoms: C_51  and  C_52
REMARK   18  A    between atoms: C_51  and  C_53
REMARK   19  A    between atoms: C_55  and  O_57
REMARK   20  A    between atoms: O_57  and  C_58
REMARK                            x       y       z     vdW  Elec       q    Type
REMARK                         _______ _______ _______ _____ _____    ______ ____
ROOT
ATOM      1  C   UNL     1       4.928  -0.321  28.076  0.00  0.00    -0.018 A 
ATOM      2  C   UNL     1       5.864   0.268  28.944  0.00  0.00    +0.009 A 
ATOM      3  C   UNL     1       6.391   1.549  28.709  0.00  0.00    +0.010 A 
ATOM      4  C   UNL     1       6.002   2.281  27.587  0.00  0.00    -0.000 A 
ATOM      5  C   UNL     1       5.038   1.725  26.737  0.00  0.00    +0.010 A 
ATOM      6  C   UNL     1       4.507   0.454  26.984  0.00  0.00    +0.009 A 
ENDROOT
BRANCH   1  10
ATOM      7  C   UNL     1       3.464  -4.391  28.430  0.00  0.00    -0.000 A 
ATOM      8  C   UNL     1       4.788  -4.139  28.066  0.00  0.00    +0.010 A 
ATOM      9  C   UNL     1       5.280  -2.826  27.997  0.00  0.00    +0.009 A 
ATOM     10  C   UNL     1       4.458  -1.717  28.262  0.00  0.00    -0.018 A 
ATOM     11  C   UNL     1       3.137  -1.991  28.661  0.00  0.00    +0.009 A 
ATOM     12  C   UNL     1       2.650  -3.301  28.751  0.00  0.00    +0.010 A 
BRANCH   7  16
ATOM     13  C   UNL     1       1.770  -7.558  27.818  0.00  0.00    +0.128 A 
ATOM     14  N   UNL     1       2.070  -6.251  27.513  0.00  0.00    -0.340 N 
ATOM     15  H   UNL     1       1.668  -5.722  26.748  0.00  0.00    +0.167 HD
ATOM     16  C   UNL     1       2.935  -5.751  28.456  0.00  0.00    +0.066 A 
ATOM     17  C   UNL     1       3.108  -6.811  29.324  0.00  0.00    +0.139 A 
ATOM     18  N   UNL     1       2.392  -7.915  28.927  0.00  0.00    -0.238 NA
BRANCH  13  21
ATOM     19  C   UNL     1       1.767  -8.267  24.596  0.00  0.00    +0.220 C 
ATOM     20  N   UNL     1       1.548  -8.907  25.792  0.00  0.00    -0.291 N 
ATOM     21  C   UNL     1       0.850  -8.414  26.983  0.00  0.00    +0.142 C 
ATOM     22  C   UNL     1       0.445  -9.698  27.734  0.00  0.00    +0.032 C 
ATOM     23  C   UNL     1       0.987 -10.858  26.893  0.00  0.00    +0.021 C 
ATOM     24  C   UNL     1       2.073 -10.232  26.043  0.00  0.00    +0.108 C 
ATOM     25  O   UNL     1       2.580  -8.705  23.780  0.00  0.00    -0.275 OA
BRANCH  19  26
ATOM     26  C   UNL     1       0.906  -7.041  24.263  0.00  0.00    +0.088 C 
BRANCH  26  28
ATOM     27  C   UNL     1       1.227  -8.167  21.954  0.00  0.00    +0.008 C 
ATOM     28  C   UNL     1       0.443  -7.136  22.776  0.00  0.00    -0.005 C 
ATOM     29  C   UNL     1       0.486  -5.778  22.070  0.00  0.00    +0.008 C 
ENDBRANCH  26  28
BRANCH  26  30
ATOM     30  C   UNL     1       1.691  -5.755  24.582  0.00  0.00    +0.133 C 
BRANCH  30  31
ATOM     31  C   UNL     1       3.121  -5.846  24.098  0.00  0.00    +0.308 C 
ATOM     32  O   UNL     1       3.473  -6.325  23.029  0.00  0.00    -0.251 OA
BRANCH  31  33
ATOM     33  O   UNL     1       3.952  -5.339  25.050  0.00  0.00    -0.468 OA
ATOM     34  C   UNL     1       5.250  -5.935  25.106  0.00  0.00    +0.280 C 
ENDBRANCH  31  33
ENDBRANCH  30  31
ENDBRANCH  26  30
ENDBRANCH  19  26
ENDBRANCH  13  21
ENDBRANCH   7  16
ENDBRANCH   1  10
BRANCH   4  35
ATOM     35  C   UNL     1       6.593   3.581  27.289  0.00  0.00    +0.066 A 
ATOM     36  N   UNL     1       7.157   3.888  26.077  0.00  0.00    -0.340 N 
ATOM     37  H   UNL     1       7.226   3.278  25.276  0.00  0.00    +0.167 HD
ATOM     38  C   UNL     1       7.571   5.194  26.084  0.00  0.00    +0.128 A 
ATOM     39  N   UNL     1       7.372   5.725  27.273  0.00  0.00    -0.238 NA
ATOM     40  C   UNL     1       6.768   4.740  28.021  0.00  0.00    +0.139 A 
BRANCH  38  41
ATOM     41  C   UNL     1       8.083   5.876  24.842  0.00  0.00    +0.142 C 
ATOM     42  N   UNL     1       7.866   5.014  23.666  0.00  0.00    -0.290 N 
ATOM     43  C   UNL     1       8.686   4.034  23.138  0.00  0.00    +0.237 C 
ATOM     44  O   UNL     1       8.269   3.320  22.221  0.00  0.00    -0.274 OA
ATOM     45  C   UNL     1       6.641   5.394  22.966  0.00  0.00    +0.108 C 
ATOM     46  C   UNL     1       6.029   6.519  23.786  0.00  0.00    +0.021 C 
ATOM     47  C   UNL     1       7.229   7.108  24.523  0.00  0.00    +0.032 C 
BRANCH  43  48
ATOM     48  C   UNL     1      10.082   3.822  23.774  0.00  0.00    +0.165 C 
BRANCH  48  49
ATOM     49  N   UNL     1      10.451   2.423  23.639  0.00  0.00    -0.270 N 
ATOM     50  H   UNL     1      11.175   2.125  22.999  0.00  0.00    +0.153 HD
ATOM     51  C   UNL     1       9.827   1.446  24.351  0.00  0.00    +0.401 C 
ATOM     52  O   UNL     1       8.992   1.641  25.221  0.00  0.00    -0.226 OA
BRANCH  51  53
ATOM     53  O   UNL     1      10.246   0.233  23.916  0.00  0.00    -0.454 OA
ATOM     54  C   UNL     1      10.144   0.073  22.500  0.00  0.00    +0.282 C 
ENDBRANCH  51  53
ENDBRANCH  48  49
BRANCH  48  55
ATOM     55  C   UNL     1      11.198   4.767  23.261  0.00  0.00    +0.012 C 
ATOM     56  C   UNL     1      12.507   4.001  23.048  0.00  0.00    +0.009 C 
ATOM     57  C   UNL     1      11.437   6.022  24.107  0.00  0.00    +0.009 C 
ENDBRANCH  48  55
ENDBRANCH  43  48
ENDBRANCH  38  41
ENDBRANCH   4  35
TORSDOF 14
ENDMDL
MODEL 3
REMARK VINA RESULT:      -2.6      1.817     13.009
REMARK  Name = 
REMARK  20 active torsions:
REMARK  status: ('A' for Active; 'I' for Inactive)
REMARK    1  A    between atoms: C_1  and  C_2
REMARK    2  A    between atoms: C_2  and  C_3
REMARK    3  A    between atoms: C_2  and  C_4
REMARK    4  A    between atoms: C_4  and  C_6
REMARK    5  A    between atoms: C_4  and  C_11
REMARK    6  A    between atoms: C_6  and  C_7
REMARK    7  A    between atoms: C_7  and  O_9
REMARK    8  A    between atoms: O_9  and  C_10
REMARK    9  A    between atoms: C_17  and  C_19
REMARK   10  A    between atoms: C_22  and  C_24
REMARK   11  A    between atoms: C_27  and  C_30
REMARK   12  A    between atoms: C_33  and  C_36
REMARK   13  A    between atoms: C_39  and  C_41
REMARK   14  A    between atoms: C_47  and  C_49
REMARK   15  A    between atoms: C_49  and  C_51
REMARK   16  A    between atoms: C_49  and  N_54
REMARK   17  A    between atoms: C_51  and  C_52
REMARK   18  A    between atoms: C_51  and  C_53
REMARK   19  A    between atoms: C_55  and  O_57
REMARK   20  A    between atoms: O_57  and  C_58
REMARK                            x       y       z     vdW  Elec       q    Type
REMARK                         _______ _______ _______ _____ _____    ______ ____
ROOT
ATOM      1  C   UNL     1       8.243  -1.044  25.649  0.00  0.00    -0.018 A 
ATOM      2  C   UNL     1       9.293  -1.128  24.717  0.00  0.00    +0.009 A 
ATOM      3  C   UNL     1       9.948   0.017  24.233  0.00  0.00    +0.010 A 
ATOM      4  C   UNL     1       9.564   1.288  24.659  0.00  0.00    -0.000 A 
ATOM      5  C   UNL     1       8.548   1.384  25.619  0.00  0.00    +0.010 A 
ATOM      6  C   UNL     1       7.909   0.240  26.108  0.00  0.00    +0.009 A 
ENDROOT
BRANCH   1  10
ATOM      7  C   UNL     1       5.827  -4.448  26.834  0.00  0.00    -0.000 A 
ATOM      8  C   UNL     1       6.502  -4.445  25.611  0.00  0.00    +0.010 A 
ATOM      9  C   UNL     1       7.323  -3.367  25.244  0.00  0.00    +0.009 A 
ATOM     10  C   UNL     1       7.477  -2.242  26.074  0.00  0.00    -0.018 A 
ATOM     11  C   UNL     1       6.817  -2.278  27.315  0.00  0.00    +0.009 A 
ATOM     12  C   UNL     1       6.014  -3.362  27.694  0.00  0.00    +0.010 A 
BRANCH   7  16
ATOM     13  C   UNL     1       3.039  -6.603  27.758  0.00  0.00    +0.128 A 
ATOM     14  N   UNL     1       3.593  -5.382  27.453  0.00  0.00    -0.340 N 
ATOM     15  H   UNL     1       3.104  -4.496  27.474  0.00  0.00    +0.167 HD
ATOM     16  C   UNL     1       4.934  -5.544  27.198  0.00  0.00    +0.066 A 
ATOM     17  C   UNL     1       5.134  -6.897  27.385  0.00  0.00    +0.139 A 
ATOM     18  N   UNL     1       3.968  -7.540  27.727  0.00  0.00    -0.238 NA
BRANCH  13  21
ATOM     19  C   UNL     1       0.839  -8.843  26.742  0.00  0.00    +0.220 C 
ATOM     20  N   UNL     1       1.186  -8.191  27.901  0.00  0.00    -0.291 N 
ATOM     21  C   UNL     1       1.577  -6.791  28.086  0.00  0.00    +0.142 C 
ATOM     22  C   UNL     1       1.299  -6.521  29.577  0.00  0.00    +0.032 C 
ATOM     23  C   UNL     1       0.777  -7.843  30.147  0.00  0.00    +0.021 C 
ATOM     24  C   UNL     1       1.256  -8.892  29.165  0.00  0.00    +0.108 C 
ATOM     25  O   UNL     1       0.776 -10.073  26.698  0.00  0.00    -0.275 OA
BRANCH  19  26
ATOM     26  C   UNL     1       0.443  -7.995  25.526  0.00  0.00    +0.088 C 
BRANCH  26  28
ATOM     27  C   UNL     1       0.516  -9.155  23.213  0.00  0.00    +0.008 C 
ATOM     28  C   UNL     1       1.311  -8.425  24.303  0.00  0.00    -0.005 C 
ATOM     29  C   UNL     1       2.513  -9.278  24.719  0.00  0.00    +0.008 C 
ENDBRANCH  26  28
BRANCH  26  30
ATOM     30  C   UNL     1       0.569  -6.499  25.875  0.00  0.00    +0.133 C 
BRANCH  30  31
ATOM     31  C   UNL     1       1.030  -5.691  24.683  0.00  0.00    +0.308 C 
ATOM     32  O   UNL     1       0.687  -5.887  23.524  0.00  0.00    -0.251 OA
BRANCH  31  33
ATOM     33  O   UNL     1       1.908  -4.736  25.098  0.00  0.00    -0.468 OA
ATOM     34  C   UNL     1       1.387  -3.405  25.135  0.00  0.00    +0.280 C 
ENDBRANCH  31  33
ENDBRANCH  30  31
ENDBRANCH  26  30
ENDBRANCH  19  26
ENDBRANCH  13  21
ENDBRANCH   7  16
ENDBRANCH   1  10
BRANCH   4  35
ATOM     35  C   UNL     1      10.184   2.490  24.111  0.00  0.00    +0.066 A 
ATOM     36  N   UNL     1       9.673   3.749  24.300  0.00  0.00    -0.340 N 
ATOM     37  H   UNL     1       8.843   3.988  24.822  0.00  0.00    +0.167 HD
ATOM     38  C   UNL     1      10.503   4.670  23.717  0.00  0.00    +0.128 A 
ATOM     39  N   UNL     1      11.488   4.059  23.091  0.00  0.00    -0.238 NA
ATOM     40  C   UNL     1      11.302   2.716  23.331  0.00  0.00    +0.139 A 
BRANCH  38  41
ATOM     41  C   UNL     1      10.299   6.153  23.892  0.00  0.00    +0.142 C 
ATOM     42  N   UNL     1       9.583   6.419  25.152  0.00  0.00    -0.290 N 
ATOM     43  C   UNL     1       8.222   6.479  25.387  0.00  0.00    +0.237 C 
ATOM     44  O   UNL     1       7.808   6.581  26.545  0.00  0.00    -0.274 OA
ATOM     45  C   UNL     1      10.521   6.760  26.219  0.00  0.00    +0.108 C 
ATOM     46  C   UNL     1      11.907   6.643  25.602  0.00  0.00    +0.021 C 
ATOM     47  C   UNL     1      11.646   6.850  24.113  0.00  0.00    +0.032 C 
BRANCH  43  48
ATOM     48  C   UNL     1       7.261   6.341  24.181  0.00  0.00    +0.165 C 
BRANCH  48  49
ATOM     49  N   UNL     1       7.074   4.930  23.890  0.00  0.00    -0.270 N 
ATOM     50  H   UNL     1       6.963   4.247  24.628  0.00  0.00    +0.153 HD
ATOM     51  C   UNL     1       7.059   4.457  22.615  0.00  0.00    +0.401 C 
ATOM     52  O   UNL     1       7.098   5.152  21.612  0.00  0.00    -0.226 OA
BRANCH  51  53
ATOM     53  O   UNL     1       7.036   3.102  22.636  0.00  0.00    -0.454 OA
ATOM     54  C   UNL     1       5.716   2.559  22.699  0.00  0.00    +0.282 C 
ENDBRANCH  51  53
ENDBRANCH  48  49
BRANCH  48  55
ATOM     55  C   UNL     1       5.911   7.090  24.315  0.00  0.00    +0.012 C 
ATOM     56  C   UNL     1       5.120   6.576  25.524  0.00  0.00    +0.009 C 
ATOM     57  C   UNL     1       5.034   7.096  23.059  0.00  0.00    +0.009 C 
ENDBRANCH  48  55
ENDBRANCH  43  48
ENDBRANCH  38  41
ENDBRANCH   4  35
TORSDOF 14
ENDMDL
