MODEL 1
REMARK VINA RESULT:      -6.2      0.000      0.000
REMARK  Name = 
REMARK  5 active torsions:
REMARK  status: ('A' for Active; 'I' for Inactive)
REMARK    1  A    between atoms: C_1  and  C_2
REMARK    2  A    between atoms: N_4  and  C_10
REMARK    3  A    between atoms: C_14  and  O_21
REMARK    4  A    between atoms: C_16  and  C_19
REMARK    5  A    between atoms: C_19  and  O_20
REMARK                            x       y       z     vdW  Elec       q    Type
REMARK                         _______ _______ _______ _____ _____    ______ ____
ROOT
ATOM      1  C   UNL     1      10.097  -2.214  23.670  0.00  0.00    +0.260 C 
ATOM      2  O   UNL     1      10.371  -1.745  22.331  0.00  0.00    -0.345 OA
ATOM      3  C   UNL     1      10.083  -0.333  22.263  0.00  0.00    +0.178 C 
ATOM      4  C   UNL     1       9.478   0.078  23.596  0.00  0.00    +0.184 C 
ATOM      5  C   UNL     1      10.070  -0.948  24.534  0.00  0.00    +0.246 C 
ATOM      6  F   UNL     1       9.318  -1.029  25.651  0.00  0.00    -0.238 F 
ENDROOT
BRANCH   1  15
ATOM      7  C   UNL     1       5.668  -3.382  21.704  0.00  0.00    +0.051 C 
ATOM      8  C   UNL     1       6.797  -3.623  22.658  0.00  0.00    +0.030 A 
ATOM      9  C   UNL     1       6.811  -4.896  23.410  0.00  0.00    +0.257 A 
ATOM     10  O   UNL     1       5.971  -5.769  23.225  0.00  0.00    -0.267 OA
ATOM     11  N   UNL     1       7.837  -5.047  24.295  0.00  0.00    -0.275 N 
ATOM     12  H   UNL     1       7.894  -5.942  24.757  0.00  0.00    +0.173 HD
ATOM     13  C   UNL     1       8.962  -4.266  24.352  0.00  0.00    +0.331 A 
ATOM     14  O   UNL     1       9.965  -4.670  24.935  0.00  0.00    -0.246 OA
ATOM     15  N   UNL     1       8.891  -3.056  23.670  0.00  0.00    -0.271 N 
ATOM     16  C   UNL     1       7.822  -2.782  22.828  0.00  0.00    +0.102 A 
ENDBRANCH   1  15
BRANCH   4  17
ATOM     17  O   UNL     1       9.832   1.426  23.893  0.00  0.00    -0.386 OA
ATOM     18  H   UNL     1       9.683   1.976  23.102  0.00  0.00    +0.210 HD
ENDBRANCH   4  17
BRANCH   3  19
ATOM     19  C   UNL     1       9.134  -0.013  21.100  0.00  0.00    +0.190 C 
BRANCH  19  20
ATOM     20  O   UNL     1       8.872   1.382  21.006  0.00  0.00    -0.392 OA
ATOM     21  H   UNL     1       8.741   1.722  21.909  0.00  0.00    +0.210 HD
ENDBRANCH  19  20
ENDBRANCH   3  19
TORSDOF 4
ENDMDL
MODEL 2
REMARK VINA RESULT:      -6.0      3.232      4.742
REMARK  Name = 
REMARK  5 active torsions:
REMARK  status: ('A' for Active; 'I' for Inactive)
REMARK    1  A    between atoms: C_1  and  C_2
REMARK    2  A    between atoms: N_4  and  C_10
REMARK    3  A    between atoms: C_14  and  O_21
REMARK    4  A    between atoms: C_16  and  C_19
REMARK    5  A    between atoms: C_19  and  O_20
REMARK                            x       y       z     vdW  Elec       q    Type
REMARK                         _______ _______ _______ _____ _____    ______ ____
ROOT
ATOM      1  C   UNL     1       8.146  -4.103  23.392  0.00  0.00    +0.260 C 
ATOM      2  O   UNL     1       8.025  -5.258  22.531  0.00  0.00    -0.345 OA
ATOM      3  C   UNL     1       6.848  -5.108  21.711  0.00  0.00    +0.178 C 
ATOM      4  C   UNL     1       6.124  -3.852  22.170  0.00  0.00    +0.184 C 
ATOM      5  C   UNL     1       7.257  -3.034  22.746  0.00  0.00    +0.246 C 
ATOM      6  F   UNL     1       6.763  -2.107  23.592  0.00  0.00    -0.238 F 
ENDROOT
BRANCH   1  15
ATOM      7  C   UNL     1       4.823  -5.423  26.865  0.00  0.00    +0.051 C 
ATOM      8  C   UNL     1       6.225  -5.170  26.404  0.00  0.00    +0.030 A 
ATOM      9  C   UNL     1       7.333  -5.583  27.291  0.00  0.00    +0.257 A 
ATOM     10  O   UNL     1       7.135  -6.175  28.347  0.00  0.00    -0.267 OA
ATOM     11  N   UNL     1       8.587  -5.291  26.844  0.00  0.00    -0.275 N 
ATOM     12  H   UNL     1       9.349  -5.635  27.408  0.00  0.00    +0.173 HD
ATOM     13  C   UNL     1       8.908  -4.905  25.569  0.00  0.00    +0.331 A 
ATOM     14  O   UNL     1      10.067  -4.993  25.170  0.00  0.00    -0.246 OA
ATOM     15  N   UNL     1       7.843  -4.479  24.782  0.00  0.00    -0.271 N 
ATOM     16  C   UNL     1       6.536  -4.646  25.215  0.00  0.00    +0.102 A 
ENDBRANCH   1  15
BRANCH   4  17
ATOM     17  O   UNL     1       5.457  -3.246  21.066  0.00  0.00    -0.386 OA
ATOM     18  H   UNL     1       5.139  -2.364  21.331  0.00  0.00    +0.210 HD
ENDBRANCH   4  17
BRANCH   3  19
ATOM     19  C   UNL     1       5.939  -6.340  21.810  0.00  0.00    +0.190 C 
BRANCH  19  20
ATOM     20  O   UNL     1       4.620  -5.989  22.210  0.00  0.00    -0.392 OA
ATOM     21  H   UNL     1       4.677  -5.176  22.744  0.00  0.00    +0.210 HD
ENDBRANCH  19  20
ENDBRANCH   3  19
TORSDOF 4
ENDMDL
MODEL 3
REMARK VINA RESULT:      -6.0      2.757      3.365
REMARK  Name = 
REMARK  5 active torsions:
REMARK  status: ('A' for Active; 'I' for Inactive)
REMARK    1  A    between atoms: C_1  and  C_2
REMARK    2  A    between atoms: N_4  and  C_10
REMARK    3  A    between atoms: C_14  and  O_21
REMARK    4  A    between atoms: C_16  and  C_19
REMARK    5  A    between atoms: C_19  and  O_20
REMARK                            x       y       z     vdW  Elec       q    Type
REMARK                         _______ _______ _______ _____ _____    ______ ____
ROOT
ATOM      1  C   UNL     1       8.015  -3.474  23.596  0.00  0.00    +0.260 C 
ATOM      2  O   UNL     1       6.819  -2.746  23.236  0.00  0.00    -0.345 OA
ATOM      3  C   UNL     1       7.110  -1.333  23.253  0.00  0.00    +0.178 C 
ATOM      4  C   UNL     1       8.530  -1.161  23.770  0.00  0.00    +0.184 C 
ATOM      5  C   UNL     1       9.162  -2.479  23.384  0.00  0.00    +0.246 C 
ATOM      6  F   UNL     1      10.259  -2.695  24.139  0.00  0.00    -0.238 F 
ENDROOT
BRANCH   1  15
ATOM      7  C   UNL     1       5.390  -3.948  27.807  0.00  0.00    +0.051 C 
ATOM      8  C   UNL     1       6.545  -4.302  26.920  0.00  0.00    +0.030 A 
ATOM      9  C   UNL     1       7.382  -5.459  27.299  0.00  0.00    +0.257 A 
ATOM     10  O   UNL     1       7.118  -6.163  28.268  0.00  0.00    -0.267 OA
ATOM     11  N   UNL     1       8.444  -5.711  26.482  0.00  0.00    -0.275 N 
ATOM     12  H   UNL     1       8.975  -6.543  26.692  0.00  0.00    +0.173 HD
ATOM     13  C   UNL     1       8.639  -5.169  25.239  0.00  0.00    +0.331 A 
ATOM     14  O   UNL     1       9.420  -5.697  24.451  0.00  0.00    -0.246 OA
ATOM     15  N   UNL     1       7.865  -4.053  24.940  0.00  0.00    -0.271 N 
ATOM     16  C   UNL     1       6.829  -3.668  25.778  0.00  0.00    +0.102 A 
ENDBRANCH   1  15
BRANCH   4  17
ATOM     17  O   UNL     1       9.129  -0.018  23.168  0.00  0.00    -0.386 OA
ATOM     18  H   UNL     1       9.915   0.239  23.684  0.00  0.00    +0.210 HD
ENDBRANCH   4  17
BRANCH   3  19
ATOM     19  C   UNL     1       6.105  -0.566  24.122  0.00  0.00    +0.190 C 
BRANCH  19  20
ATOM     20  O   UNL     1       6.015   0.800  23.739  0.00  0.00    -0.392 OA
ATOM     21  H   UNL     1       5.112   0.958  23.408  0.00  0.00    +0.210 HD
ENDBRANCH  19  20
ENDBRANCH   3  19
TORSDOF 4
ENDMDL
MODEL 4
REMARK VINA RESULT:      -6.0      1.955      2.582
REMARK  Name = 
REMARK  5 active torsions:
REMARK  status: ('A' for Active; 'I' for Inactive)
REMARK    1  A    between atoms: C_1  and  C_2
REMARK    2  A    between atoms: N_4  and  C_10
REMARK    3  A    between atoms: C_14  and  O_21
REMARK    4  A    between atoms: C_16  and  C_19
REMARK    5  A    between atoms: C_19  and  O_20
REMARK                            x       y       z     vdW  Elec       q    Type
REMARK                         _______ _______ _______ _____ _____    ______ ____
ROOT
ATOM      1  C   UNL     1       8.779  -3.852  25.398  0.00  0.00    +0.260 C 
ATOM      2  O   UNL     1       9.567  -3.647  24.203  0.00  0.00    -0.345 OA
ATOM      3  C   UNL     1       9.523  -2.249  23.851  0.00  0.00    +0.178 C 
ATOM      4  C   UNL     1       8.556  -1.563  24.803  0.00  0.00    +0.184 C 
ATOM      5  C   UNL     1       8.632  -2.458  26.018  0.00  0.00    +0.246 C 
ATOM      6  F   UNL     1       7.533  -2.281  26.782  0.00  0.00    -0.238 F 
ENDROOT
BRANCH   1  15
ATOM      7  C   UNL     1       5.723  -5.797  21.973  0.00  0.00    +0.051 C 
ATOM      8  C   UNL     1       6.133  -5.549  23.393  0.00  0.00    +0.030 A 
ATOM      9  C   UNL     1       5.426  -6.288  24.459  0.00  0.00    +0.257 A 
ATOM     10  O   UNL     1       4.573  -7.133  24.209  0.00  0.00    -0.267 OA
ATOM     11  N   UNL     1       5.808  -5.994  25.734  0.00  0.00    -0.275 N 
ATOM     12  H   UNL     1       5.383  -6.548  26.462  0.00  0.00    +0.173 HD
ATOM     13  C   UNL     1       6.933  -5.296  26.087  0.00  0.00    +0.331 A 
ATOM     14  O   UNL     1       7.372  -5.370  27.232  0.00  0.00    -0.246 OA
ATOM     15  N   UNL     1       7.541  -4.575  25.065  0.00  0.00    -0.271 N 
ATOM     16  C   UNL     1       7.137  -4.741  23.748  0.00  0.00    +0.102 A 
ENDBRANCH   1  15
BRANCH   4  17
ATOM     17  O   UNL     1       8.972  -0.219  25.031  0.00  0.00    -0.386 OA
ATOM     18  H   UNL     1       9.850  -0.225  25.453  0.00  0.00    +0.210 HD
ENDBRANCH   4  17
BRANCH   3  19
ATOM     19  C   UNL     1       9.095  -2.054  22.390  0.00  0.00    +0.190 C 
BRANCH  19  20
ATOM     20  O   UNL     1      10.172  -1.587  21.586  0.00  0.00    -0.392 OA
ATOM     21  H   UNL     1       9.981  -0.664  21.340  0.00  0.00    +0.210 HD
ENDBRANCH  19  20
ENDBRANCH   3  19
TORSDOF 4
ENDMDL
MODEL 5
REMARK VINA RESULT:      -5.9      2.213      5.077
REMARK  Name = 
REMARK  5 active torsions:
REMARK  status: ('A' for Active; 'I' for Inactive)
REMARK    1  A    between atoms: C_1  and  C_2
REMARK    2  A    between atoms: N_4  and  C_10
REMARK    3  A    between atoms: C_14  and  O_21
REMARK    4  A    between atoms: C_16  and  C_19
REMARK    5  A    between atoms: C_19  and  O_20
REMARK                            x       y       z     vdW  Elec       q    Type
REMARK                         _______ _______ _______ _____ _____    ______ ____
ROOT
ATOM      1  C   UNL     1       7.986  -2.600  25.210  0.00  0.00    +0.260 C 
ATOM      2  O   UNL     1       6.655  -2.450  24.668  0.00  0.00    -0.345 OA
ATOM      3  C   UNL     1       6.477  -3.399  23.597  0.00  0.00    +0.178 C 
ATOM      4  C   UNL     1       7.810  -4.096  23.373  0.00  0.00    +0.184 C 
ATOM      5  C   UNL     1       8.452  -3.982  24.737  0.00  0.00    +0.246 C 
ATOM      6  F   UNL     1       9.788  -4.132  24.624  0.00  0.00    -0.238 F 
ENDROOT
BRANCH   1  15
ATOM      7  C   UNL     1       9.619   0.566  21.724  0.00  0.00    +0.051 C 
ATOM      8  C   UNL     1       9.527   0.092  23.141  0.00  0.00    +0.030 A 
ATOM      9  C   UNL     1      10.052   0.974  24.204  0.00  0.00    +0.257 A 
ATOM     10  O   UNL     1      10.494   2.092  23.962  0.00  0.00    -0.267 OA
ATOM     11  N   UNL     1       9.983   0.477  25.471  0.00  0.00    -0.275 N 
ATOM     12  H   UNL     1      10.271   1.103  26.208  0.00  0.00    +0.173 HD
ATOM     13  C   UNL     1       9.251  -0.615  25.860  0.00  0.00    +0.331 A 
ATOM     14  O   UNL     1       8.977  -0.784  27.045  0.00  0.00    -0.246 OA
ATOM     15  N   UNL     1       8.815  -1.444  24.833  0.00  0.00    -0.271 N 
ATOM     16  C   UNL     1       8.946  -1.055  23.507  0.00  0.00    +0.102 A 
ENDBRANCH   1  15
BRANCH   4  17
ATOM     17  O   UNL     1       7.589  -5.433  22.933  0.00  0.00    -0.386 OA
ATOM     18  H   UNL     1       7.290  -5.417  22.006  0.00  0.00    +0.210 HD
ENDBRANCH   4  17
BRANCH   3  19
ATOM     19  C   UNL     1       5.989  -2.710  22.316  0.00  0.00    +0.190 C 
BRANCH  19  20
ATOM     20  O   UNL     1       5.631  -3.656  21.315  0.00  0.00    -0.392 OA
ATOM     21  H   UNL     1       5.278  -4.445  21.764  0.00  0.00    +0.210 HD
ENDBRANCH  19  20
ENDBRANCH   3  19
TORSDOF 4
ENDMDL
MODEL 6
REMARK VINA RESULT:      -5.8      2.364      3.155
REMARK  Name = 
REMARK  5 active torsions:
REMARK  status: ('A' for Active; 'I' for Inactive)
REMARK    1  A    between atoms: C_1  and  C_2
REMARK    2  A    between atoms: N_4  and  C_10
REMARK    3  A    between atoms: C_14  and  O_21
REMARK    4  A    between atoms: C_16  and  C_19
REMARK    5  A    between atoms: C_19  and  O_20
REMARK                            x       y       z     vdW  Elec       q    Type
REMARK                         _______ _______ _______ _____ _____    ______ ____
ROOT
ATOM      1  C   UNL     1       9.392   0.535  21.898  0.00  0.00    +0.260 C 
ATOM      2  O   UNL     1       8.255   1.161  21.260  0.00  0.00    -0.345 OA
ATOM      3  C   UNL     1       8.056   2.467  21.839  0.00  0.00    +0.178 C 
ATOM      4  C   UNL     1       9.043   2.618  22.986  0.00  0.00    +0.184 C 
ATOM      5  C   UNL     1      10.155   1.687  22.562  0.00  0.00    +0.246 C 
ATOM      6  F   UNL     1      10.894   1.344  23.637  0.00  0.00    -0.238 F 
ENDROOT
BRANCH   1  15
ATOM      7  C   UNL     1       5.716  -1.769  24.354  0.00  0.00    +0.051 C 
ATOM      8  C   UNL     1       7.134  -1.672  23.881  0.00  0.00    +0.030 A 
ATOM      9  C   UNL     1       8.009  -2.849  24.064  0.00  0.00    +0.257 A 
ATOM     10  O   UNL     1       7.590  -3.905  24.525  0.00  0.00    -0.267 OA
ATOM     11  N   UNL     1       9.300  -2.693  23.656  0.00  0.00    -0.275 N 
ATOM     12  H   UNL     1       9.883  -3.515  23.710  0.00  0.00    +0.173 HD
ATOM     13  C   UNL     1       9.772  -1.670  22.875  0.00  0.00    +0.331 A 
ATOM     14  O   UNL     1      10.842  -1.787  22.285  0.00  0.00    -0.246 OA
ATOM     15  N   UNL     1       8.938  -0.562  22.767  0.00  0.00    -0.271 N 
ATOM     16  C   UNL     1       7.640  -0.605  23.253  0.00  0.00    +0.102 A 
ENDBRANCH   1  15
BRANCH   4  17
ATOM     17  O   UNL     1       9.430   3.984  23.114  0.00  0.00    -0.386 OA
ATOM     18  H   UNL     1      10.021   4.075  23.884  0.00  0.00    +0.210 HD
ENDBRANCH   4  17
BRANCH   3  19
ATOM     19  C   UNL     1       6.611   2.649  22.322  0.00  0.00    +0.190 C 
BRANCH  19  20
ATOM     20  O   UNL     1       6.051   3.870  21.856  0.00  0.00    -0.392 OA
ATOM     21  H   UNL     1       6.727   4.565  21.954  0.00  0.00    +0.210 HD
ENDBRANCH  19  20
ENDBRANCH   3  19
TORSDOF 4
ENDMDL
MODEL 7
REMARK VINA RESULT:      -5.7      2.191      2.452
REMARK  Name = 
REMARK  5 active torsions:
REMARK  status: ('A' for Active; 'I' for Inactive)
REMARK    1  A    between atoms: C_1  and  C_2
REMARK    2  A    between atoms: N_4  and  C_10
REMARK    3  A    between atoms: C_14  and  O_21
REMARK    4  A    between atoms: C_16  and  C_19
REMARK    5  A    between atoms: C_19  and  O_20
REMARK                            x       y       z     vdW  Elec       q    Type
REMARK                         _______ _______ _______ _____ _____    ______ ____
ROOT
ATOM      1  C   UNL     1      10.333  -0.567  23.321  0.00  0.00    +0.260 C 
ATOM      2  O   UNL     1       9.852  -0.064  22.054  0.00  0.00    -0.345 OA
ATOM      3  C   UNL     1       9.830   1.377  22.102  0.00  0.00    +0.178 C 
ATOM      4  C   UNL     1      10.199   1.797  23.516  0.00  0.00    +0.184 C 
ATOM      5  C   UNL     1      11.036   0.626  23.978  0.00  0.00    +0.246 C 
ATOM      6  F   UNL     1      11.076   0.600  25.326  0.00  0.00    -0.238 F 
ENDROOT
BRANCH   1  15
ATOM      7  C   UNL     1       5.642  -0.399  24.999  0.00  0.00    +0.051 C 
ATOM      8  C   UNL     1       6.952  -1.098  24.800  0.00  0.00    +0.030 A 
ATOM      9  C   UNL     1       7.024  -2.540  25.114  0.00  0.00    +0.257 A 
ATOM     10  O   UNL     1       6.038  -3.179  25.465  0.00  0.00    -0.267 OA
ATOM     11  N   UNL     1       8.249  -3.117  24.956  0.00  0.00    -0.275 N 
ATOM     12  H   UNL     1       8.289  -4.116  25.097  0.00  0.00    +0.173 HD
ATOM     13  C   UNL     1       9.315  -2.559  24.300  0.00  0.00    +0.331 A 
ATOM     14  O   UNL     1      10.243  -3.266  23.916  0.00  0.00    -0.246 OA
ATOM     15  N   UNL     1       9.228  -1.191  24.065  0.00  0.00    -0.271 N 
ATOM     16  C   UNL     1       8.043  -0.508  24.301  0.00  0.00    +0.102 A 
ENDBRANCH   1  15
BRANCH   4  17
ATOM     17  O   UNL     1      10.889   3.043  23.487  0.00  0.00    -0.386 OA
ATOM     18  H   UNL     1      10.248   3.758  23.321  0.00  0.00    +0.210 HD
ENDBRANCH   4  17
BRANCH   3  19
ATOM     19  C   UNL     1       8.456   1.929  21.700  0.00  0.00    +0.190 C 
BRANCH  19  20
ATOM     20  O   UNL     1       8.322   3.304  22.039  0.00  0.00    -0.392 OA
ATOM     21  H   UNL     1       8.966   3.501  22.743  0.00  0.00    +0.210 HD
ENDBRANCH  19  20
ENDBRANCH   3  19
TORSDOF 4
ENDMDL
MODEL 8
REMARK VINA RESULT:      -5.7      2.212      3.585
REMARK  Name = 
REMARK  5 active torsions:
REMARK  status: ('A' for Active; 'I' for Inactive)
REMARK    1  A    between atoms: C_1  and  C_2
REMARK    2  A    between atoms: N_4  and  C_10
REMARK    3  A    between atoms: C_14  and  O_21
REMARK    4  A    between atoms: C_16  and  C_19
REMARK    5  A    between atoms: C_19  and  O_20
REMARK                            x       y       z     vdW  Elec       q    Type
REMARK                         _______ _______ _______ _____ _____    ______ ____
ROOT
ATOM      1  C   UNL     1       8.116  -0.478  22.242  0.00  0.00    +0.260 C 
ATOM      2  O   UNL     1       7.342   0.681  22.627  0.00  0.00    -0.345 OA
ATOM      3  C   UNL     1       8.187   1.849  22.561  0.00  0.00    +0.178 C 
ATOM      4  C   UNL     1       9.597   1.380  22.238  0.00  0.00    +0.184 C 
ATOM      5  C   UNL     1       9.332   0.088  21.500  0.00  0.00    +0.246 C 
ATOM      6  F   UNL     1      10.437  -0.686  21.530  0.00  0.00    -0.238 F 
ENDROOT
BRANCH   1  15
ATOM      7  C   UNL     1       8.742  -0.908  27.169  0.00  0.00    +0.051 C 
ATOM      8  C   UNL     1       8.612  -1.492  25.795  0.00  0.00    +0.030 A 
ATOM      9  C   UNL     1       8.464  -2.957  25.675  0.00  0.00    +0.257 A 
ATOM     10  O   UNL     1       8.381  -3.685  26.659  0.00  0.00    -0.267 OA
ATOM     11  N   UNL     1       8.392  -3.440  24.403  0.00  0.00    -0.275 N 
ATOM     12  H   UNL     1       8.217  -4.430  24.315  0.00  0.00    +0.173 HD
ATOM     13  C   UNL     1       8.183  -2.689  23.276  0.00  0.00    +0.331 A 
ATOM     14  O   UNL     1       7.799  -3.225  22.239  0.00  0.00    -0.246 OA
ATOM     15  N   UNL     1       8.378  -1.320  23.420  0.00  0.00    -0.271 N 
ATOM     16  C   UNL     1       8.564  -0.762  24.676  0.00  0.00    +0.102 A 
ENDBRANCH   1  15
BRANCH   4  17
ATOM     17  O   UNL     1      10.273   2.373  21.471  0.00  0.00    -0.386 OA
ATOM     18  H   UNL     1      11.128   2.573  21.894  0.00  0.00    +0.210 HD
ENDBRANCH   4  17
BRANCH   3  19
ATOM     19  C   UNL     1       8.151   2.638  23.876  0.00  0.00    +0.190 C 
BRANCH  19  20
ATOM     20  O   UNL     1       9.449   2.772  24.443  0.00  0.00    -0.392 OA
ATOM     21  H   UNL     1      10.097   2.725  23.717  0.00  0.00    +0.210 HD
ENDBRANCH  19  20
ENDBRANCH   3  19
TORSDOF 4
ENDMDL
MODEL 9
REMARK VINA RESULT:      -5.7      2.258      2.879
REMARK  Name = 
REMARK  5 active torsions:
REMARK  status: ('A' for Active; 'I' for Inactive)
REMARK    1  A    between atoms: C_1  and  C_2
REMARK    2  A    between atoms: N_4  and  C_10
REMARK    3  A    between atoms: C_14  and  O_21
REMARK    4  A    between atoms: C_16  and  C_19
REMARK    5  A    between atoms: C_19  and  O_20
REMARK                            x       y       z     vdW  Elec       q    Type
REMARK                         _______ _______ _______ _____ _____    ______ ____
ROOT
ATOM      1  C   UNL     1       7.410  -1.624  24.670  0.00  0.00    +0.260 C 
ATOM      2  O   UNL     1       8.799  -2.024  24.702  0.00  0.00    -0.345 OA
ATOM      3  C   UNL     1       9.561  -1.129  23.866  0.00  0.00    +0.178 C 
ATOM      4  C   UNL     1       8.580  -0.195  23.176  0.00  0.00    +0.184 C 
ATOM      5  C   UNL     1       7.427  -0.181  24.152  0.00  0.00    +0.246 C 
ATOM      6  F   UNL     1       6.302   0.217  23.522  0.00  0.00    -0.238 F 
ENDROOT
BRANCH   1  15
ATOM      7  C   UNL     1       7.231  -5.666  21.759  0.00  0.00    +0.051 C 
ATOM      8  C   UNL     1       6.577  -4.583  22.561  0.00  0.00    +0.030 A 
ATOM      9  C   UNL     1       5.124  -4.685  22.810  0.00  0.00    +0.257 A 
ATOM     10  O   UNL     1       4.466  -5.650  22.437  0.00  0.00    -0.267 OA
ATOM     11  N   UNL     1       4.572  -3.653  23.508  0.00  0.00    -0.275 N 
ATOM     12  H   UNL     1       3.596  -3.751  23.746  0.00  0.00    +0.173 HD
ATOM     13  C   UNL     1       5.267  -2.699  24.205  0.00  0.00    +0.331 A 
ATOM     14  O   UNL     1       4.703  -2.027  25.064  0.00  0.00    -0.246 OA
ATOM     15  N   UNL     1       6.623  -2.605  23.907  0.00  0.00    -0.271 N 
ATOM     16  C   UNL     1       7.239  -3.562  23.114  0.00  0.00    +0.102 A 
ENDBRANCH   1  15
BRANCH   4  17
ATOM     17  O   UNL     1       9.189   1.075  22.961  0.00  0.00    -0.386 OA
ATOM     18  H   UNL     1      10.004   1.131  23.492  0.00  0.00    +0.210 HD
ENDBRANCH   4  17
BRANCH   3  19
ATOM     19  C   UNL     1      10.404  -1.902  22.843  0.00  0.00    +0.190 C 
BRANCH  19  20
ATOM     20  O   UNL     1      10.109  -1.503  21.510  0.00  0.00    -0.392 OA
ATOM     21  H   UNL     1      10.205  -0.535  21.461  0.00  0.00    +0.210 HD
ENDBRANCH  19  20
ENDBRANCH   3  19
TORSDOF 4
ENDMDL
