MODEL 1
REMARK VINA RESULT:      -6.0      0.000      0.000
REMARK  Name = 
REMARK  11 active torsions:
REMARK  status: ('A' for Active; 'I' for Inactive)
REMARK    1  A    between atoms: C_1  and  C_2
REMARK    2  A    between atoms: N_4  and  C_5
REMARK    3  A    between atoms: C_7  and  N_25
REMARK    4  A    between atoms: C_10  and  C_22
REMARK    5  A    between atoms: C_12  and  C_14
REMARK    6  A    between atoms: C_14  and  C_16
REMARK    7  A    between atoms: C_14  and  O_21
REMARK    8  A    between atoms: C_16  and  C_18
REMARK    9  A    between atoms: C_16  and  O_20
REMARK   10  A    between atoms: C_18  and  O_19
REMARK   11  A    between atoms: C_22  and  O_24
REMARK                            x       y       z     vdW  Elec       q    Type
REMARK                         _______ _______ _______ _____ _____    ______ ____
ROOT
ATOM      1  C   UNL     1       7.889  -3.005  23.105  0.00  0.00    +0.160 C 
ATOM      2  C   UNL     1       8.000  -1.562  22.539  0.00  0.00    +0.229 C 
ATOM      3  O   UNL     1       7.087  -0.593  23.072  0.00  0.00    -0.477 OA
ATOM      4  C   UNL     1       6.734  -0.712  24.396  0.00  0.00    +0.204 C 
ATOM      5  C   UNL     1       6.892  -1.819  25.126  0.00  0.00    +0.071 C 
ATOM      6  C   UNL     1       7.434  -3.095  24.584  0.00  0.00    +0.238 C 
ENDROOT
BRANCH   6   7
ATOM      7  N   UNL     1       8.580  -3.500  25.406  0.00  0.00    -0.104 NA
ATOM      8  C   UNL     1       8.601  -4.646  25.974  0.00  0.00    +0.377 C 
ATOM      9  N   UNL     1       9.639  -4.955  26.769  0.00  0.00    -0.289 N 
ATOM     10  H   UNL     1       9.827  -5.893  27.077  0.00  0.00    +0.255 HD
ATOM     11  H   UNL     1      10.382  -4.273  26.824  0.00  0.00    +0.255 HD
ATOM     12  N   UNL     1       7.689  -5.642  25.955  0.00  0.00    -0.289 N 
ATOM     13  H   UNL     1       8.050  -6.584  25.984  0.00  0.00    +0.255 HD
ATOM     14  H   UNL     1       6.913  -5.547  25.313  0.00  0.00    +0.255 HD
ENDBRANCH   6   7
BRANCH   1  17
ATOM     15  C   UNL     1       6.261  -5.873  21.165  0.00  0.00    +0.109 C 
ATOM     16  C   UNL     1       7.223  -5.231  22.127  0.00  0.00    +0.210 C 
ATOM     17  N   UNL     1       7.084  -3.867  22.206  0.00  0.00    -0.305 N 
ATOM     18  H   UNL     1       6.361  -3.419  21.657  0.00  0.00    +0.149 HD
ATOM     19  O   UNL     1       8.033  -5.876  22.780  0.00  0.00    -0.276 OA
ENDBRANCH   1  17
BRANCH   4  20
ATOM     20  C   UNL     1       6.062   0.458  25.047  0.00  0.00    +0.372 C 
ATOM     21  O   UNL     1       4.864   0.582  25.230  0.00  0.00    -0.242 OA
BRANCH  20  22
ATOM     22  O   UNL     1       6.972   1.392  25.409  0.00  0.00    -0.475 OA
ATOM     23  H   UNL     1       7.861   1.118  25.104  0.00  0.00    +0.296 HD
ENDBRANCH  20  22
ENDBRANCH   4  20
BRANCH   2  24
ATOM     24  C   UNL     1       9.469  -1.058  22.545  0.00  0.00    +0.187 C 
BRANCH  24  25
ATOM     25  O   UNL     1      10.327  -1.921  23.289  0.00  0.00    -0.385 OA
ATOM     26  H   UNL     1      10.689  -2.576  22.662  0.00  0.00    +0.210 HD
ENDBRANCH  24  25
BRANCH  24  27
ATOM     27  C   UNL     1       9.653   0.395  23.022  0.00  0.00    +0.172 C 
BRANCH  27  28
ATOM     28  O   UNL     1      10.200   1.159  21.919  0.00  0.00    -0.387 OA
ATOM     29  H   UNL     1      11.000   0.696  21.611  0.00  0.00    +0.210 HD
ENDBRANCH  27  28
BRANCH  27  30
ATOM     30  C   UNL     1      10.614   0.583  24.201  0.00  0.00    +0.189 C 
BRANCH  30  31
ATOM     31  O   UNL     1       9.913   0.319  25.419  0.00  0.00    -0.392 OA
ATOM     32  H   UNL     1       9.033   0.008  25.140  0.00  0.00    +0.210 HD
ENDBRANCH  30  31
ENDBRANCH  27  30
ENDBRANCH  24  27
ENDBRANCH   2  24
TORSDOF 10
ENDMDL
MODEL 2
REMARK VINA RESULT:      -5.9      0.862      1.352
REMARK  Name = 
REMARK  11 active torsions:
REMARK  status: ('A' for Active; 'I' for Inactive)
REMARK    1  A    between atoms: C_1  and  C_2
REMARK    2  A    between atoms: N_4  and  C_5
REMARK    3  A    between atoms: C_7  and  N_25
REMARK    4  A    between atoms: C_10  and  C_22
REMARK    5  A    between atoms: C_12  and  C_14
REMARK    6  A    between atoms: C_14  and  C_16
REMARK    7  A    between atoms: C_14  and  O_21
REMARK    8  A    between atoms: C_16  and  C_18
REMARK    9  A    between atoms: C_16  and  O_20
REMARK   10  A    between atoms: C_18  and  O_19
REMARK   11  A    between atoms: C_22  and  O_24
REMARK                            x       y       z     vdW  Elec       q    Type
REMARK                         _______ _______ _______ _____ _____    ______ ____
ROOT
ATOM      1  C   UNL     1       7.619  -3.268  23.131  0.00  0.00    +0.160 C 
ATOM      2  C   UNL     1       8.050  -1.847  22.675  0.00  0.00    +0.229 C 
ATOM      3  O   UNL     1       7.191  -0.764  23.056  0.00  0.00    -0.477 OA
ATOM      4  C   UNL     1       6.552  -0.855  24.271  0.00  0.00    +0.204 C 
ATOM      5  C   UNL     1       6.394  -1.988  24.961  0.00  0.00    +0.071 C 
ATOM      6  C   UNL     1       6.852  -3.319  24.478  0.00  0.00    +0.238 C 
ENDROOT
BRANCH   6   7
ATOM      7  N   UNL     1       7.729  -3.907  25.497  0.00  0.00    -0.104 NA
ATOM      8  C   UNL     1       7.512  -5.087  25.941  0.00  0.00    +0.377 C 
ATOM      9  N   UNL     1       8.299  -5.565  26.919  0.00  0.00    -0.289 N 
ATOM     10  H   UNL     1       8.324  -6.538  27.170  0.00  0.00    +0.255 HD
ATOM     11  H   UNL     1       9.066  -4.975  27.208  0.00  0.00    +0.255 HD
ATOM     12  N   UNL     1       6.545  -5.972  25.618  0.00  0.00    -0.289 N 
ATOM     13  H   UNL     1       6.803  -6.947  25.638  0.00  0.00    +0.255 HD
ATOM     14  H   UNL     1       5.956  -5.745  24.828  0.00  0.00    +0.255 HD
ENDBRANCH   6   7
BRANCH   1  17
ATOM     15  C   UNL     1       6.143  -5.817  20.690  0.00  0.00    +0.109 C 
ATOM     16  C   UNL     1       6.988  -5.338  21.839  0.00  0.00    +0.210 C 
ATOM     17  N   UNL     1       6.909  -3.982  22.042  0.00  0.00    -0.305 N 
ATOM     18  H   UNL     1       6.298  -3.436  21.449  0.00  0.00    +0.149 HD
ATOM     19  O   UNL     1       7.660  -6.096  22.525  0.00  0.00    -0.276 OA
ENDBRANCH   1  17
BRANCH   4  20
ATOM     20  C   UNL     1       5.930   0.388  24.828  0.00  0.00    +0.372 C 
ATOM     21  O   UNL     1       4.810   0.477  25.299  0.00  0.00    -0.242 OA
BRANCH  20  22
ATOM     22  O   UNL     1       6.783   1.435  24.733  0.00  0.00    -0.475 OA
ATOM     23  H   UNL     1       7.416   1.275  24.004  0.00  0.00    +0.296 HD
ENDBRANCH  20  22
ENDBRANCH   4  20
BRANCH   2  24
ATOM     24  C   UNL     1       9.540  -1.567  23.010  0.00  0.00    +0.187 C 
BRANCH  24  25
ATOM     25  O   UNL     1       9.865  -1.937  24.349  0.00  0.00    -0.385 OA
ATOM     26  H   UNL     1      10.346  -2.785  24.304  0.00  0.00    +0.210 HD
ENDBRANCH  24  25
BRANCH  24  27
ATOM     27  C   UNL     1      10.004  -0.122  22.742  0.00  0.00    +0.172 C 
BRANCH  27  28
ATOM     28  O   UNL     1       9.552   0.700  23.846  0.00  0.00    -0.387 OA
ATOM     29  H   UNL     1       8.623   0.938  23.674  0.00  0.00    +0.210 HD
ENDBRANCH  27  28
BRANCH  27  30
ATOM     30  C   UNL     1       9.450   0.520  21.466  0.00  0.00    +0.189 C 
BRANCH  30  31
ATOM     31  O   UNL     1       9.796   1.908  21.457  0.00  0.00    -0.392 OA
ATOM     32  H   UNL     1      10.693   1.941  21.079  0.00  0.00    +0.210 HD
ENDBRANCH  30  31
ENDBRANCH  27  30
ENDBRANCH  24  27
ENDBRANCH   2  24
TORSDOF 10
ENDMDL
MODEL 3
REMARK VINA RESULT:      -5.8      2.541      5.753
REMARK  Name = 
REMARK  11 active torsions:
REMARK  status: ('A' for Active; 'I' for Inactive)
REMARK    1  A    between atoms: C_1  and  C_2
REMARK    2  A    between atoms: N_4  and  C_5
REMARK    3  A    between atoms: C_7  and  N_25
REMARK    4  A    between atoms: C_10  and  C_22
REMARK    5  A    between atoms: C_12  and  C_14
REMARK    6  A    between atoms: C_14  and  C_16
REMARK    7  A    between atoms: C_14  and  O_21
REMARK    8  A    between atoms: C_16  and  C_18
REMARK    9  A    between atoms: C_16  and  O_20
REMARK   10  A    between atoms: C_18  and  O_19
REMARK   11  A    between atoms: C_22  and  O_24
REMARK                            x       y       z     vdW  Elec       q    Type
REMARK                         _______ _______ _______ _____ _____    ______ ____
ROOT
ATOM      1  C   UNL     1       6.959  -1.895  24.090  0.00  0.00    +0.160 C 
ATOM      2  C   UNL     1       6.454  -3.091  24.944  0.00  0.00    +0.229 C 
ATOM      3  O   UNL     1       5.718  -4.108  24.249  0.00  0.00    -0.477 OA
ATOM      4  C   UNL     1       6.083  -4.385  22.952  0.00  0.00    +0.204 C 
ATOM      5  C   UNL     1       6.819  -3.578  22.183  0.00  0.00    +0.071 C 
ATOM      6  C   UNL     1       7.305  -2.241  22.619  0.00  0.00    +0.238 C 
ENDROOT
BRANCH   6   7
ATOM      7  N   UNL     1       8.763  -2.200  22.457  0.00  0.00    -0.104 NA
ATOM      8  C   UNL     1       9.345  -1.132  22.059  0.00  0.00    +0.377 C 
ATOM      9  N   UNL     1      10.674  -1.154  21.862  0.00  0.00    -0.289 N 
ATOM     10  H   UNL     1      11.221  -0.318  21.755  0.00  0.00    +0.255 HD
ATOM     11  H   UNL     1      11.150  -2.012  22.101  0.00  0.00    +0.255 HD
ATOM     12  N   UNL     1       8.825   0.072  21.736  0.00  0.00    -0.289 N 
ATOM     13  H   UNL     1       9.389   0.879  21.955  0.00  0.00    +0.255 HD
ATOM     14  H   UNL     1       7.845   0.221  21.937  0.00  0.00    +0.255 HD
ENDBRANCH   6   7
BRANCH   1  17
ATOM     15  C   UNL     1       5.328   1.549  24.431  0.00  0.00    +0.109 C 
ATOM     16  C   UNL     1       6.459   0.558  24.385  0.00  0.00    +0.210 C 
ATOM     17  N   UNL     1       6.039  -0.737  24.203  0.00  0.00    -0.305 N 
ATOM     18  H   UNL     1       5.049  -0.917  24.093  0.00  0.00    +0.149 HD
ATOM     19  O   UNL     1       7.632   0.890  24.485  0.00  0.00    -0.276 OA
ENDBRANCH   1  17
BRANCH   4  20
ATOM     20  C   UNL     1       5.563  -5.646  22.335  0.00  0.00    +0.372 C 
ATOM     21  O   UNL     1       5.603  -5.932  21.152  0.00  0.00    -0.242 OA
BRANCH  20  22
ATOM     22  O   UNL     1       5.018  -6.451  23.277  0.00  0.00    -0.475 OA
ATOM     23  H   UNL     1       4.778  -7.310  22.873  0.00  0.00    +0.296 HD
ENDBRANCH  20  22
ENDBRANCH   4  20
BRANCH   2  24
ATOM     24  C   UNL     1       7.587  -3.679  25.828  0.00  0.00    +0.187 C 
BRANCH  24  25
ATOM     25  O   UNL     1       8.817  -2.977  25.658  0.00  0.00    -0.385 OA
ATOM     26  H   UNL     1       9.132  -2.730  26.548  0.00  0.00    +0.210 HD
ENDBRANCH  24  25
BRANCH  24  27
ATOM     27  C   UNL     1       7.824  -5.192  25.655  0.00  0.00    +0.172 C 
BRANCH  27  28
ATOM     28  O   UNL     1       7.983  -5.769  26.975  0.00  0.00    -0.387 OA
ATOM     29  H   UNL     1       8.905  -5.619  27.251  0.00  0.00    +0.210 HD
ENDBRANCH  27  28
BRANCH  27  30
ATOM     30  C   UNL     1       9.076  -5.575  24.859  0.00  0.00    +0.189 C 
BRANCH  30  31
ATOM     31  O   UNL     1      10.204  -5.570  25.737  0.00  0.00    -0.392 OA
ATOM     32  H   UNL     1      10.625  -4.702  25.601  0.00  0.00    +0.210 HD
ENDBRANCH  30  31
ENDBRANCH  27  30
ENDBRANCH  24  27
ENDBRANCH   2  24
TORSDOF 10
ENDMDL
MODEL 4
REMARK VINA RESULT:      -5.7      2.391      4.736
REMARK  Name = 
REMARK  11 active torsions:
REMARK  status: ('A' for Active; 'I' for Inactive)
REMARK    1  A    between atoms: C_1  and  C_2
REMARK    2  A    between atoms: N_4  and  C_5
REMARK    3  A    between atoms: C_7  and  N_25
REMARK    4  A    between atoms: C_10  and  C_22
REMARK    5  A    between atoms: C_12  and  C_14
REMARK    6  A    between atoms: C_14  and  C_16
REMARK    7  A    between atoms: C_14  and  O_21
REMARK    8  A    between atoms: C_16  and  C_18
REMARK    9  A    between atoms: C_16  and  O_20
REMARK   10  A    between atoms: C_18  and  O_19
REMARK   11  A    between atoms: C_22  and  O_24
REMARK                            x       y       z     vdW  Elec       q    Type
REMARK                         _______ _______ _______ _____ _____    ______ ____
ROOT
ATOM      1  C   UNL     1       6.492  -3.812  24.708  0.00  0.00    +0.160 C 
ATOM      2  C   UNL     1       5.816  -3.317  23.399  0.00  0.00    +0.229 C 
ATOM      3  O   UNL     1       5.952  -1.922  23.096  0.00  0.00    -0.477 OA
ATOM      4  C   UNL     1       7.127  -1.303  23.458  0.00  0.00    +0.204 C 
ATOM      5  C   UNL     1       7.996  -1.788  24.349  0.00  0.00    +0.071 C 
ATOM      6  C   UNL     1       7.781  -3.050  25.108  0.00  0.00    +0.238 C 
ENDROOT
BRANCH   6   7
ATOM      7  N   UNL     1       8.935  -3.928  24.885  0.00  0.00    -0.104 NA
ATOM      8  C   UNL     1       9.245  -4.827  25.741  0.00  0.00    +0.377 C 
ATOM      9  N   UNL     1      10.345  -5.569  25.532  0.00  0.00    -0.289 N 
ATOM     10  H   UNL     1      10.534  -6.416  26.039  0.00  0.00    +0.255 HD
ATOM     11  H   UNL     1      10.838  -5.408  24.665  0.00  0.00    +0.255 HD
ATOM     12  N   UNL     1       8.655  -5.151  26.912  0.00  0.00    -0.289 N 
ATOM     13  H   UNL     1       8.673  -6.126  27.171  0.00  0.00    +0.255 HD
ATOM     14  H   UNL     1       7.767  -4.714  27.119  0.00  0.00    +0.255 HD
ENDBRANCH   6   7
BRANCH   1  17
ATOM     15  C   UNL     1       4.216  -4.847  27.603  0.00  0.00    +0.109 C 
ATOM     16  C   UNL     1       5.222  -5.045  26.503  0.00  0.00    +0.210 C 
ATOM     17  N   UNL     1       5.508  -3.891  25.815  0.00  0.00    -0.305 N 
ATOM     18  H   UNL     1       5.061  -3.030  26.102  0.00  0.00    +0.149 HD
ATOM     19  O   UNL     1       5.739  -6.129  26.268  0.00  0.00    -0.276 OA
ENDBRANCH   1  17
BRANCH   4  20
ATOM     20  C   UNL     1       7.420   0.040  22.864  0.00  0.00    +0.372 C 
ATOM     21  O   UNL     1       8.519   0.452  22.538  0.00  0.00    -0.242 OA
BRANCH  20  22
ATOM     22  O   UNL     1       6.284   0.766  22.737  0.00  0.00    -0.475 OA
ATOM     23  H   UNL     1       6.491   1.623  22.311  0.00  0.00    +0.296 HD
ENDBRANCH  20  22
ENDBRANCH   4  20
BRANCH   2  24
ATOM     24  C   UNL     1       6.179  -4.223  22.192  0.00  0.00    +0.187 C 
BRANCH  24  25
ATOM     25  O   UNL     1       5.601  -3.750  20.976  0.00  0.00    -0.385 OA
ATOM     26  H   UNL     1       5.072  -4.483  20.606  0.00  0.00    +0.210 HD
ENDBRANCH  24  25
BRANCH  24  27
ATOM     27  C   UNL     1       5.845  -5.716  22.379  0.00  0.00    +0.172 C 
BRANCH  27  28
ATOM     28  O   UNL     1       5.891  -6.348  21.076  0.00  0.00    -0.387 OA
ATOM     29  H   UNL     1       5.467  -5.742  20.441  0.00  0.00    +0.210 HD
ENDBRANCH  27  28
BRANCH  27  30
ATOM     30  C   UNL     1       4.457  -6.012  22.958  0.00  0.00    +0.189 C 
BRANCH  30  31
ATOM     31  O   UNL     1       4.522  -7.215  23.728  0.00  0.00    -0.392 OA
ATOM     32  H   UNL     1       5.473  -7.412  23.806  0.00  0.00    +0.210 HD
ENDBRANCH  30  31
ENDBRANCH  27  30
ENDBRANCH  24  27
ENDBRANCH   2  24
TORSDOF 10
ENDMDL
MODEL 5
REMARK VINA RESULT:      -5.7      2.592      5.726
REMARK  Name = 
REMARK  11 active torsions:
REMARK  status: ('A' for Active; 'I' for Inactive)
REMARK    1  A    between atoms: C_1  and  C_2
REMARK    2  A    between atoms: N_4  and  C_5
REMARK    3  A    between atoms: C_7  and  N_25
REMARK    4  A    between atoms: C_10  and  C_22
REMARK    5  A    between atoms: C_12  and  C_14
REMARK    6  A    between atoms: C_14  and  C_16
REMARK    7  A    between atoms: C_14  and  O_21
REMARK    8  A    between atoms: C_16  and  C_18
REMARK    9  A    between atoms: C_16  and  O_20
REMARK   10  A    between atoms: C_18  and  O_19
REMARK   11  A    between atoms: C_22  and  O_24
REMARK                            x       y       z     vdW  Elec       q    Type
REMARK                         _______ _______ _______ _____ _____    ______ ____
ROOT
ATOM      1  C   UNL     1       7.776  -1.544  23.218  0.00  0.00    +0.160 C 
ATOM      2  C   UNL     1       7.860  -2.950  22.562  0.00  0.00    +0.229 C 
ATOM      3  O   UNL     1       8.585  -3.953  23.287  0.00  0.00    -0.477 OA
ATOM      4  C   UNL     1       8.524  -3.915  24.660  0.00  0.00    +0.204 C 
ATOM      5  C   UNL     1       8.138  -2.853  25.373  0.00  0.00    +0.071 C 
ATOM      6  C   UNL     1       7.767  -1.545  24.768  0.00  0.00    +0.238 C 
ENDROOT
BRANCH   6   7
ATOM      7  N   UNL     1       6.421  -1.185  25.231  0.00  0.00    -0.104 NA
ATOM      8  C   UNL     1       6.149   0.018  25.571  0.00  0.00    +0.377 C 
ATOM      9  N   UNL     1       4.925   0.295  26.049  0.00  0.00    -0.289 N 
ATOM     10  H   UNL     1       4.575   1.233  26.138  0.00  0.00    +0.255 HD
ATOM     11  H   UNL     1       4.262  -0.468  26.055  0.00  0.00    +0.255 HD
ATOM     12  N   UNL     1       6.935   1.116  25.581  0.00  0.00    -0.289 N 
ATOM     13  H   UNL     1       6.486   1.993  25.364  0.00  0.00    +0.255 HD
ATOM     14  H   UNL     1       7.849   1.035  25.155  0.00  0.00    +0.255 HD
ENDBRANCH   6   7
BRANCH   1  17
ATOM     15  C   UNL     1       9.787   1.401  21.831  0.00  0.00    +0.109 C 
ATOM     16  C   UNL     1       8.571   0.688  22.357  0.00  0.00    +0.210 C 
ATOM     17  N   UNL     1       8.802  -0.633  22.654  0.00  0.00    -0.305 N 
ATOM     18  H   UNL     1       9.735  -1.004  22.527  0.00  0.00    +0.149 HD
ATOM     19  O   UNL     1       7.495   1.248  22.515  0.00  0.00    -0.276 OA
ENDBRANCH   1  17
BRANCH   4  20
ATOM     20  C   UNL     1       8.986  -5.124  25.413  0.00  0.00    +0.372 C 
ATOM     21  O   UNL     1       8.300  -5.816  26.144  0.00  0.00    -0.242 OA
BRANCH  20  22
ATOM     22  O   UNL     1      10.300  -5.358  25.184  0.00  0.00    -0.475 OA
ATOM     23  H   UNL     1      10.627  -4.738  24.501  0.00  0.00    +0.296 HD
ENDBRANCH  20  22
ENDBRANCH   4  20
BRANCH   2  24
ATOM     24  C   UNL     1       6.465  -3.447  22.097  0.00  0.00    +0.187 C 
BRANCH  24  25
ATOM     25  O   UNL     1       5.428  -3.036  22.987  0.00  0.00    -0.385 OA
ATOM     26  H   UNL     1       5.785  -2.305  23.526  0.00  0.00    +0.210 HD
ENDBRANCH  24  25
BRANCH  24  27
ATOM     27  C   UNL     1       6.367  -4.965  21.852  0.00  0.00    +0.172 C 
BRANCH  27  28
ATOM     28  O   UNL     1       5.921  -5.167  20.488  0.00  0.00    -0.387 OA
ATOM     29  H   UNL     1       5.479  -4.348  20.201  0.00  0.00    +0.210 HD
ENDBRANCH  27  28
BRANCH  27  30
ATOM     30  C   UNL     1       5.376  -5.714  22.750  0.00  0.00    +0.189 C 
BRANCH  30  31
ATOM     31  O   UNL     1       5.883  -5.734  24.086  0.00  0.00    -0.392 OA
ATOM     32  H   UNL     1       6.826  -5.505  24.001  0.00  0.00    +0.210 HD
ENDBRANCH  30  31
ENDBRANCH  27  30
ENDBRANCH  24  27
ENDBRANCH   2  24
TORSDOF 10
ENDMDL
MODEL 6
REMARK VINA RESULT:      -5.6      1.739      2.194
REMARK  Name = 
REMARK  11 active torsions:
REMARK  status: ('A' for Active; 'I' for Inactive)
REMARK    1  A    between atoms: C_1  and  C_2
REMARK    2  A    between atoms: N_4  and  C_5
REMARK    3  A    between atoms: C_7  and  N_25
REMARK    4  A    between atoms: C_10  and  C_22
REMARK    5  A    between atoms: C_12  and  C_14
REMARK    6  A    between atoms: C_14  and  C_16
REMARK    7  A    between atoms: C_14  and  O_21
REMARK    8  A    between atoms: C_16  and  C_18
REMARK    9  A    between atoms: C_16  and  O_20
REMARK   10  A    between atoms: C_18  and  O_19
REMARK   11  A    between atoms: C_22  and  O_24
REMARK                            x       y       z     vdW  Elec       q    Type
REMARK                         _______ _______ _______ _____ _____    ______ ____
ROOT
ATOM      1  C   UNL     1       6.766  -2.943  23.986  0.00  0.00    +0.160 C 
ATOM      2  C   UNL     1       6.851  -1.434  23.626  0.00  0.00    +0.229 C 
ATOM      3  O   UNL     1       6.805  -0.511  24.723  0.00  0.00    -0.477 OA
ATOM      4  C   UNL     1       7.390  -0.898  25.907  0.00  0.00    +0.204 C 
ATOM      5  C   UNL     1       7.691  -2.160  26.226  0.00  0.00    +0.071 C 
ATOM      6  C   UNL     1       7.387  -3.326  25.354  0.00  0.00    +0.238 C 
ENDROOT
BRANCH   6   7
ATOM      7  N   UNL     1       8.633  -4.064  25.115  0.00  0.00    -0.104 NA
ATOM      8  C   UNL     1       8.897  -5.127  25.776  0.00  0.00    +0.377 C 
ATOM      9  N   UNL     1      10.075  -5.740  25.574  0.00  0.00    -0.289 N 
ATOM     10  H   UNL     1      10.265  -6.674  25.893  0.00  0.00    +0.255 HD
ATOM     11  H   UNL     1      10.668  -5.348  24.855  0.00  0.00    +0.255 HD
ATOM     12  N   UNL     1       8.181  -5.755  26.734  0.00  0.00    -0.289 N 
ATOM     13  H   UNL     1       8.247  -6.762  26.758  0.00  0.00    +0.255 HD
ATOM     14  H   UNL     1       7.238  -5.427  26.896  0.00  0.00    +0.255 HD
ENDBRANCH   6   7
BRANCH   1  17
ATOM     15  C   UNL     1       3.597  -5.001  23.387  0.00  0.00    +0.109 C 
ATOM     16  C   UNL     1       5.076  -4.731  23.438  0.00  0.00    +0.210 C 
ATOM     17  N   UNL     1       5.381  -3.449  23.826  0.00  0.00    -0.305 N 
ATOM     18  H   UNL     1       4.626  -2.820  24.062  0.00  0.00    +0.149 HD
ATOM     19  O   UNL     1       5.912  -5.584  23.173  0.00  0.00    -0.276 OA
ENDBRANCH   1  17
BRANCH   4  20
ATOM     20  C   UNL     1       7.644   0.158  26.937  0.00  0.00    +0.372 C 
ATOM     21  O   UNL     1       7.000   1.182  27.085  0.00  0.00    -0.242 OA
BRANCH  20  22
ATOM     22  O   UNL     1       8.712  -0.166  27.703  0.00  0.00    -0.475 OA
ATOM     23  H   UNL     1       8.516   0.037  28.640  0.00  0.00    +0.296 HD
ENDBRANCH  20  22
ENDBRANCH   4  20
BRANCH   2  24
ATOM     24  C   UNL     1       8.029  -1.144  22.657  0.00  0.00    +0.187 C 
BRANCH  24  25
ATOM     25  O   UNL     1       9.110  -2.056  22.841  0.00  0.00    -0.385 OA
ATOM     26  H   UNL     1       8.732  -2.880  23.203  0.00  0.00    +0.210 HD
ENDBRANCH  24  25
BRANCH  24  27
ATOM     27  C   UNL     1       8.557   0.304  22.696  0.00  0.00    +0.172 C 
BRANCH  27  28
ATOM     28  O   UNL     1       7.458   1.187  22.363  0.00  0.00    -0.387 OA
ATOM     29  H   UNL     1       6.705   0.629  22.095  0.00  0.00    +0.210 HD
ENDBRANCH  27  28
BRANCH  27  30
ATOM     30  C   UNL     1       9.684   0.619  21.706  0.00  0.00    +0.189 C 
BRANCH  30  31
ATOM     31  O   UNL     1       9.649   2.013  21.391  0.00  0.00    -0.392 OA
ATOM     32  H   UNL     1      10.250   2.115  20.631  0.00  0.00    +0.210 HD
ENDBRANCH  30  31
ENDBRANCH  27  30
ENDBRANCH  24  27
ENDBRANCH   2  24
TORSDOF 10
ENDMDL
MODEL 7
REMARK VINA RESULT:      -5.6      2.525      5.835
REMARK  Name = 
REMARK  11 active torsions:
REMARK  status: ('A' for Active; 'I' for Inactive)
REMARK    1  A    between atoms: C_1  and  C_2
REMARK    2  A    between atoms: N_4  and  C_5
REMARK    3  A    between atoms: C_7  and  N_25
REMARK    4  A    between atoms: C_10  and  C_22
REMARK    5  A    between atoms: C_12  and  C_14
REMARK    6  A    between atoms: C_14  and  C_16
REMARK    7  A    between atoms: C_14  and  O_21
REMARK    8  A    between atoms: C_16  and  C_18
REMARK    9  A    between atoms: C_16  and  O_20
REMARK   10  A    between atoms: C_18  and  O_19
REMARK   11  A    between atoms: C_22  and  O_24
REMARK                            x       y       z     vdW  Elec       q    Type
REMARK                         _______ _______ _______ _____ _____    ______ ____
ROOT
ATOM      1  C   UNL     1       7.471  -1.506  24.228  0.00  0.00    +0.160 C 
ATOM      2  C   UNL     1       7.671  -2.962  24.732  0.00  0.00    +0.229 C 
ATOM      3  O   UNL     1       7.108  -4.004  23.922  0.00  0.00    -0.477 OA
ATOM      4  C   UNL     1       7.102  -3.817  22.559  0.00  0.00    +0.204 C 
ATOM      5  C   UNL     1       7.258  -2.636  21.955  0.00  0.00    +0.071 C 
ATOM      6  C   UNL     1       7.414  -1.350  22.687  0.00  0.00    +0.238 C 
ENDROOT
BRANCH   6   7
ATOM      7  N   UNL     1       8.651  -0.704  22.233  0.00  0.00    -0.104 NA
ATOM      8  C   UNL     1       8.672   0.546  21.962  0.00  0.00    +0.377 C 
ATOM      9  N   UNL     1       9.807   1.088  21.490  0.00  0.00    -0.289 N 
ATOM     10  H   UNL     1       9.961   2.080  21.453  0.00  0.00    +0.255 HD
ATOM     11  H   UNL     1      10.607   0.474  21.431  0.00  0.00    +0.255 HD
ATOM     12  N   UNL     1       7.684   1.465  22.025  0.00  0.00    -0.289 N 
ATOM     13  H   UNL     1       7.955   2.400  22.289  0.00  0.00    +0.255 HD
ATOM     14  H   UNL     1       6.814   1.180  22.455  0.00  0.00    +0.255 HD
ENDBRANCH   6   7
BRANCH   1  17
ATOM     15  C   UNL     1       5.003   0.876  25.921  0.00  0.00    +0.109 C 
ATOM     16  C   UNL     1       6.298   0.462  25.278  0.00  0.00    +0.210 C 
ATOM     17  N   UNL     1       6.324  -0.861  24.911  0.00  0.00    -0.305 N 
ATOM     18  H   UNL     1       5.499  -1.426  25.069  0.00  0.00    +0.149 HD
ATOM     19  O   UNL     1       7.222   1.243  25.092  0.00  0.00    -0.276 OA
ENDBRANCH   1  17
BRANCH   4  20
ATOM     20  C   UNL     1       6.833  -5.009  21.693  0.00  0.00    +0.372 C 
ATOM     21  O   UNL     1       6.058  -5.049  20.754  0.00  0.00    -0.242 OA
BRANCH  20  22
ATOM     22  O   UNL     1       7.569  -6.071  22.097  0.00  0.00    -0.475 OA
ATOM     23  H   UNL     1       7.457  -6.806  21.460  0.00  0.00    +0.296 HD
ENDBRANCH  20  22
ENDBRANCH   4  20
BRANCH   2  24
ATOM     24  C   UNL     1       9.152  -3.239  25.107  0.00  0.00    +0.187 C 
BRANCH  24  25
ATOM     25  O   UNL     1      10.032  -3.013  24.008  0.00  0.00    -0.385 OA
ATOM     26  H   UNL     1      10.876  -3.457  24.220  0.00  0.00    +0.210 HD
ENDBRANCH  24  25
BRANCH  24  27
ATOM     27  C   UNL     1       9.418  -4.632  25.708  0.00  0.00    +0.172 C 
BRANCH  27  28
ATOM     28  O   UNL     1       9.391  -5.595  24.626  0.00  0.00    -0.387 OA
ATOM     29  H   UNL     1       9.591  -6.470  25.006  0.00  0.00    +0.210 HD
ENDBRANCH  27  28
BRANCH  27  30
ATOM     30  C   UNL     1       8.392  -5.110  26.742  0.00  0.00    +0.189 C 
BRANCH  30  31
ATOM     31  O   UNL     1       7.481  -6.013  26.109  0.00  0.00    -0.392 OA
ATOM     32  H   UNL     1       6.598  -5.723  26.398  0.00  0.00    +0.210 HD
ENDBRANCH  30  31
ENDBRANCH  27  30
ENDBRANCH  24  27
ENDBRANCH   2  24
TORSDOF 10
ENDMDL
MODEL 8
REMARK VINA RESULT:      -5.4      2.210      5.392
REMARK  Name = 
REMARK  11 active torsions:
REMARK  status: ('A' for Active; 'I' for Inactive)
REMARK    1  A    between atoms: C_1  and  C_2
REMARK    2  A    between atoms: N_4  and  C_5
REMARK    3  A    between atoms: C_7  and  N_25
REMARK    4  A    between atoms: C_10  and  C_22
REMARK    5  A    between atoms: C_12  and  C_14
REMARK    6  A    between atoms: C_14  and  C_16
REMARK    7  A    between atoms: C_14  and  O_21
REMARK    8  A    between atoms: C_16  and  C_18
REMARK    9  A    between atoms: C_16  and  O_20
REMARK   10  A    between atoms: C_18  and  O_19
REMARK   11  A    between atoms: C_22  and  O_24
REMARK                            x       y       z     vdW  Elec       q    Type
REMARK                         _______ _______ _______ _____ _____    ______ ____
ROOT
ATOM      1  C   UNL     1       7.826  -2.596  23.872  0.00  0.00    +0.160 C 
ATOM      2  C   UNL     1       6.583  -2.354  22.972  0.00  0.00    +0.229 C 
ATOM      3  O   UNL     1       6.376  -3.286  21.902  0.00  0.00    -0.477 OA
ATOM      4  C   UNL     1       6.736  -4.596  22.119  0.00  0.00    +0.204 C 
ATOM      5  C   UNL     1       7.557  -5.005  23.090  0.00  0.00    +0.071 C 
ATOM      6  C   UNL     1       8.230  -4.083  24.044  0.00  0.00    +0.238 C 
ENDROOT
BRANCH   6   7
ATOM      7  N   UNL     1       7.902  -4.506  25.410  0.00  0.00    -0.104 NA
ATOM      8  C   UNL     1       8.634  -5.358  26.023  0.00  0.00    +0.377 C 
ATOM      9  N   UNL     1       8.264  -5.766  27.248  0.00  0.00    -0.289 N 
ATOM     10  H   UNL     1       8.883  -6.263  27.865  0.00  0.00    +0.255 HD
ATOM     11  H   UNL     1       7.446  -5.323  27.642  0.00  0.00    +0.255 HD
ATOM     12  N   UNL     1       9.752  -5.994  25.614  0.00  0.00    -0.289 N 
ATOM     13  H   UNL     1      10.445  -6.185  26.322  0.00  0.00    +0.255 HD
ATOM     14  H   UNL     1      10.165  -5.691  24.742  0.00  0.00    +0.255 HD
ENDBRANCH   6   7
BRANCH   1  17
ATOM     15  C   UNL     1      10.368   0.203  23.292  0.00  0.00    +0.109 C 
ATOM     16  C   UNL     1       9.113  -0.429  23.827  0.00  0.00    +0.210 C 
ATOM     17  N   UNL     1       8.962  -1.741  23.449  0.00  0.00    -0.305 N 
ATOM     18  H   UNL     1       9.685  -2.172  22.888  0.00  0.00    +0.149 HD
ATOM     19  O   UNL     1       8.322   0.174  24.540  0.00  0.00    -0.276 OA
ENDBRANCH   1  17
BRANCH   4  20
ATOM     20  C   UNL     1       6.229  -5.627  21.159  0.00  0.00    +0.372 C 
ATOM     21  O   UNL     1       5.982  -5.445  19.980  0.00  0.00    -0.242 OA
BRANCH  20  22
ATOM     22  O   UNL     1       6.065  -6.819  21.778  0.00  0.00    -0.475 OA
ATOM     23  H   UNL     1       5.564  -6.689  22.609  0.00  0.00    +0.296 HD
ENDBRANCH  20  22
ENDBRANCH   4  20
BRANCH   2  24
ATOM     24  C   UNL     1       5.301  -2.130  23.819  0.00  0.00    +0.187 C 
BRANCH  24  25
ATOM     25  O   UNL     1       5.453  -1.057  24.746  0.00  0.00    -0.385 OA
ATOM     26  H   UNL     1       4.611  -0.562  24.753  0.00  0.00    +0.210 HD
ENDBRANCH  24  25
BRANCH  24  27
ATOM     27  C   UNL     1       4.784  -3.382  24.554  0.00  0.00    +0.172 C 
BRANCH  27  28
ATOM     28  O   UNL     1       3.828  -4.042  23.688  0.00  0.00    -0.387 OA
ATOM     29  H   UNL     1       3.226  -3.360  23.342  0.00  0.00    +0.210 HD
ENDBRANCH  27  28
BRANCH  27  30
ATOM     30  C   UNL     1       4.059  -3.115  25.878  0.00  0.00    +0.189 C 
BRANCH  30  31
ATOM     31  O   UNL     1       2.881  -2.348  25.615  0.00  0.00    -0.392 OA
ATOM     32  H   UNL     1       3.185  -1.423  25.580  0.00  0.00    +0.210 HD
ENDBRANCH  30  31
ENDBRANCH  27  30
ENDBRANCH  24  27
ENDBRANCH   2  24
TORSDOF 10
ENDMDL
MODEL 9
REMARK VINA RESULT:      -5.3      4.502      7.284
REMARK  Name = 
REMARK  11 active torsions:
REMARK  status: ('A' for Active; 'I' for Inactive)
REMARK    1  A    between atoms: C_1  and  C_2
REMARK    2  A    between atoms: N_4  and  C_5
REMARK    3  A    between atoms: C_7  and  N_25
REMARK    4  A    between atoms: C_10  and  C_22
REMARK    5  A    between atoms: C_12  and  C_14
REMARK    6  A    between atoms: C_14  and  C_16
REMARK    7  A    between atoms: C_14  and  O_21
REMARK    8  A    between atoms: C_16  and  C_18
REMARK    9  A    between atoms: C_16  and  O_20
REMARK   10  A    between atoms: C_18  and  O_19
REMARK   11  A    between atoms: C_22  and  O_24
REMARK                            x       y       z     vdW  Elec       q    Type
REMARK                         _______ _______ _______ _____ _____    ______ ____
ROOT
ATOM      1  C   UNL     1       6.339  -4.130  26.964  0.00  0.00    +0.160 C 
ATOM      2  C   UNL     1       5.199  -4.752  27.817  0.00  0.00    +0.229 C 
ATOM      3  O   UNL     1       4.213  -5.516  27.110  0.00  0.00    -0.477 OA
ATOM      4  C   UNL     1       4.631  -6.239  26.017  0.00  0.00    +0.204 C 
ATOM      5  C   UNL     1       5.778  -6.032  25.365  0.00  0.00    +0.071 C 
ATOM      6  C   UNL     1       6.740  -4.950  25.711  0.00  0.00    +0.238 C 
ENDROOT
BRANCH   6   7
ATOM      7  N   UNL     1       8.055  -5.556  25.946  0.00  0.00    -0.104 NA
ATOM      8  C   UNL     1       9.111  -5.038  25.440  0.00  0.00    +0.377 C 
ATOM      9  N   UNL     1      10.288  -5.657  25.626  0.00  0.00    -0.289 N 
ATOM     10  H   UNL     1      11.171  -5.213  25.442  0.00  0.00    +0.255 HD
ATOM     11  H   UNL     1      10.277  -6.479  26.214  0.00  0.00    +0.255 HD
ATOM     12  N   UNL     1       9.255  -3.941  24.666  0.00  0.00    -0.289 N 
ATOM     13  H   UNL     1      10.101  -3.407  24.796  0.00  0.00    +0.255 HD
ATOM     14  H   UNL     1       8.442  -3.352  24.543  0.00  0.00    +0.255 HD
ENDBRANCH   6   7
BRANCH   1  17
ATOM     15  C   UNL     1       6.466  -0.389  26.176  0.00  0.00    +0.109 C 
ATOM     16  C   UNL     1       7.018  -1.740  26.540  0.00  0.00    +0.210 C 
ATOM     17  N   UNL     1       6.051  -2.710  26.649  0.00  0.00    -0.305 N 
ATOM     18  H   UNL     1       5.089  -2.461  26.460  0.00  0.00    +0.149 HD
ATOM     19  O   UNL     1       8.213  -1.943  26.703  0.00  0.00    -0.276 OA
ENDBRANCH   1  17
BRANCH   4  20
ATOM     20  C   UNL     1       3.706  -7.286  25.478  0.00  0.00    +0.372 C 
ATOM     21  O   UNL     1       3.702  -7.718  24.339  0.00  0.00    -0.242 OA
BRANCH  20  22
ATOM     22  O   UNL     1       2.842  -7.701  26.434  0.00  0.00    -0.475 OA
ATOM     23  H   UNL     1       2.397  -8.521  26.138  0.00  0.00    +0.296 HD
ENDBRANCH  20  22
ENDBRANCH   4  20
BRANCH   2  24
ATOM     24  C   UNL     1       5.758  -5.506  29.053  0.00  0.00    +0.187 C 
BRANCH  24  25
ATOM     25  O   UNL     1       6.890  -6.309  28.722  0.00  0.00    -0.385 OA
ATOM     26  H   UNL     1       7.607  -5.700  28.460  0.00  0.00    +0.210 HD
ENDBRANCH  24  25
BRANCH  24  27
ATOM     27  C   UNL     1       4.724  -6.357  29.815  0.00  0.00    +0.172 C 
BRANCH  27  28
ATOM     28  O   UNL     1       4.473  -7.553  29.036  0.00  0.00    -0.387 OA
ATOM     29  H   UNL     1       3.633  -7.936  29.350  0.00  0.00    +0.210 HD
ENDBRANCH  27  28
BRANCH  27  30
ATOM     30  C   UNL     1       3.362  -5.691  30.041  0.00  0.00    +0.189 C 
BRANCH  30  31
ATOM     31  O   UNL     1       2.390  -6.328  29.208  0.00  0.00    -0.392 OA
ATOM     32  H   UNL     1       2.344  -5.777  28.407  0.00  0.00    +0.210 HD
ENDBRANCH  30  31
ENDBRANCH  27  30
ENDBRANCH  24  27
ENDBRANCH   2  24
TORSDOF 10
ENDMDL
