MODEL 1
REMARK VINA RESULT:      -6.7      0.000      0.000
REMARK  Name = 
REMARK  18 active torsions:
REMARK  status: ('A' for Active; 'I' for Inactive)
REMARK    1  A    between atoms: C_1  and  C_2
REMARK    2  A    between atoms: C_2  and  C_3
REMARK    3  A    between atoms: C_3  and  C_4
REMARK    4  A    between atoms: C_4  and  C_6
REMARK    5  A    between atoms: C_4  and  N_14
REMARK    6  A    between atoms: C_6  and  C_8
REMARK    7  A    between atoms: N_10  and  C_11
REMARK    8  A    between atoms: C_15  and  C_17
REMARK    9  A    between atoms: C_28  and  C_30
REMARK   10  A    between atoms: C_30  and  C_32
REMARK   11  A    between atoms: C_30  and  N_36
REMARK   12  A    between atoms: C_32  and  C_33
REMARK   13  A    between atoms: C_32  and  C_34
REMARK   14  A    between atoms: C_32  and  C_35
REMARK   15  A    between atoms: C_37  and  C_39
REMARK   16  A    between atoms: C_39  and  C_41
REMARK   17  A    between atoms: C_39  and  N_47
REMARK   18  A    between atoms: C_48  and  C_50
REMARK                            x       y       z     vdW  Elec       q    Type
REMARK                         _______ _______ _______ _____ _____    ______ ____
ROOT
ATOM      1  C   UNL     1       7.210   3.518  24.408  0.00  0.00    +0.165 C 
ATOM      2  N   UNL     1       7.018   2.790  23.128  0.00  0.00    -0.288 N 
ATOM      3  C   UNL     1       7.660   1.663  22.591  0.00  0.00    +0.237 C 
ATOM      4  O   UNL     1       7.564   1.445  21.375  0.00  0.00    -0.274 OA
ATOM      5  C   UNL     1       6.358   3.665  22.147  0.00  0.00    +0.112 C 
ATOM      6  C   UNL     1       5.981   4.964  22.843  0.00  0.00    +0.012 C 
ATOM      7  C   UNL     1       6.874   6.162  22.535  0.00  0.00    +0.005 C 
ATOM      8  C   UNL     1       7.122   6.875  23.860  0.00  0.00    +0.001 C 
ATOM      9  C   UNL     1       6.527   6.003  24.959  0.00  0.00    +0.006 C 
ATOM     10  C   UNL     1       6.159   4.669  24.322  0.00  0.00    +0.023 C 
ENDROOT
BRANCH   1  13
ATOM     11  N   UNL     1       5.544   2.618  26.005  0.00  0.00    -0.304 N 
ATOM     12  H   UNL     1       4.859   3.218  25.546  0.00  0.00    +0.149 HD
ATOM     13  C   UNL     1       6.896   2.814  25.756  0.00  0.00    +0.234 C 
ATOM     14  O   UNL     1       7.768   2.360  26.493  0.00  0.00    -0.274 OA
BRANCH  11  15
ATOM     15  C   UNL     1       5.067   1.784  27.121  0.00  0.00    +0.149 C 
BRANCH  15  16
ATOM     16  C   UNL     1       3.955   0.791  26.737  0.00  0.00    +0.237 C 
ATOM     17  O   UNL     1       2.856   1.136  26.299  0.00  0.00    -0.285 OA
BRANCH  16  18
ATOM     18  C   UNL     1       4.262  -0.707  26.756  0.00  0.00    +0.282 C 
ATOM     19  N   UNL     1       4.111  -1.275  28.005  0.00  0.00    -0.306 N 
ATOM     20  H   UNL     1       3.844  -0.648  28.757  0.00  0.00    +0.149 HD
ATOM     21  O   UNL     1       4.596  -1.277  25.730  0.00  0.00    -0.267 OA
BRANCH  19  22
ATOM     22  C   UNL     1       4.360  -2.653  28.297  0.00  0.00    +0.073 C 
ATOM     23  C   UNL     1       3.317  -3.714  28.058  0.00  0.00    +0.024 C 
ATOM     24  C   UNL     1       3.676  -3.326  29.469  0.00  0.00    +0.024 C 
ENDBRANCH  19  22
ENDBRANCH  16  18
ENDBRANCH  15  16
BRANCH  15  25
ATOM     25  C   UNL     1       4.635   2.671  28.304  0.00  0.00    +0.030 C 
BRANCH  25  27
ATOM     26  C   UNL     1       6.155   1.254  29.746  0.00  0.00    +0.004 C 
ATOM     27  C   UNL     1       4.835   2.003  29.670  0.00  0.00    -0.001 C 
ENDBRANCH  25  27
ENDBRANCH  15  25
ENDBRANCH  11  15
ENDBRANCH   1  13
BRANCH   3  28
ATOM     28  C   UNL     1       8.449   0.636  23.485  0.00  0.00    +0.164 C 
BRANCH  28  29
ATOM     29  N   UNL     1       7.891  -0.747  23.441  0.00  0.00    -0.302 N 
ATOM     30  H   UNL     1       7.641  -1.109  22.530  0.00  0.00    +0.150 HD
ATOM     31  C   UNL     1       7.811  -1.658  24.478  0.00  0.00    +0.234 C 
ATOM     32  O   UNL     1       8.133  -1.403  25.635  0.00  0.00    -0.274 OA
BRANCH  31  33
ATOM     33  C   UNL     1       7.424  -3.120  24.092  0.00  0.00    +0.162 C 
BRANCH  33  34
ATOM     34  C   UNL     1       6.688  -3.351  22.738  0.00  0.00    +0.018 C 
ATOM     35  C   UNL     1       5.154  -3.251  22.828  0.00  0.00    +0.006 C 
ATOM     36  C   UNL     1       4.481  -4.495  23.397  0.00  0.00    +0.000 C 
ATOM     37  C   UNL     1       4.966  -5.794  22.769  0.00  0.00    +0.000 C 
ATOM     38  C   UNL     1       6.459  -5.889  22.478  0.00  0.00    +0.000 C 
ATOM     39  C   UNL     1       7.057  -4.604  21.933  0.00  0.00    +0.006 C 
ENDBRANCH  33  34
BRANCH  33  40
ATOM     40  N   UNL     1       6.737  -3.788  25.201  0.00  0.00    -0.298 N 
ATOM     41  H   UNL     1       5.723  -3.792  25.261  0.00  0.00    +0.150 HD
ATOM     42  C   UNL     1       7.385  -4.757  25.947  0.00  0.00    +0.264 C 
ATOM     43  O   UNL     1       8.583  -4.999  25.869  0.00  0.00    -0.268 OA
BRANCH  42  44
ATOM     44  C   UNL     1       6.512  -5.525  26.875  0.00  0.00    +0.143 A 
ATOM     45  C   UNL     1       5.445  -6.258  26.374  0.00  0.00    +0.143 A 
ATOM     46  N   UNL     1       4.637  -6.998  27.176  0.00  0.00    -0.259 NA
ATOM     47  C   UNL     1       4.941  -6.961  28.494  0.00  0.00    +0.130 A 
ATOM     48  C   UNL     1       6.001  -6.218  28.995  0.00  0.00    +0.131 A 
ATOM     49  N   UNL     1       6.818  -5.481  28.205  0.00  0.00    -0.247 NA
ENDBRANCH  42  44
ENDBRANCH  33  40
ENDBRANCH  31  33
ENDBRANCH  28  29
BRANCH  28  50
ATOM     50  C   UNL     1      10.022   0.763  23.353  0.00  0.00    -0.011 C 
ATOM     51  C   UNL     1      10.362   2.136  22.729  0.00  0.00    +0.013 C 
ATOM     52  C   UNL     1      10.552  -0.348  22.417  0.00  0.00    +0.013 C 
ATOM     53  C   UNL     1      10.850   0.650  24.648  0.00  0.00    +0.013 C 
ENDBRANCH  28  50
ENDBRANCH   3  28
TORSDOF 14
ENDMDL
MODEL 2
REMARK VINA RESULT:      -6.5      2.121      9.301
REMARK  Name = 
REMARK  18 active torsions:
REMARK  status: ('A' for Active; 'I' for Inactive)
REMARK    1  A    between atoms: C_1  and  C_2
REMARK    2  A    between atoms: C_2  and  C_3
REMARK    3  A    between atoms: C_3  and  C_4
REMARK    4  A    between atoms: C_4  and  C_6
REMARK    5  A    between atoms: C_4  and  N_14
REMARK    6  A    between atoms: C_6  and  C_8
REMARK    7  A    between atoms: N_10  and  C_11
REMARK    8  A    between atoms: C_15  and  C_17
REMARK    9  A    between atoms: C_28  and  C_30
REMARK   10  A    between atoms: C_30  and  C_32
REMARK   11  A    between atoms: C_30  and  N_36
REMARK   12  A    between atoms: C_32  and  C_33
REMARK   13  A    between atoms: C_32  and  C_34
REMARK   14  A    between atoms: C_32  and  C_35
REMARK   15  A    between atoms: C_37  and  C_39
REMARK   16  A    between atoms: C_39  and  C_41
REMARK   17  A    between atoms: C_39  and  N_47
REMARK   18  A    between atoms: C_48  and  C_50
REMARK                            x       y       z     vdW  Elec       q    Type
REMARK                         _______ _______ _______ _____ _____    ______ ____
ROOT
ATOM      1  C   UNL     1       3.502  -5.568  25.615  0.00  0.00    +0.165 C 
ATOM      2  N   UNL     1       2.663  -4.345  25.711  0.00  0.00    -0.288 N 
ATOM      3  C   UNL     1       2.594  -3.336  26.686  0.00  0.00    +0.237 C 
ATOM      4  O   UNL     1       1.593  -2.606  26.718  0.00  0.00    -0.274 OA
ATOM      5  C   UNL     1       1.467  -4.490  24.869  0.00  0.00    +0.112 C 
ATOM      6  C   UNL     1       1.586  -5.790  24.089  0.00  0.00    +0.012 C 
ATOM      7  C   UNL     1       0.731  -6.947  24.597  0.00  0.00    +0.005 C 
ATOM      8  C   UNL     1       1.612  -8.191  24.557  0.00  0.00    +0.001 C 
ATOM      9  C   UNL     1       3.020  -7.735  24.197  0.00  0.00    +0.006 C 
ATOM     10  C   UNL     1       3.033  -6.214  24.274  0.00  0.00    +0.023 C 
ENDROOT
BRANCH   1  13
ATOM     11  N   UNL     1       5.460  -4.916  24.244  0.00  0.00    -0.304 N 
ATOM     12  H   UNL     1       4.847  -4.986  23.432  0.00  0.00    +0.149 HD
ATOM     13  C   UNL     1       5.042  -5.442  25.460  0.00  0.00    +0.234 C 
ATOM     14  O   UNL     1       5.828  -5.676  26.375  0.00  0.00    -0.274 OA
BRANCH  11  15
ATOM     15  C   UNL     1       6.859  -4.528  24.000  0.00  0.00    +0.149 C 
BRANCH  15  16
ATOM     16  C   UNL     1       7.048  -3.042  23.643  0.00  0.00    +0.237 C 
ATOM     17  O   UNL     1       6.124  -2.228  23.606  0.00  0.00    -0.285 OA
BRANCH  16  18
ATOM     18  C   UNL     1       8.467  -2.498  23.464  0.00  0.00    +0.282 C 
ATOM     19  N   UNL     1       8.555  -1.529  22.484  0.00  0.00    -0.306 N 
ATOM     20  H   UNL     1       7.698  -1.308  21.989  0.00  0.00    +0.149 HD
ATOM     21  O   UNL     1       9.377  -2.923  24.157  0.00  0.00    -0.267 OA
BRANCH  19  22
ATOM     22  C   UNL     1       9.771  -0.880  22.105  0.00  0.00    +0.073 C 
ATOM     23  C   UNL     1      10.375   0.220  22.938  0.00  0.00    +0.024 C 
ATOM     24  C   UNL     1       9.755   0.550  21.605  0.00  0.00    +0.024 C 
ENDBRANCH  19  22
ENDBRANCH  16  18
ENDBRANCH  15  16
BRANCH  15  25
ATOM     25  C   UNL     1       7.488  -5.441  22.931  0.00  0.00    +0.030 C 
BRANCH  25  27
ATOM     26  C   UNL     1       6.169  -5.613  20.779  0.00  0.00    +0.004 C 
ATOM     27  C   UNL     1       6.453  -6.243  22.133  0.00  0.00    -0.001 C 
ENDBRANCH  25  27
ENDBRANCH  15  25
ENDBRANCH  11  15
ENDBRANCH   1  13
BRANCH   3  28
ATOM     28  C   UNL     1       3.765  -3.062  27.700  0.00  0.00    +0.164 C 
BRANCH  28  29
ATOM     29  N   UNL     1       4.373  -1.707  27.558  0.00  0.00    -0.302 N 
ATOM     30  H   UNL     1       3.800  -0.919  27.829  0.00  0.00    +0.150 HD
ATOM     31  C   UNL     1       5.684  -1.399  27.242  0.00  0.00    +0.234 C 
ATOM     32  O   UNL     1       6.530  -2.241  26.949  0.00  0.00    -0.274 OA
BRANCH  31  33
ATOM     33  C   UNL     1       6.111   0.092  27.417  0.00  0.00    +0.162 C 
BRANCH  33  34
ATOM     34  C   UNL     1       5.341   0.958  28.458  0.00  0.00    +0.018 C 
ATOM     35  C   UNL     1       5.322   2.464  28.137  0.00  0.00    +0.006 C 
ATOM     36  C   UNL     1       6.611   3.193  28.495  0.00  0.00    +0.000 C 
ATOM     37  C   UNL     1       7.122   2.881  29.895  0.00  0.00    +0.000 C 
ATOM     38  C   UNL     1       6.998   1.432  30.353  0.00  0.00    +0.000 C 
ATOM     39  C   UNL     1       5.695   0.771  29.940  0.00  0.00    +0.006 C 
ENDBRANCH  33  34
BRANCH  33  40
ATOM     40  N   UNL     1       6.205   0.763  26.118  0.00  0.00    -0.298 N 
ATOM     41  H   UNL     1       5.488   1.416  25.815  0.00  0.00    +0.150 HD
ATOM     42  C   UNL     1       7.420   0.863  25.464  0.00  0.00    +0.264 C 
ATOM     43  O   UNL     1       8.436   0.271  25.807  0.00  0.00    -0.268 OA
BRANCH  42  44
ATOM     44  C   UNL     1       7.429   1.771  24.286  0.00  0.00    +0.143 A 
ATOM     45  C   UNL     1       6.564   1.538  23.226  0.00  0.00    +0.143 A 
ATOM     46  N   UNL     1       6.515   2.354  22.142  0.00  0.00    -0.259 NA
ATOM     47  C   UNL     1       7.372   3.400  22.166  0.00  0.00    +0.130 A 
ATOM     48  C   UNL     1       8.245   3.625  23.222  0.00  0.00    +0.131 A 
ATOM     49  N   UNL     1       8.300   2.822  24.311  0.00  0.00    -0.247 NA
ENDBRANCH  42  44
ENDBRANCH  33  40
ENDBRANCH  31  33
ENDBRANCH  28  29
BRANCH  28  50
ATOM     50  C   UNL     1       3.445  -3.536  29.177  0.00  0.00    -0.011 C 
ATOM     51  C   UNL     1       3.369  -2.294  30.095  0.00  0.00    +0.013 C 
ATOM     52  C   UNL     1       4.584  -4.452  29.683  0.00  0.00    +0.013 C 
ATOM     53  C   UNL     1       2.141  -4.328  29.397  0.00  0.00    +0.013 C 
ENDBRANCH  28  50
ENDBRANCH   3  28
TORSDOF 14
ENDMDL
MODEL 3
REMARK VINA RESULT:      -6.4      2.552      6.832
REMARK  Name = 
REMARK  18 active torsions:
REMARK  status: ('A' for Active; 'I' for Inactive)
REMARK    1  A    between atoms: C_1  and  C_2
REMARK    2  A    between atoms: C_2  and  C_3
REMARK    3  A    between atoms: C_3  and  C_4
REMARK    4  A    between atoms: C_4  and  C_6
REMARK    5  A    between atoms: C_4  and  N_14
REMARK    6  A    between atoms: C_6  and  C_8
REMARK    7  A    between atoms: N_10  and  C_11
REMARK    8  A    between atoms: C_15  and  C_17
REMARK    9  A    between atoms: C_28  and  C_30
REMARK   10  A    between atoms: C_30  and  C_32
REMARK   11  A    between atoms: C_30  and  N_36
REMARK   12  A    between atoms: C_32  and  C_33
REMARK   13  A    between atoms: C_32  and  C_34
REMARK   14  A    between atoms: C_32  and  C_35
REMARK   15  A    between atoms: C_37  and  C_39
REMARK   16  A    between atoms: C_39  and  C_41
REMARK   17  A    between atoms: C_39  and  N_47
REMARK   18  A    between atoms: C_48  and  C_50
REMARK                            x       y       z     vdW  Elec       q    Type
REMARK                         _______ _______ _______ _____ _____    ______ ____
ROOT
ATOM      1  C   UNL     1       5.601   4.131  27.538  0.00  0.00    +0.165 C 
ATOM      2  N   UNL     1       6.633   3.337  28.253  0.00  0.00    -0.288 N 
ATOM      3  C   UNL     1       6.852   1.952  28.338  0.00  0.00    +0.237 C 
ATOM      4  O   UNL     1       7.561   1.516  29.255  0.00  0.00    -0.274 OA
ATOM      5  C   UNL     1       7.210   4.133  29.347  0.00  0.00    +0.112 C 
ATOM      6  C   UNL     1       6.639   5.540  29.266  0.00  0.00    +0.012 C 
ATOM      7  C   UNL     1       5.558   5.874  30.290  0.00  0.00    +0.005 C 
ATOM      8  C   UNL     1       4.468   6.635  29.543  0.00  0.00    +0.001 C 
ATOM      9  C   UNL     1       4.824   6.594  28.062  0.00  0.00    +0.006 C 
ATOM     10  C   UNL     1       5.970   5.603  27.904  0.00  0.00    +0.023 C 
ENDROOT
BRANCH   1  13
ATOM     11  N   UNL     1       6.405   5.037  25.378  0.00  0.00    -0.304 N 
ATOM     12  H   UNL     1       6.709   5.861  25.897  0.00  0.00    +0.149 HD
ATOM     13  C   UNL     1       5.553   4.124  25.986  0.00  0.00    +0.234 C 
ATOM     14  O   UNL     1       4.907   3.303  25.340  0.00  0.00    -0.274 OA
BRANCH  11  15
ATOM     15  C   UNL     1       6.652   5.028  23.926  0.00  0.00    +0.149 C 
BRANCH  15  16
ATOM     16  C   UNL     1       7.836   5.907  23.482  0.00  0.00    +0.237 C 
ATOM     17  O   UNL     1       7.732   6.829  22.671  0.00  0.00    -0.285 OA
BRANCH  16  18
ATOM     18  C   UNL     1       9.187   5.736  24.179  0.00  0.00    +0.282 C 
ATOM     19  N   UNL     1      10.259   5.840  23.315  0.00  0.00    -0.306 N 
ATOM     20  H   UNL     1      10.037   5.991  22.336  0.00  0.00    +0.149 HD
ATOM     21  O   UNL     1       9.234   5.537  25.382  0.00  0.00    -0.267 OA
BRANCH  19  22
ATOM     22  C   UNL     1      11.625   5.696  23.710  0.00  0.00    +0.073 C 
ATOM     23  C   UNL     1      12.752   5.799  22.717  0.00  0.00    +0.024 C 
ATOM     24  C   UNL     1      12.412   4.462  23.319  0.00  0.00    +0.024 C 
ENDBRANCH  19  22
ENDBRANCH  16  18
ENDBRANCH  15  16
BRANCH  15  25
ATOM     25  C   UNL     1       5.367   5.400  23.163  0.00  0.00    +0.030 C 
BRANCH  25  27
ATOM     26  C   UNL     1       5.858   3.169  22.076  0.00  0.00    +0.004 C 
ATOM     27  C   UNL     1       4.819   4.256  22.300  0.00  0.00    -0.001 C 
ENDBRANCH  25  27
ENDBRANCH  15  25
ENDBRANCH  11  15
ENDBRANCH   1  13
BRANCH   3  28
ATOM     28  C   UNL     1       6.277   0.942  27.277  0.00  0.00    +0.164 C 
BRANCH  28  29
ATOM     29  N   UNL     1       7.330   0.171  26.554  0.00  0.00    -0.302 N 
ATOM     30  H   UNL     1       7.896  -0.459  27.109  0.00  0.00    +0.150 HD
ATOM     31  C   UNL     1       7.534   0.096  25.188  0.00  0.00    +0.234 C 
ATOM     32  O   UNL     1       6.892   0.745  24.367  0.00  0.00    -0.274 OA
BRANCH  31  33
ATOM     33  C   UNL     1       8.541  -0.989  24.694  0.00  0.00    +0.162 C 
BRANCH  33  34
ATOM     34  C   UNL     1       9.945  -0.520  24.206  0.00  0.00    +0.018 C 
ATOM     35  C   UNL     1      10.393   0.835  24.784  0.00  0.00    +0.006 C 
ATOM     36  C   UNL     1       9.761   2.043  24.102  0.00  0.00    +0.000 C 
ATOM     37  C   UNL     1       9.817   1.987  22.582  0.00  0.00    +0.000 C 
ATOM     38  C   UNL     1       9.565   0.624  21.946  0.00  0.00    +0.000 C 
ATOM     39  C   UNL     1      10.212  -0.528  22.694  0.00  0.00    +0.006 C 
ENDBRANCH  33  34
BRANCH  33  40
ATOM     40  N   UNL     1       7.905  -1.888  23.726  0.00  0.00    -0.298 N 
ATOM     41  H   UNL     1       8.097  -1.805  22.732  0.00  0.00    +0.150 HD
ATOM     42  C   UNL     1       7.377  -3.100  24.134  0.00  0.00    +0.264 C 
ATOM     43  O   UNL     1       7.238  -3.430  25.305  0.00  0.00    -0.268 OA
BRANCH  42  44
ATOM     44  C   UNL     1       6.985  -4.019  23.033  0.00  0.00    +0.143 A 
ATOM     45  C   UNL     1       6.104  -3.587  22.051  0.00  0.00    +0.143 A 
ATOM     46  N   UNL     1       5.738  -4.379  21.011  0.00  0.00    -0.259 NA
ATOM     47  C   UNL     1       6.285  -5.616  21.005  0.00  0.00    +0.130 A 
ATOM     48  C   UNL     1       7.156  -6.050  21.994  0.00  0.00    +0.131 A 
ATOM     49  N   UNL     1       7.534  -5.269  23.034  0.00  0.00    -0.247 NA
ENDBRANCH  42  44
ENDBRANCH  33  40
ENDBRANCH  31  33
ENDBRANCH  28  29
BRANCH  28  50
ATOM     50  C   UNL     1       5.036   0.111  27.804  0.00  0.00    -0.011 C 
ATOM     51  C   UNL     1       5.280  -1.388  27.516  0.00  0.00    +0.013 C 
ATOM     52  C   UNL     1       3.761   0.555  27.050  0.00  0.00    +0.013 C 
ATOM     53  C   UNL     1       4.698   0.223  29.303  0.00  0.00    +0.013 C 
ENDBRANCH  28  50
ENDBRANCH   3  28
TORSDOF 14
ENDMDL
MODEL 4
REMARK VINA RESULT:      -6.2      2.226      9.166
REMARK  Name = 
REMARK  18 active torsions:
REMARK  status: ('A' for Active; 'I' for Inactive)
REMARK    1  A    between atoms: C_1  and  C_2
REMARK    2  A    between atoms: C_2  and  C_3
REMARK    3  A    between atoms: C_3  and  C_4
REMARK    4  A    between atoms: C_4  and  C_6
REMARK    5  A    between atoms: C_4  and  N_14
REMARK    6  A    between atoms: C_6  and  C_8
REMARK    7  A    between atoms: N_10  and  C_11
REMARK    8  A    between atoms: C_15  and  C_17
REMARK    9  A    between atoms: C_28  and  C_30
REMARK   10  A    between atoms: C_30  and  C_32
REMARK   11  A    between atoms: C_30  and  N_36
REMARK   12  A    between atoms: C_32  and  C_33
REMARK   13  A    between atoms: C_32  and  C_34
REMARK   14  A    between atoms: C_32  and  C_35
REMARK   15  A    between atoms: C_37  and  C_39
REMARK   16  A    between atoms: C_39  and  C_41
REMARK   17  A    between atoms: C_39  and  N_47
REMARK   18  A    between atoms: C_48  and  C_50
REMARK                            x       y       z     vdW  Elec       q    Type
REMARK                         _______ _______ _______ _____ _____    ______ ____
ROOT
ATOM      1  C   UNL     1       5.024  -2.455  27.232  0.00  0.00    +0.165 C 
ATOM      2  N   UNL     1       4.071  -1.408  26.782  0.00  0.00    -0.288 N 
ATOM      3  C   UNL     1       4.114  -0.007  26.873  0.00  0.00    +0.237 C 
ATOM      4  O   UNL     1       3.062   0.632  26.734  0.00  0.00    -0.274 OA
ATOM      5  C   UNL     1       2.730  -1.987  26.619  0.00  0.00    +0.112 C 
ATOM      6  C   UNL     1       2.828  -3.489  26.836  0.00  0.00    +0.012 C 
ATOM      7  C   UNL     1       2.316  -3.998  28.181  0.00  0.00    +0.005 C 
ATOM      8  C   UNL     1       3.327  -5.028  28.672  0.00  0.00    +0.001 C 
ATOM      9  C   UNL     1       4.508  -4.994  27.710  0.00  0.00    +0.006 C 
ATOM     10  C   UNL     1       4.318  -3.781  26.808  0.00  0.00    +0.023 C 
ENDROOT
BRANCH   1  13
ATOM     11  N   UNL     1       6.508  -3.390  25.482  0.00  0.00    -0.304 N 
ATOM     12  H   UNL     1       5.822  -4.136  25.374  0.00  0.00    +0.149 HD
ATOM     13  C   UNL     1       6.434  -2.551  26.587  0.00  0.00    +0.234 C 
ATOM     14  O   UNL     1       7.382  -1.856  26.944  0.00  0.00    -0.274 OA
BRANCH  11  15
ATOM     15  C   UNL     1       7.700  -3.441  24.619  0.00  0.00    +0.149 C 
BRANCH  15  16
ATOM     16  C   UNL     1       7.695  -2.410  23.475  0.00  0.00    +0.237 C 
ATOM     17  O   UNL     1       6.665  -1.970  22.960  0.00  0.00    -0.285 OA
BRANCH  16  18
ATOM     18  C   UNL     1       9.019  -1.781  23.039  0.00  0.00    +0.282 C 
ATOM     19  N   UNL     1       8.918  -0.427  22.785  0.00  0.00    -0.306 N 
ATOM     20  H   UNL     1       7.996  -0.016  22.889  0.00  0.00    +0.149 HD
ATOM     21  O   UNL     1      10.024  -2.468  22.953  0.00  0.00    -0.267 OA
BRANCH  19  22
ATOM     22  C   UNL     1      10.004   0.390  22.341  0.00  0.00    +0.073 C 
ATOM     23  C   UNL     1      10.526   1.533  23.171  0.00  0.00    +0.024 C 
ATOM     24  C   UNL     1       9.761   1.820  21.905  0.00  0.00    +0.024 C 
ENDBRANCH  19  22
ENDBRANCH  16  18
ENDBRANCH  15  16
BRANCH  15  25
ATOM     25  C   UNL     1       7.908  -4.868  24.080  0.00  0.00    +0.030 C 
BRANCH  25  27
ATOM     26  C   UNL     1       7.139  -5.753  21.837  0.00  0.00    +0.004 C 
ATOM     27  C   UNL     1       6.723  -5.384  23.252  0.00  0.00    -0.001 C 
ENDBRANCH  25  27
ENDBRANCH  15  25
ENDBRANCH  11  15
ENDBRANCH   1  13
BRANCH   3  28
ATOM     28  C   UNL     1       5.458   0.783  27.086  0.00  0.00    +0.164 C 
BRANCH  28  29
ATOM     29  N   UNL     1       5.689   1.853  26.074  0.00  0.00    -0.302 N 
ATOM     30  H   UNL     1       5.049   2.637  26.084  0.00  0.00    +0.150 HD
ATOM     31  C   UNL     1       6.765   1.985  25.214  0.00  0.00    +0.234 C 
ATOM     32  O   UNL     1       7.666   1.156  25.120  0.00  0.00    -0.274 OA
BRANCH  31  33
ATOM     33  C   UNL     1       6.880   3.338  24.445  0.00  0.00    +0.162 C 
BRANCH  33  34
ATOM     34  C   UNL     1       6.325   3.405  22.991  0.00  0.00    +0.018 C 
ATOM     35  C   UNL     1       6.654   4.713  22.248  0.00  0.00    +0.006 C 
ATOM     36  C   UNL     1       5.766   5.889  22.635  0.00  0.00    +0.000 C 
ATOM     37  C   UNL     1       4.280   5.557  22.642  0.00  0.00    +0.000 C 
ATOM     38  C   UNL     1       3.895   4.190  23.195  0.00  0.00    +0.000 C 
ATOM     39  C   UNL     1       4.840   3.076  22.782  0.00  0.00    +0.006 C 
ENDBRANCH  33  34
BRANCH  33  40
ATOM     40  N   UNL     1       8.243   3.870  24.528  0.00  0.00    -0.298 N 
ATOM     41  H   UNL     1       8.987   3.492  23.949  0.00  0.00    +0.150 HD
ATOM     42  C   UNL     1       8.476   5.128  25.056  0.00  0.00    +0.264 C 
ATOM     43  O   UNL     1       7.631   5.797  25.637  0.00  0.00    -0.268 OA
BRANCH  42  44
ATOM     44  C   UNL     1       9.856   5.647  24.860  0.00  0.00    +0.143 A 
ATOM     45  C   UNL     1      10.361   6.613  25.720  0.00  0.00    +0.143 A 
ATOM     46  N   UNL     1      11.623   7.098  25.601  0.00  0.00    -0.259 NA
ATOM     47  C   UNL     1      12.347   6.580  24.582  0.00  0.00    +0.130 A 
ATOM     48  C   UNL     1      11.837   5.624  23.716  0.00  0.00    +0.131 A 
ATOM     49  N   UNL     1      10.582   5.127  23.828  0.00  0.00    -0.247 NA
ENDBRANCH  42  44
ENDBRANCH  33  40
ENDBRANCH  31  33
ENDBRANCH  28  29
BRANCH  28  50
ATOM     50  C   UNL     1       5.726   1.176  28.597  0.00  0.00    -0.011 C 
ATOM     51  C   UNL     1       5.297   2.646  28.815  0.00  0.00    +0.013 C 
ATOM     52  C   UNL     1       7.238   1.056  28.901  0.00  0.00    +0.013 C 
ATOM     53  C   UNL     1       5.013   0.343  29.680  0.00  0.00    +0.013 C 
ENDBRANCH  28  50
ENDBRANCH   3  28
TORSDOF 14
ENDMDL
MODEL 5
REMARK VINA RESULT:      -6.1      1.553      2.845
REMARK  Name = 
REMARK  18 active torsions:
REMARK  status: ('A' for Active; 'I' for Inactive)
REMARK    1  A    between atoms: C_1  and  C_2
REMARK    2  A    between atoms: C_2  and  C_3
REMARK    3  A    between atoms: C_3  and  C_4
REMARK    4  A    between atoms: C_4  and  C_6
REMARK    5  A    between atoms: C_4  and  N_14
REMARK    6  A    between atoms: C_6  and  C_8
REMARK    7  A    between atoms: N_10  and  C_11
REMARK    8  A    between atoms: C_15  and  C_17
REMARK    9  A    between atoms: C_28  and  C_30
REMARK   10  A    between atoms: C_30  and  C_32
REMARK   11  A    between atoms: C_30  and  N_36
REMARK   12  A    between atoms: C_32  and  C_33
REMARK   13  A    between atoms: C_32  and  C_34
REMARK   14  A    between atoms: C_32  and  C_35
REMARK   15  A    between atoms: C_37  and  C_39
REMARK   16  A    between atoms: C_39  and  C_41
REMARK   17  A    between atoms: C_39  and  N_47
REMARK   18  A    between atoms: C_48  and  C_50
REMARK                            x       y       z     vdW  Elec       q    Type
REMARK                         _______ _______ _______ _____ _____    ______ ____
ROOT
ATOM      1  C   UNL     1       7.608   3.759  24.345  0.00  0.00    +0.165 C 
ATOM      2  N   UNL     1       7.233   2.979  23.138  0.00  0.00    -0.288 N 
ATOM      3  C   UNL     1       7.654   1.722  22.673  0.00  0.00    +0.237 C 
ATOM      4  O   UNL     1       7.460   1.431  21.484  0.00  0.00    -0.274 OA
ATOM      5  C   UNL     1       6.678   3.875  22.113  0.00  0.00    +0.112 C 
ATOM      6  C   UNL     1       6.556   5.268  22.712  0.00  0.00    +0.012 C 
ATOM      7  C   UNL     1       7.616   6.272  22.271  0.00  0.00    +0.005 C 
ATOM      8  C   UNL     1       8.046   7.031  23.522  0.00  0.00    +0.001 C 
ATOM      9  C   UNL     1       7.372   6.358  24.711  0.00  0.00    +0.006 C 
ATOM     10  C   UNL     1       6.757   5.060  24.203  0.00  0.00    +0.023 C 
ENDROOT
BRANCH   1  13
ATOM     11  N   UNL     1       6.188   3.872  26.371  0.00  0.00    -0.304 N 
ATOM     12  H   UNL     1       5.952   4.823  26.088  0.00  0.00    +0.149 HD
ATOM     13  C   UNL     1       7.252   3.223  25.758  0.00  0.00    +0.234 C 
ATOM     14  O   UNL     1       7.783   2.231  26.251  0.00  0.00    -0.274 OA
BRANCH  11  15
ATOM     15  C   UNL     1       5.574   3.367  27.612  0.00  0.00    +0.149 C 
BRANCH  15  16
ATOM     16  C   UNL     1       4.218   2.668  27.405  0.00  0.00    +0.237 C 
ATOM     17  O   UNL     1       3.429   2.429  28.320  0.00  0.00    -0.285 OA
BRANCH  16  18
ATOM     18  C   UNL     1       3.746   2.376  25.979  0.00  0.00    +0.282 C 
ATOM     19  N   UNL     1       2.833   3.300  25.511  0.00  0.00    -0.306 N 
ATOM     20  H   UNL     1       2.567   4.037  26.155  0.00  0.00    +0.149 HD
ATOM     21  O   UNL     1       4.180   1.407  25.377  0.00  0.00    -0.267 OA
BRANCH  19  22
ATOM     22  C   UNL     1       2.221   3.241  24.220  0.00  0.00    +0.073 C 
ATOM     23  C   UNL     1       3.010   3.467  22.958  0.00  0.00    +0.024 C 
ATOM     24  C   UNL     1       2.015   4.504  23.409  0.00  0.00    +0.024 C 
ENDBRANCH  19  22
ENDBRANCH  16  18
ENDBRANCH  15  16
BRANCH  15  25
ATOM     25  C   UNL     1       5.464   4.497  28.651  0.00  0.00    +0.030 C 
BRANCH  25  27
ATOM     26  C   UNL     1       5.452   7.022  28.491  0.00  0.00    +0.004 C 
ATOM     27  C   UNL     1       6.259   5.753  28.271  0.00  0.00    -0.001 C 
ENDBRANCH  25  27
ENDBRANCH  15  25
ENDBRANCH  11  15
ENDBRANCH   1  13
BRANCH   3  28
ATOM     28  C   UNL     1       8.307   0.648  23.620  0.00  0.00    +0.164 C 
BRANCH  28  29
ATOM     29  N   UNL     1       7.568  -0.647  23.654  0.00  0.00    -0.302 N 
ATOM     30  H   UNL     1       7.315  -1.052  22.761  0.00  0.00    +0.150 HD
ATOM     31  C   UNL     1       7.314  -1.446  24.754  0.00  0.00    +0.234 C 
ATOM     32  O   UNL     1       7.612  -1.135  25.904  0.00  0.00    -0.274 OA
BRANCH  31  33
ATOM     33  C   UNL     1       6.749  -2.872  24.464  0.00  0.00    +0.162 C 
BRANCH  33  34
ATOM     34  C   UNL     1       5.764  -3.042  23.269  0.00  0.00    +0.018 C 
ATOM     35  C   UNL     1       4.532  -3.910  23.585  0.00  0.00    +0.006 C 
ATOM     36  C   UNL     1       4.805  -5.409  23.564  0.00  0.00    +0.000 C 
ATOM     37  C   UNL     1       5.571  -5.874  22.334  0.00  0.00    +0.000 C 
ATOM     38  C   UNL     1       6.693  -4.961  21.850  0.00  0.00    +0.000 C 
ATOM     39  C   UNL     1       6.351  -3.484  21.921  0.00  0.00    +0.006 C 
ENDBRANCH  33  34
BRANCH  33  40
ATOM     40  N   UNL     1       6.226  -3.484  25.688  0.00  0.00    -0.298 N 
ATOM     41  H   UNL     1       5.233  -3.456  25.903  0.00  0.00    +0.150 HD
ATOM     42  C   UNL     1       6.956  -4.448  26.360  0.00  0.00    +0.264 C 
ATOM     43  O   UNL     1       8.121  -4.729  26.107  0.00  0.00    -0.268 OA
BRANCH  42  44
ATOM     44  C   UNL     1       6.218  -5.161  27.437  0.00  0.00    +0.143 A 
ATOM     45  C   UNL     1       4.844  -5.002  27.556  0.00  0.00    +0.143 A 
ATOM     46  N   UNL     1       4.122  -5.653  28.504  0.00  0.00    -0.259 NA
ATOM     47  C   UNL     1       4.837  -6.456  29.325  0.00  0.00    +0.130 A 
ATOM     48  C   UNL     1       6.212  -6.603  29.212  0.00  0.00    +0.131 A 
ATOM     49  N   UNL     1       6.943  -5.965  28.268  0.00  0.00    -0.247 NA
ENDBRANCH  42  44
ENDBRANCH  33  40
ENDBRANCH  31  33
ENDBRANCH  28  29
BRANCH  28  50
ATOM     50  C   UNL     1       9.882   0.555  23.475  0.00  0.00    -0.011 C 
ATOM     51  C   UNL     1      10.232  -0.680  22.612  0.00  0.00    +0.013 C 
ATOM     52  C   UNL     1      10.517   0.372  24.874  0.00  0.00    +0.013 C 
ATOM     53  C   UNL     1      10.605   1.757  22.839  0.00  0.00    +0.013 C 
ENDBRANCH  28  50
ENDBRANCH   3  28
TORSDOF 14
ENDMDL
MODEL 6
REMARK VINA RESULT:      -6.0      2.548      5.186
REMARK  Name = 
REMARK  18 active torsions:
REMARK  status: ('A' for Active; 'I' for Inactive)
REMARK    1  A    between atoms: C_1  and  C_2
REMARK    2  A    between atoms: C_2  and  C_3
REMARK    3  A    between atoms: C_3  and  C_4
REMARK    4  A    between atoms: C_4  and  C_6
REMARK    5  A    between atoms: C_4  and  N_14
REMARK    6  A    between atoms: C_6  and  C_8
REMARK    7  A    between atoms: N_10  and  C_11
REMARK    8  A    between atoms: C_15  and  C_17
REMARK    9  A    between atoms: C_28  and  C_30
REMARK   10  A    between atoms: C_30  and  C_32
REMARK   11  A    between atoms: C_30  and  N_36
REMARK   12  A    between atoms: C_32  and  C_33
REMARK   13  A    between atoms: C_32  and  C_34
REMARK   14  A    between atoms: C_32  and  C_35
REMARK   15  A    between atoms: C_37  and  C_39
REMARK   16  A    between atoms: C_39  and  C_41
REMARK   17  A    between atoms: C_39  and  N_47
REMARK   18  A    between atoms: C_48  and  C_50
REMARK                            x       y       z     vdW  Elec       q    Type
REMARK                         _______ _______ _______ _____ _____    ______ ____
ROOT
ATOM      1  C   UNL     1       8.393  -0.057  24.689  0.00  0.00    +0.165 C 
ATOM      2  N   UNL     1       7.409  -0.782  23.844  0.00  0.00    -0.288 N 
ATOM      3  C   UNL     1       7.018  -2.130  23.817  0.00  0.00    +0.237 C 
ATOM      4  O   UNL     1       6.436  -2.562  22.811  0.00  0.00    -0.274 OA
ATOM      5  C   UNL     1       7.160  -0.030  22.606  0.00  0.00    +0.112 C 
ATOM      6  C   UNL     1       7.898   1.297  22.697  0.00  0.00    +0.012 C 
ATOM      7  C   UNL     1       9.185   1.395  21.883  0.00  0.00    +0.005 C 
ATOM      8  C   UNL     1      10.214   2.084  22.773  0.00  0.00    +0.001 C 
ATOM      9  C   UNL     1       9.589   2.229  24.155  0.00  0.00    +0.006 C 
ATOM     10  C   UNL     1       8.306   1.407  24.155  0.00  0.00    +0.023 C 
ENDROOT
BRANCH   1  13
ATOM     11  N   UNL     1       7.363   1.162  26.584  0.00  0.00    -0.304 N 
ATOM     12  H   UNL     1       7.298   1.967  25.961  0.00  0.00    +0.149 HD
ATOM     13  C   UNL     1       8.152   0.079  26.217  0.00  0.00    +0.234 C 
ATOM     14  O   UNL     1       8.526  -0.762  27.031  0.00  0.00    -0.274 OA
BRANCH  11  15
ATOM     15  C   UNL     1       6.855   1.329  27.956  0.00  0.00    +0.149 C 
BRANCH  15  16
ATOM     16  C   UNL     1       5.457   0.727  28.189  0.00  0.00    +0.237 C 
ATOM     17  O   UNL     1       5.108   0.208  29.250  0.00  0.00    -0.285 OA
BRANCH  16  18
ATOM     18  C   UNL     1       4.387   0.902  27.109  0.00  0.00    +0.282 C 
ATOM     19  N   UNL     1       3.314   1.663  27.529  0.00  0.00    -0.306 N 
ATOM     20  H   UNL     1       3.342   1.993  28.488  0.00  0.00    +0.149 HD
ATOM     21  O   UNL     1       4.538   0.395  26.010  0.00  0.00    -0.267 OA
BRANCH  19  22
ATOM     22  C   UNL     1       2.171   1.954  26.720  0.00  0.00    +0.073 C 
ATOM     23  C   UNL     1       2.176   3.079  25.718  0.00  0.00    +0.024 C 
ATOM     24  C   UNL     1       1.349   3.202  26.971  0.00  0.00    +0.024 C 
ENDBRANCH  19  22
ENDBRANCH  16  18
ENDBRANCH  15  16
BRANCH  15  25
ATOM     25  C   UNL     1       6.895   2.814  28.363  0.00  0.00    +0.030 C 
BRANCH  25  27
ATOM     26  C   UNL     1       5.640   4.482  26.935  0.00  0.00    +0.004 C 
ATOM     27  C   UNL     1       6.963   3.771  27.165  0.00  0.00    -0.001 C 
ENDBRANCH  25  27
ENDBRANCH  15  25
ENDBRANCH  11  15
ENDBRANCH   1  13
BRANCH   3  28
ATOM     28  C   UNL     1       7.240  -3.098  25.038  0.00  0.00    +0.164 C 
BRANCH  28  29
ATOM     29  N   UNL     1       6.009  -3.832  25.450  0.00  0.00    -0.302 N 
ATOM     30  H   UNL     1       5.805  -4.693  24.960  0.00  0.00    +0.150 HD
ATOM     31  C   UNL     1       5.185  -3.560  26.527  0.00  0.00    +0.234 C 
ATOM     32  O   UNL     1       5.327  -2.590  27.266  0.00  0.00    -0.274 OA
BRANCH  31  33
ATOM     33  C   UNL     1       4.117  -4.643  26.878  0.00  0.00    +0.162 C 
BRANCH  33  34
ATOM     34  C   UNL     1       4.481  -5.712  27.952  0.00  0.00    +0.018 C 
ATOM     35  C   UNL     1       3.325  -6.663  28.314  0.00  0.00    +0.006 C 
ATOM     36  C   UNL     1       2.300  -6.062  29.269  0.00  0.00    +0.000 C 
ATOM     37  C   UNL     1       2.920  -5.378  30.479  0.00  0.00    +0.000 C 
ATOM     38  C   UNL     1       4.185  -4.565  30.223  0.00  0.00    +0.000 C 
ATOM     39  C   UNL     1       5.144  -5.221  29.246  0.00  0.00    +0.006 C 
ENDBRANCH  33  34
BRANCH  33  40
ATOM     40  N   UNL     1       3.581  -5.259  25.661  0.00  0.00    -0.298 N 
ATOM     41  H   UNL     1       4.070  -6.024  25.205  0.00  0.00    +0.150 HD
ATOM     42  C   UNL     1       2.243  -5.126  25.336  0.00  0.00    +0.264 C 
ATOM     43  O   UNL     1       1.468  -4.369  25.908  0.00  0.00    -0.268 OA
BRANCH  42  44
ATOM     44  C   UNL     1       1.776  -5.993  24.221  0.00  0.00    +0.143 A 
ATOM     45  C   UNL     1       2.066  -7.350  24.232  0.00  0.00    +0.143 A 
ATOM     46  N   UNL     1       1.638  -8.188  23.253  0.00  0.00    -0.259 NA
ATOM     47  C   UNL     1       0.920  -7.604  22.266  0.00  0.00    +0.130 A 
ATOM     48  C   UNL     1       0.642  -6.244  22.251  0.00  0.00    +0.131 A 
ATOM     49  N   UNL     1       1.057  -5.400  23.224  0.00  0.00    -0.247 NA
ENDBRANCH  42  44
ENDBRANCH  33  40
ENDBRANCH  31  33
ENDBRANCH  28  29
BRANCH  28  50
ATOM     50  C   UNL     1       8.567  -3.957  24.929  0.00  0.00    -0.011 C 
ATOM     51  C   UNL     1       8.267  -5.237  24.115  0.00  0.00    +0.013 C 
ATOM     52  C   UNL     1       9.029  -4.372  26.345  0.00  0.00    +0.013 C 
ATOM     53  C   UNL     1       9.788  -3.289  24.268  0.00  0.00    +0.013 C 
ENDBRANCH  28  50
ENDBRANCH   3  28
TORSDOF 14
ENDMDL
MODEL 7
REMARK VINA RESULT:      -6.0      2.293      8.738
REMARK  Name = 
REMARK  18 active torsions:
REMARK  status: ('A' for Active; 'I' for Inactive)
REMARK    1  A    between atoms: C_1  and  C_2
REMARK    2  A    between atoms: C_2  and  C_3
REMARK    3  A    between atoms: C_3  and  C_4
REMARK    4  A    between atoms: C_4  and  C_6
REMARK    5  A    between atoms: C_4  and  N_14
REMARK    6  A    between atoms: C_6  and  C_8
REMARK    7  A    between atoms: N_10  and  C_11
REMARK    8  A    between atoms: C_15  and  C_17
REMARK    9  A    between atoms: C_28  and  C_30
REMARK   10  A    between atoms: C_30  and  C_32
REMARK   11  A    between atoms: C_30  and  N_36
REMARK   12  A    between atoms: C_32  and  C_33
REMARK   13  A    between atoms: C_32  and  C_34
REMARK   14  A    between atoms: C_32  and  C_35
REMARK   15  A    between atoms: C_37  and  C_39
REMARK   16  A    between atoms: C_39  and  C_41
REMARK   17  A    between atoms: C_39  and  N_47
REMARK   18  A    between atoms: C_48  and  C_50
REMARK                            x       y       z     vdW  Elec       q    Type
REMARK                         _______ _______ _______ _____ _____    ______ ____
ROOT
ATOM      1  C   UNL     1       5.931  -2.200  26.851  0.00  0.00    +0.165 C 
ATOM      2  N   UNL     1       4.719  -1.405  26.527  0.00  0.00    -0.288 N 
ATOM      3  C   UNL     1       4.375  -0.072  26.807  0.00  0.00    +0.237 C 
ATOM      4  O   UNL     1       3.185   0.265  26.734  0.00  0.00    -0.274 OA
ATOM      5  C   UNL     1       3.586  -2.303  26.261  0.00  0.00    +0.112 C 
ATOM      6  C   UNL     1       4.098  -3.736  26.276  0.00  0.00    +0.012 C 
ATOM      7  C   UNL     1       3.770  -4.542  27.529  0.00  0.00    +0.005 C 
ATOM      8  C   UNL     1       5.035  -5.310  27.897  0.00  0.00    +0.001 C 
ATOM      9  C   UNL     1       6.144  -4.823  26.973  0.00  0.00    +0.006 C 
ATOM     10  C   UNL     1       5.610  -3.600  26.239  0.00  0.00    +0.023 C 
ENDROOT
BRANCH   1  13
ATOM     11  N   UNL     1       7.237  -1.401  24.903  0.00  0.00    -0.304 N 
ATOM     12  H   UNL     1       6.453  -1.699  24.323  0.00  0.00    +0.149 HD
ATOM     13  C   UNL     1       7.301  -1.816  26.228  0.00  0.00    +0.234 C 
ATOM     14  O   UNL     1       8.341  -1.766  26.878  0.00  0.00    -0.274 OA
BRANCH  11  15
ATOM     15  C   UNL     1       8.393  -0.800  24.216  0.00  0.00    +0.149 C 
BRANCH  15  16
ATOM     16  C   UNL     1       9.315  -1.820  23.524  0.00  0.00    +0.237 C 
ATOM     17  O   UNL     1      10.303  -1.503  22.860  0.00  0.00    -0.285 OA
BRANCH  16  18
ATOM     18  C   UNL     1       9.093  -3.312  23.780  0.00  0.00    +0.282 C 
ATOM     19  N   UNL     1       8.029  -3.831  23.068  0.00  0.00    -0.306 N 
ATOM     20  H   UNL     1       7.512  -3.178  22.489  0.00  0.00    +0.149 HD
ATOM     21  O   UNL     1       9.826  -3.917  24.544  0.00  0.00    -0.267 OA
BRANCH  19  22
ATOM     22  C   UNL     1       7.598  -5.192  23.148  0.00  0.00    +0.073 C 
ATOM     23  C   UNL     1       7.029  -5.914  21.954  0.00  0.00    +0.024 C 
ATOM     24  C   UNL     1       6.123  -5.535  23.097  0.00  0.00    +0.024 C 
ENDBRANCH  19  22
ENDBRANCH  16  18
ENDBRANCH  15  16
BRANCH  15  25
ATOM     25  C   UNL     1       9.184   0.096  25.187  0.00  0.00    +0.030 C 
BRANCH  25  27
ATOM     26  C   UNL     1      10.529   1.818  23.914  0.00  0.00    +0.004 C 
ATOM     27  C   UNL     1       9.274   1.557  24.729  0.00  0.00    -0.001 C 
ENDBRANCH  25  27
ENDBRANCH  15  25
ENDBRANCH  11  15
ENDBRANCH   1  13
BRANCH   3  28
ATOM     28  C   UNL     1       5.453   1.021  27.152  0.00  0.00    +0.164 C 
BRANCH  28  29
ATOM     29  N   UNL     1       5.343   2.253  26.318  0.00  0.00    -0.302 N 
ATOM     30  H   UNL     1       5.201   3.126  26.810  0.00  0.00    +0.150 HD
ATOM     31  C   UNL     1       5.561   2.374  24.957  0.00  0.00    +0.234 C 
ATOM     32  O   UNL     1       5.809   1.424  24.220  0.00  0.00    -0.274 OA
BRANCH  31  33
ATOM     33  C   UNL     1       5.632   3.827  24.390  0.00  0.00    +0.162 C 
BRANCH  33  34
ATOM     34  C   UNL     1       4.940   4.115  23.024  0.00  0.00    +0.018 C 
ATOM     35  C   UNL     1       4.803   5.612  22.688  0.00  0.00    +0.006 C 
ATOM     36  C   UNL     1       3.655   6.308  23.409  0.00  0.00    +0.000 C 
ATOM     37  C   UNL     1       2.337   5.550  23.335  0.00  0.00    +0.000 C 
ATOM     38  C   UNL     1       2.420   4.034  23.473  0.00  0.00    +0.000 C 
ATOM     39  C   UNL     1       3.601   3.419  22.744  0.00  0.00    +0.006 C 
ENDBRANCH  33  34
BRANCH  33  40
ATOM     40  N   UNL     1       7.008   4.330  24.417  0.00  0.00    -0.298 N 
ATOM     41  H   UNL     1       7.494   4.566  23.557  0.00  0.00    +0.150 HD
ATOM     42  C   UNL     1       7.531   4.885  25.571  0.00  0.00    +0.264 C 
ATOM     43  O   UNL     1       6.983   4.840  26.665  0.00  0.00    -0.268 OA
BRANCH  42  44
ATOM     44  C   UNL     1       8.837   5.575  25.403  0.00  0.00    +0.143 A 
ATOM     45  C   UNL     1       9.547   5.434  24.218  0.00  0.00    +0.143 A 
ATOM     46  N   UNL     1      10.729   6.066  24.005  0.00  0.00    -0.259 NA
ATOM     47  C   UNL     1      11.168   6.832  25.030  0.00  0.00    +0.130 A 
ATOM     48  C   UNL     1      10.464   6.962  26.218  0.00  0.00    +0.131 A 
ATOM     49  N   UNL     1       9.280   6.342  26.441  0.00  0.00    -0.247 NA
ENDBRANCH  42  44
ENDBRANCH  33  40
ENDBRANCH  31  33
ENDBRANCH  28  29
BRANCH  28  50
ATOM     50  C   UNL     1       5.652   1.242  28.708  0.00  0.00    -0.011 C 
ATOM     51  C   UNL     1       5.172   2.665  29.076  0.00  0.00    +0.013 C 
ATOM     52  C   UNL     1       7.155   1.125  29.057  0.00  0.00    +0.013 C 
ATOM     53  C   UNL     1       4.924   0.271  29.657  0.00  0.00    +0.013 C 
ENDBRANCH  28  50
ENDBRANCH   3  28
TORSDOF 14
ENDMDL
MODEL 8
REMARK VINA RESULT:      -5.9      2.404      9.324
REMARK  Name = 
REMARK  18 active torsions:
REMARK  status: ('A' for Active; 'I' for Inactive)
REMARK    1  A    between atoms: C_1  and  C_2
REMARK    2  A    between atoms: C_2  and  C_3
REMARK    3  A    between atoms: C_3  and  C_4
REMARK    4  A    between atoms: C_4  and  C_6
REMARK    5  A    between atoms: C_4  and  N_14
REMARK    6  A    between atoms: C_6  and  C_8
REMARK    7  A    between atoms: N_10  and  C_11
REMARK    8  A    between atoms: C_15  and  C_17
REMARK    9  A    between atoms: C_28  and  C_30
REMARK   10  A    between atoms: C_30  and  C_32
REMARK   11  A    between atoms: C_30  and  N_36
REMARK   12  A    between atoms: C_32  and  C_33
REMARK   13  A    between atoms: C_32  and  C_34
REMARK   14  A    between atoms: C_32  and  C_35
REMARK   15  A    between atoms: C_37  and  C_39
REMARK   16  A    between atoms: C_39  and  C_41
REMARK   17  A    between atoms: C_39  and  N_47
REMARK   18  A    between atoms: C_48  and  C_50
REMARK                            x       y       z     vdW  Elec       q    Type
REMARK                         _______ _______ _______ _____ _____    ______ ____
ROOT
ATOM      1  C   UNL     1       6.967  -1.918  26.606  0.00  0.00    +0.165 C 
ATOM      2  N   UNL     1       5.628  -1.437  26.178  0.00  0.00    -0.288 N 
ATOM      3  C   UNL     1       4.825  -0.382  26.643  0.00  0.00    +0.237 C 
ATOM      4  O   UNL     1       3.618  -0.384  26.363  0.00  0.00    -0.274 OA
ATOM      5  C   UNL     1       4.912  -2.506  25.468  0.00  0.00    +0.112 C 
ATOM      6  C   UNL     1       5.859  -3.685  25.302  0.00  0.00    +0.012 C 
ATOM      7  C   UNL     1       5.620  -4.863  26.243  0.00  0.00    +0.005 C 
ATOM      8  C   UNL     1       6.991  -5.318  26.730  0.00  0.00    +0.001 C 
ATOM      9  C   UNL     1       8.010  -4.307  26.218  0.00  0.00    +0.006 C 
ATOM     10  C   UNL     1       7.227  -3.128  25.654  0.00  0.00    +0.023 C 
ENDROOT
BRANCH   1  13
ATOM     11  N   UNL     1       8.349  -0.469  25.148  0.00  0.00    -0.304 N 
ATOM     12  H   UNL     1       7.907  -0.934  24.356  0.00  0.00    +0.149 HD
ATOM     13  C   UNL     1       8.214  -1.012  26.419  0.00  0.00    +0.234 C 
ATOM     14  O   UNL     1       8.959  -0.700  27.345  0.00  0.00    -0.274 OA
BRANCH  11  15
ATOM     15  C   UNL     1       9.343   0.576  24.846  0.00  0.00    +0.149 C 
BRANCH  15  16
ATOM     16  C   UNL     1       8.781   1.769  24.051  0.00  0.00    +0.237 C 
ATOM     17  O   UNL     1       7.638   1.803  23.591  0.00  0.00    -0.285 OA
BRANCH  16  18
ATOM     18  C   UNL     1       9.619   3.044  23.938  0.00  0.00    +0.282 C 
ATOM     19  N   UNL     1       9.028   4.135  24.543  0.00  0.00    -0.306 N 
ATOM     20  H   UNL     1       8.117   3.981  24.963  0.00  0.00    +0.149 HD
ATOM     21  O   UNL     1      10.694   3.020  23.362  0.00  0.00    -0.267 OA
BRANCH  19  22
ATOM     22  C   UNL     1       9.594   5.449  24.558  0.00  0.00    +0.073 C 
ATOM     23  C   UNL     1       8.733   6.681  24.650  0.00  0.00    +0.024 C 
ATOM     24  C   UNL     1       9.444   6.364  23.360  0.00  0.00    +0.024 C 
ENDBRANCH  19  22
ENDBRANCH  16  18
ENDBRANCH  15  16
BRANCH  15  25
ATOM     25  C   UNL     1      10.565  -0.038  24.139  0.00  0.00    +0.030 C 
BRANCH  25  27
ATOM     26  C   UNL     1       9.827  -0.834  21.854  0.00  0.00    +0.004 C 
ATOM     27  C   UNL     1      10.216  -1.248  23.263  0.00  0.00    -0.001 C 
ENDBRANCH  25  27
ENDBRANCH  15  25
ENDBRANCH  11  15
ENDBRANCH   1  13
BRANCH   3  28
ATOM     28  C   UNL     1       5.413   0.830  27.456  0.00  0.00    +0.164 C 
BRANCH  28  29
ATOM     29  N   UNL     1       5.261   2.143  26.764  0.00  0.00    -0.302 N 
ATOM     30  H   UNL     1       4.326   2.401  26.474  0.00  0.00    +0.150 HD
ATOM     31  C   UNL     1       6.220   3.127  26.600  0.00  0.00    +0.234 C 
ATOM     32  O   UNL     1       7.389   3.003  26.951  0.00  0.00    -0.274 OA
BRANCH  31  33
ATOM     33  C   UNL     1       5.718   4.506  26.068  0.00  0.00    +0.162 C 
BRANCH  33  34
ATOM     34  C   UNL     1       5.233   5.561  27.107  0.00  0.00    +0.018 C 
ATOM     35  C   UNL     1       6.104   6.829  27.174  0.00  0.00    +0.006 C 
ATOM     36  C   UNL     1       7.396   6.656  27.963  0.00  0.00    +0.000 C 
ATOM     37  C   UNL     1       7.201   5.985  29.316  0.00  0.00    +0.000 C 
ATOM     38  C   UNL     1       6.203   4.833  29.363  0.00  0.00    +0.000 C 
ATOM     39  C   UNL     1       4.953   5.074  28.536  0.00  0.00    +0.006 C 
ENDBRANCH  33  34
BRANCH  33  40
ATOM     40  N   UNL     1       4.746   4.325  24.986  0.00  0.00    -0.298 N 
ATOM     41  H   UNL     1       3.748   4.352  25.172  0.00  0.00    +0.150 HD
ATOM     42  C   UNL     1       5.115   4.526  23.668  0.00  0.00    +0.264 C 
ATOM     43  O   UNL     1       6.270   4.686  23.294  0.00  0.00    -0.268 OA
BRANCH  42  44
ATOM     44  C   UNL     1       3.990   4.552  22.696  0.00  0.00    +0.143 A 
ATOM     45  C   UNL     1       3.436   5.764  22.310  0.00  0.00    +0.143 A 
ATOM     46  N   UNL     1       2.427   5.842  21.405  0.00  0.00    -0.259 NA
ATOM     47  C   UNL     1       1.998   4.656  20.915  0.00  0.00    +0.130 A 
ATOM     48  C   UNL     1       2.545   3.444  21.311  0.00  0.00    +0.131 A 
ATOM     49  N   UNL     1       3.555   3.353  22.208  0.00  0.00    -0.247 NA
ENDBRANCH  42  44
ENDBRANCH  33  40
ENDBRANCH  31  33
ENDBRANCH  28  29
BRANCH  28  50
ATOM     50  C   UNL     1       5.036   0.800  28.994  0.00  0.00    -0.011 C 
ATOM     51  C   UNL     1       3.893   1.810  29.249  0.00  0.00    +0.013 C 
ATOM     52  C   UNL     1       6.264   1.226  29.833  0.00  0.00    +0.013 C 
ATOM     53  C   UNL     1       4.574  -0.547  29.581  0.00  0.00    +0.013 C 
ENDBRANCH  28  50
ENDBRANCH   3  28
TORSDOF 14
ENDMDL
MODEL 9
REMARK VINA RESULT:      -5.9      2.150      9.147
REMARK  Name = 
REMARK  18 active torsions:
REMARK  status: ('A' for Active; 'I' for Inactive)
REMARK    1  A    between atoms: C_1  and  C_2
REMARK    2  A    between atoms: C_2  and  C_3
REMARK    3  A    between atoms: C_3  and  C_4
REMARK    4  A    between atoms: C_4  and  C_6
REMARK    5  A    between atoms: C_4  and  N_14
REMARK    6  A    between atoms: C_6  and  C_8
REMARK    7  A    between atoms: N_10  and  C_11
REMARK    8  A    between atoms: C_15  and  C_17
REMARK    9  A    between atoms: C_28  and  C_30
REMARK   10  A    between atoms: C_30  and  C_32
REMARK   11  A    between atoms: C_30  and  N_36
REMARK   12  A    between atoms: C_32  and  C_33
REMARK   13  A    between atoms: C_32  and  C_34
REMARK   14  A    between atoms: C_32  and  C_35
REMARK   15  A    between atoms: C_37  and  C_39
REMARK   16  A    between atoms: C_39  and  C_41
REMARK   17  A    between atoms: C_39  and  N_47
REMARK   18  A    between atoms: C_48  and  C_50
REMARK                            x       y       z     vdW  Elec       q    Type
REMARK                         _______ _______ _______ _____ _____    ______ ____
ROOT
ATOM      1  C   UNL     1       3.235  -5.161  24.855  0.00  0.00    +0.165 C 
ATOM      2  N   UNL     1       2.357  -4.369  25.753  0.00  0.00    -0.288 N 
ATOM      3  C   UNL     1       2.529  -3.930  27.076  0.00  0.00    +0.237 C 
ATOM      4  O   UNL     1       1.532  -3.579  27.722  0.00  0.00    -0.274 OA
ATOM      5  C   UNL     1       0.962  -4.455  25.296  0.00  0.00    +0.112 C 
ATOM      6  C   UNL     1       0.937  -5.216  23.979  0.00  0.00    +0.012 C 
ATOM      7  C   UNL     1       0.454  -6.661  24.059  0.00  0.00    +0.005 C 
ATOM      8  C   UNL     1       1.394  -7.485  23.185  0.00  0.00    +0.001 C 
ATOM      9  C   UNL     1       2.521  -6.561  22.739  0.00  0.00    +0.006 C 
ATOM     10  C   UNL     1       2.392  -5.275  23.546  0.00  0.00    +0.023 C 
ENDROOT
BRANCH   1  13
ATOM     11  N   UNL     1       5.711  -5.255  24.854  0.00  0.00    -0.304 N 
ATOM     12  H   UNL     1       5.637  -5.806  25.708  0.00  0.00    +0.149 HD
ATOM     13  C   UNL     1       4.594  -4.576  24.383  0.00  0.00    +0.234 C 
ATOM     14  O   UNL     1       4.681  -3.662  23.567  0.00  0.00    -0.274 OA
BRANCH  11  15
ATOM     15  C   UNL     1       7.065  -4.978  24.346  0.00  0.00    +0.149 C 
BRANCH  15  16
ATOM     16  C   UNL     1       7.793  -3.837  25.080  0.00  0.00    +0.237 C 
ATOM     17  O   UNL     1       7.414  -3.368  26.155  0.00  0.00    -0.285 OA
BRANCH  16  18
ATOM     18  C   UNL     1       9.137  -3.346  24.538  0.00  0.00    +0.282 C 
ATOM     19  N   UNL     1       9.101  -2.034  24.110  0.00  0.00    -0.306 N 
ATOM     20  H   UNL     1       8.206  -1.561  24.179  0.00  0.00    +0.149 HD
ATOM     21  O   UNL     1      10.100  -4.094  24.522  0.00  0.00    -0.267 OA
BRANCH  19  22
ATOM     22  C   UNL     1      10.216  -1.344  23.540  0.00  0.00    +0.073 C 
ATOM     23  C   UNL     1      10.545   0.077  23.914  0.00  0.00    +0.024 C 
ATOM     24  C   UNL     1      10.000  -0.225  22.543  0.00  0.00    +0.024 C 
ENDBRANCH  19  22
ENDBRANCH  16  18
ENDBRANCH  15  16
BRANCH  15  25
ATOM     25  C   UNL     1       7.024  -4.724  22.828  0.00  0.00    +0.030 C 
BRANCH  25  27
ATOM     26  C   UNL     1       6.068  -5.965  20.841  0.00  0.00    +0.004 C 
ATOM     27  C   UNL     1       7.056  -6.013  21.995  0.00  0.00    -0.001 C 
ENDBRANCH  25  27
ENDBRANCH  15  25
ENDBRANCH  11  15
ENDBRANCH   1  13
BRANCH   3  28
ATOM     28  C   UNL     1       3.948  -3.811  27.746  0.00  0.00    +0.164 C 
BRANCH  28  29
ATOM     29  N   UNL     1       4.430  -2.406  27.880  0.00  0.00    -0.302 N 
ATOM     30  H   UNL     1       5.020  -2.199  28.676  0.00  0.00    +0.150 HD
ATOM     31  C   UNL     1       4.295  -1.376  26.966  0.00  0.00    +0.234 C 
ATOM     32  O   UNL     1       3.664  -1.475  25.917  0.00  0.00    -0.274 OA
BRANCH  31  33
ATOM     33  C   UNL     1       5.120  -0.082  27.248  0.00  0.00    +0.162 C 
BRANCH  33  34
ATOM     34  C   UNL     1       4.538   0.955  28.255  0.00  0.00    +0.018 C 
ATOM     35  C   UNL     1       5.028   0.774  29.703  0.00  0.00    +0.006 C 
ATOM     36  C   UNL     1       4.327  -0.347  30.462  0.00  0.00    +0.000 C 
ATOM     37  C   UNL     1       2.810  -0.313  30.338  0.00  0.00    +0.000 C 
ATOM     38  C   UNL     1       2.251   0.047  28.966  0.00  0.00    +0.000 C 
ATOM     39  C   UNL     1       3.016   1.157  28.267  0.00  0.00    +0.006 C 
ENDBRANCH  33  34
BRANCH  33  40
ATOM     40  N   UNL     1       5.535   0.555  25.995  0.00  0.00    -0.298 N 
ATOM     41  H   UNL     1       4.952   1.257  25.548  0.00  0.00    +0.150 HD
ATOM     42  C   UNL     1       6.863   0.546  25.607  0.00  0.00    +0.264 C 
ATOM     43  O   UNL     1       7.735  -0.117  26.155  0.00  0.00    -0.268 OA
BRANCH  42  44
ATOM     44  C   UNL     1       7.189   1.428  24.455  0.00  0.00    +0.143 A 
ATOM     45  C   UNL     1       7.975   2.555  24.646  0.00  0.00    +0.143 A 
ATOM     46  N   UNL     1       8.324   3.375  23.622  0.00  0.00    -0.259 NA
ATOM     47  C   UNL     1       7.844   3.020  22.409  0.00  0.00    +0.130 A 
ATOM     48  C   UNL     1       7.048   1.899  22.221  0.00  0.00    +0.131 A 
ATOM     49  N   UNL     1       6.698   1.069  23.232  0.00  0.00    -0.247 NA
ENDBRANCH  42  44
ENDBRANCH  33  40
ENDBRANCH  31  33
ENDBRANCH  28  29
BRANCH  28  50
ATOM     50  C   UNL     1       4.124  -4.738  29.019  0.00  0.00    -0.011 C 
ATOM     51  C   UNL     1       3.243  -5.997  28.845  0.00  0.00    +0.013 C 
ATOM     52  C   UNL     1       3.651  -3.977  30.279  0.00  0.00    +0.013 C 
ATOM     53  C   UNL     1       5.547  -5.235  29.338  0.00  0.00    +0.013 C 
ENDBRANCH  28  50
ENDBRANCH   3  28
TORSDOF 14
ENDMDL
