MODEL 1
REMARK VINA RESULT:      -7.0      0.000      0.000
REMARK  Name = 
REMARK  17 active torsions:
REMARK  status: ('A' for Active; 'I' for Inactive)
REMARK    1  A    between atoms: C_1  and  C_2
REMARK    2  A    between atoms: C_2  and  C_3
REMARK    3  A    between atoms: C_2  and  C_4
REMARK    4  A    between atoms: C_2  and  N_5
REMARK    5  A    between atoms: C_6  and  C_8
REMARK    6  A    between atoms: N_20  and  C_21
REMARK    7  A    between atoms: C_21  and  C_22
REMARK    8  A    between atoms: C_22  and  C_24
REMARK    9  A    between atoms: C_22  and  O_55
REMARK   10  A    between atoms: C_24  and  C_26
REMARK   11  A    between atoms: C_24  and  N_33
REMARK   12  A    between atoms: C_26  and  C_27
REMARK   13  A    between atoms: C_34  and  C_36
REMARK   14  A    between atoms: C_36  and  C_38
REMARK   15  A    between atoms: C_36  and  N_42
REMARK   16  A    between atoms: C_38  and  C_39
REMARK   17  A    between atoms: C_43  and  C_45
REMARK                            x       y       z     vdW  Elec       q    Type
REMARK                         _______ _______ _______ _____ _____    ______ ____
ROOT
ATOM      1  C   UNL     1       9.036   0.585  23.365  0.00  0.00    +0.107 C 
ENDROOT
BRANCH   1   2
ATOM      2  N   UNL     1       7.998   0.423  24.387  0.00  0.00    -0.308 N 
ATOM      3  H   UNL     1       7.042   0.410  24.049  0.00  0.00    +0.149 HD
ATOM      4  C   UNL     1       8.297   0.236  25.719  0.00  0.00    +0.234 C 
ATOM      5  O   UNL     1       9.457   0.144  26.133  0.00  0.00    -0.274 OA
BRANCH   4   6
ATOM      6  C   UNL     1       7.086   0.092  26.667  0.00  0.00    +0.168 C 
BRANCH   6   7
ATOM      7  N   UNL     1       6.537  -1.261  26.547  0.00  0.00    -0.298 N 
ATOM      8  H   UNL     1       6.915  -1.989  27.158  0.00  0.00    +0.150 HD
ATOM      9  C   UNL     1       5.659  -1.645  25.561  0.00  0.00    +0.263 C 
ATOM     10  O   UNL     1       5.177  -0.863  24.748  0.00  0.00    -0.269 OA
BRANCH   9  11
ATOM     11  C   UNL     1       5.287  -3.095  25.560  0.00  0.00    +0.126 A 
ATOM     12  C   UNL     1       5.824  -3.940  26.519  0.00  0.00    +0.033 A 
ATOM     13  C   UNL     1       5.446  -5.277  26.495  0.00  0.00    +0.012 A 
ATOM     14  C   UNL     1       4.536  -5.723  25.527  0.00  0.00    +0.000 A 
ATOM     15  C   UNL     1       4.051  -4.787  24.586  0.00  0.00    +0.072 A 
ATOM     16  C   UNL     1       3.143  -5.227  23.633  0.00  0.00    +0.028 A 
ATOM     17  C   UNL     1       2.696  -6.551  23.601  0.00  0.00    +0.002 A 
ATOM     18  C   UNL     1       3.175  -7.467  24.532  0.00  0.00    +0.001 A 
ATOM     19  C   UNL     1       4.099  -7.057  25.490  0.00  0.00    +0.010 A 
ATOM     20  N   UNL     1       4.425  -3.496  24.587  0.00  0.00    -0.242 NA
ENDBRANCH   9  11
ENDBRANCH   6   7
BRANCH   6  21
ATOM     21  C   UNL     1       7.421   0.488  28.105  0.00  0.00    +0.127 C 
BRANCH  21  22
ATOM     22  C   UNL     1       7.028   1.912  28.400  0.00  0.00    +0.213 C 
ATOM     23  N   UNL     1       6.124   2.462  27.543  0.00  0.00    -0.329 N 
ATOM     24  H   UNL     1       5.772   3.386  27.760  0.00  0.00    +0.145 HD
ATOM     25  H   UNL     1       5.623   1.902  26.865  0.00  0.00    +0.145 HD
ATOM     26  O   UNL     1       7.483   2.548  29.344  0.00  0.00    -0.276 OA
ENDBRANCH  21  22
ENDBRANCH   6  21
ENDBRANCH   4   6
ENDBRANCH   1   2
BRANCH   1  27
ATOM     27  C   UNL     1       8.517   1.449  22.188  0.00  0.00    +0.149 C 
BRANCH  27  28
ATOM     28  O   UNL     1       9.044   1.028  20.928  0.00  0.00    -0.389 OA
ATOM     29  H   UNL     1       9.865   0.544  21.139  0.00  0.00    +0.210 HD
ENDBRANCH  27  28
BRANCH  27  30
ATOM     30  C   UNL     1       8.802   2.959  22.412  0.00  0.00    +0.118 C 
BRANCH  30  32
ATOM     31  C   UNL     1       7.902   4.392  24.227  0.00  0.00    +0.143 C 
ATOM     32  N   UNL     1       8.938   3.371  23.835  0.00  0.00    -0.289 NA
ATOM     33  C   UNL     1      10.267   3.997  24.097  0.00  0.00    +0.089 C 
ATOM     34  C   UNL     1      10.522   5.285  23.278  0.00  0.00    +0.006 C 
ATOM     35  C   UNL     1       9.447   6.337  23.559  0.00  0.00    -0.005 C 
ATOM     36  C   UNL     1       9.607   7.058  24.909  0.00  0.00    +0.004 C 
ATOM     37  C   UNL     1      10.977   7.061  25.591  0.00  0.00    +0.000 C 
ATOM     38  C   UNL     1      12.122   6.283  24.953  0.00  0.00    +0.000 C 
ATOM     39  C   UNL     1      11.899   5.905  23.504  0.00  0.00    +0.005 C 
ATOM     40  C   UNL     1       8.044   5.724  23.448  0.00  0.00    +0.032 C 
BRANCH  31  43
ATOM     41  N   UNL     1       5.483   4.799  23.675  0.00  0.00    -0.309 N 
ATOM     42  H   UNL     1       5.822   5.692  23.332  0.00  0.00    +0.149 HD
ATOM     43  C   UNL     1       6.429   3.929  24.174  0.00  0.00    +0.231 C 
ATOM     44  O   UNL     1       6.136   2.768  24.475  0.00  0.00    -0.274 OA
BRANCH  41  46
ATOM     45  C   UNL     1       3.211   5.634  23.065  0.00  0.00    +0.031 C 
ATOM     46  C   UNL     1       4.064   4.418  23.479  0.00  0.00    +0.026 C 
ATOM     47  C   UNL     1       3.958   3.375  22.354  0.00  0.00    +0.031 C 
ATOM     48  C   UNL     1       3.476   3.794  24.760  0.00  0.00    +0.031 C 
ENDBRANCH  41  46
ENDBRANCH  31  43
ENDBRANCH  30  32
ENDBRANCH  27  30
ENDBRANCH   1  27
BRANCH   1  49
ATOM     49  C   UNL     1       9.714  -0.751  22.997  0.00  0.00    +0.060 C 
BRANCH  49  50
ATOM     50  C   UNL     1       8.942  -2.037  23.178  0.00  0.00    -0.046 A 
ATOM     51  C   UNL     1       9.313  -2.949  24.176  0.00  0.00    +0.004 A 
ATOM     52  C   UNL     1       8.698  -4.199  24.259  0.00  0.00    +0.000 A 
ATOM     53  C   UNL     1       7.690  -4.548  23.363  0.00  0.00    +0.000 A 
ATOM     54  C   UNL     1       7.286  -3.636  22.393  0.00  0.00    +0.000 A 
ATOM     55  C   UNL     1       7.910  -2.392  22.298  0.00  0.00    +0.004 A 
ENDBRANCH  49  50
ENDBRANCH   1  49
TORSDOF 14
ENDMDL
MODEL 2
REMARK VINA RESULT:      -6.9      2.286      7.509
REMARK  Name = 
REMARK  17 active torsions:
REMARK  status: ('A' for Active; 'I' for Inactive)
REMARK    1  A    between atoms: C_1  and  C_2
REMARK    2  A    between atoms: C_2  and  C_3
REMARK    3  A    between atoms: C_2  and  C_4
REMARK    4  A    between atoms: C_2  and  N_5
REMARK    5  A    between atoms: C_6  and  C_8
REMARK    6  A    between atoms: N_20  and  C_21
REMARK    7  A    between atoms: C_21  and  C_22
REMARK    8  A    between atoms: C_22  and  C_24
REMARK    9  A    between atoms: C_22  and  O_55
REMARK   10  A    between atoms: C_24  and  C_26
REMARK   11  A    between atoms: C_24  and  N_33
REMARK   12  A    between atoms: C_26  and  C_27
REMARK   13  A    between atoms: C_34  and  C_36
REMARK   14  A    between atoms: C_36  and  C_38
REMARK   15  A    between atoms: C_36  and  N_42
REMARK   16  A    between atoms: C_38  and  C_39
REMARK   17  A    between atoms: C_43  and  C_45
REMARK                            x       y       z     vdW  Elec       q    Type
REMARK                         _______ _______ _______ _____ _____    ______ ____
ROOT
ATOM      1  C   UNL     1       7.920  -3.998  26.221  0.00  0.00    +0.107 C 
ENDROOT
BRANCH   1   2
ATOM      2  N   UNL     1       6.714  -3.199  25.990  0.00  0.00    -0.308 N 
ATOM      3  H   UNL     1       5.989  -3.640  25.435  0.00  0.00    +0.149 HD
ATOM      4  C   UNL     1       6.541  -1.948  26.543  0.00  0.00    +0.234 C 
ATOM      5  O   UNL     1       7.367  -1.439  27.306  0.00  0.00    -0.274 OA
BRANCH   4   6
ATOM      6  C   UNL     1       5.216  -1.235  26.192  0.00  0.00    +0.168 C 
BRANCH   6   7
ATOM      7  N   UNL     1       5.504  -0.063  25.361  0.00  0.00    -0.298 N 
ATOM      8  H   UNL     1       5.674  -0.211  24.362  0.00  0.00    +0.150 HD
ATOM      9  C   UNL     1       5.712   1.199  25.864  0.00  0.00    +0.263 C 
ATOM     10  O   UNL     1       5.578   1.480  27.051  0.00  0.00    -0.269 OA
BRANCH   9  11
ATOM     11  C   UNL     1       6.082   2.242  24.856  0.00  0.00    +0.126 A 
ATOM     12  C   UNL     1       5.547   2.178  23.578  0.00  0.00    +0.033 A 
ATOM     13  C   UNL     1       5.902   3.170  22.673  0.00  0.00    +0.012 A 
ATOM     14  C   UNL     1       6.765   4.198  23.074  0.00  0.00    +0.000 A 
ATOM     15  C   UNL     1       7.266   4.171  24.396  0.00  0.00    +0.072 A 
ATOM     16  C   UNL     1       8.114   5.194  24.795  0.00  0.00    +0.028 A 
ATOM     17  C   UNL     1       8.460   6.240  23.934  0.00  0.00    +0.002 A 
ATOM     18  C   UNL     1       7.961   6.263  22.636  0.00  0.00    +0.001 A 
ATOM     19  C   UNL     1       7.121   5.241  22.203  0.00  0.00    +0.010 A 
ATOM     20  N   UNL     1       6.945   3.206  25.274  0.00  0.00    -0.242 NA
ENDBRANCH   9  11
ENDBRANCH   6   7
BRANCH   6  21
ATOM     21  C   UNL     1       4.191  -2.184  25.571  0.00  0.00    +0.127 C 
BRANCH  21  22
ATOM     22  C   UNL     1       3.257  -2.753  26.607  0.00  0.00    +0.213 C 
ATOM     23  N   UNL     1       2.199  -3.459  26.120  0.00  0.00    -0.329 N 
ATOM     24  H   UNL     1       1.600  -3.929  26.787  0.00  0.00    +0.145 HD
ATOM     25  H   UNL     1       2.141  -3.728  25.146  0.00  0.00    +0.145 HD
ATOM     26  O   UNL     1       3.423  -2.602  27.812  0.00  0.00    -0.276 OA
ENDBRANCH  21  22
ENDBRANCH   6  21
ENDBRANCH   4   6
ENDBRANCH   1   2
BRANCH   1  27
ATOM     27  C   UNL     1       8.685  -4.232  24.895  0.00  0.00    +0.149 C 
BRANCH  27  28
ATOM     28  O   UNL     1       9.603  -5.324  24.979  0.00  0.00    -0.389 OA
ATOM     29  H   UNL     1      10.100  -5.311  24.139  0.00  0.00    +0.210 HD
ENDBRANCH  27  28
BRANCH  27  30
ATOM     30  C   UNL     1       9.421  -2.949  24.419  0.00  0.00    +0.118 C 
BRANCH  30  32
ATOM     31  C   UNL     1       7.969  -1.627  22.901  0.00  0.00    +0.143 C 
ATOM     32  N   UNL     1       8.560  -1.744  24.281  0.00  0.00    -0.289 NA
ATOM     33  C   UNL     1       9.335  -0.490  24.516  0.00  0.00    +0.089 C 
ATOM     34  C   UNL     1      10.492  -0.277  23.510  0.00  0.00    +0.006 C 
ATOM     35  C   UNL     1       9.971  -0.242  22.072  0.00  0.00    -0.005 C 
ATOM     36  C   UNL     1       9.274   1.074  21.684  0.00  0.00    +0.004 C 
ATOM     37  C   UNL     1       9.570   2.337  22.496  0.00  0.00    +0.000 C 
ATOM     38  C   UNL     1      10.482   2.238  23.713  0.00  0.00    +0.000 C 
ATOM     39  C   UNL     1      11.322   0.978  23.772  0.00  0.00    +0.005 C 
ATOM     40  C   UNL     1       9.043  -1.434  21.800  0.00  0.00    +0.032 C 
BRANCH  31  43
ATOM     41  N   UNL     1       7.511  -4.019  22.275  0.00  0.00    -0.309 N 
ATOM     42  H   UNL     1       8.500  -4.146  22.463  0.00  0.00    +0.149 HD
ATOM     43  C   UNL     1       7.002  -2.753  22.472  0.00  0.00    +0.231 C 
ATOM     44  O   UNL     1       5.788  -2.535  22.413  0.00  0.00    -0.274 OA
BRANCH  41  46
ATOM     45  C   UNL     1       7.444  -6.510  22.111  0.00  0.00    +0.031 C 
ATOM     46  C   UNL     1       6.656  -5.191  21.969  0.00  0.00    +0.026 C 
ATOM     47  C   UNL     1       5.480  -5.247  22.958  0.00  0.00    +0.031 C 
ATOM     48  C   UNL     1       6.073  -5.095  20.545  0.00  0.00    +0.031 C 
ENDBRANCH  41  46
ENDBRANCH  31  43
ENDBRANCH  30  32
ENDBRANCH  27  30
ENDBRANCH   1  27
BRANCH   1  49
ATOM     49  C   UNL     1       7.644  -5.243  27.090  0.00  0.00    +0.060 C 
BRANCH  49  50
ATOM     50  C   UNL     1       6.218  -5.576  27.458  0.00  0.00    -0.046 A 
ATOM     51  C   UNL     1       5.726  -5.266  28.734  0.00  0.00    +0.004 A 
ATOM     52  C   UNL     1       4.459  -5.696  29.131  0.00  0.00    +0.000 A 
ATOM     53  C   UNL     1       3.656  -6.421  28.253  0.00  0.00    +0.000 A 
ATOM     54  C   UNL     1       4.116  -6.700  26.970  0.00  0.00    +0.000 A 
ATOM     55  C   UNL     1       5.389  -6.285  26.578  0.00  0.00    +0.004 A 
ENDBRANCH  49  50
ENDBRANCH   1  49
TORSDOF 14
ENDMDL
MODEL 3
REMARK VINA RESULT:      -6.7      2.340      5.109
REMARK  Name = 
REMARK  17 active torsions:
REMARK  status: ('A' for Active; 'I' for Inactive)
REMARK    1  A    between atoms: C_1  and  C_2
REMARK    2  A    between atoms: C_2  and  C_3
REMARK    3  A    between atoms: C_2  and  C_4
REMARK    4  A    between atoms: C_2  and  N_5
REMARK    5  A    between atoms: C_6  and  C_8
REMARK    6  A    between atoms: N_20  and  C_21
REMARK    7  A    between atoms: C_21  and  C_22
REMARK    8  A    between atoms: C_22  and  C_24
REMARK    9  A    between atoms: C_22  and  O_55
REMARK   10  A    between atoms: C_24  and  C_26
REMARK   11  A    between atoms: C_24  and  N_33
REMARK   12  A    between atoms: C_26  and  C_27
REMARK   13  A    between atoms: C_34  and  C_36
REMARK   14  A    between atoms: C_36  and  C_38
REMARK   15  A    between atoms: C_36  and  N_42
REMARK   16  A    between atoms: C_38  and  C_39
REMARK   17  A    between atoms: C_43  and  C_45
REMARK                            x       y       z     vdW  Elec       q    Type
REMARK                         _______ _______ _______ _____ _____    ______ ____
ROOT
ATOM      1  C   UNL     1       7.482   1.539  24.104  0.00  0.00    +0.107 C 
ENDROOT
BRANCH   1   2
ATOM      2  N   UNL     1       8.115   0.226  23.956  0.00  0.00    -0.308 N 
ATOM      3  H   UNL     1       7.616  -0.444  23.381  0.00  0.00    +0.149 HD
ATOM      4  C   UNL     1       9.344  -0.067  24.507  0.00  0.00    +0.234 C 
ATOM      5  O   UNL     1      10.013   0.770  25.121  0.00  0.00    -0.274 OA
BRANCH   4   6
ATOM      6  C   UNL     1       9.865  -1.501  24.265  0.00  0.00    +0.168 C 
BRANCH   6   7
ATOM      7  N   UNL     1       8.839  -2.463  24.675  0.00  0.00    -0.298 N 
ATOM      8  H   UNL     1       7.910  -2.104  24.913  0.00  0.00    +0.150 HD
ATOM      9  C   UNL     1       9.088  -3.794  24.907  0.00  0.00    +0.263 C 
ATOM     10  O   UNL     1      10.176  -4.321  24.696  0.00  0.00    -0.269 OA
BRANCH   9  11
ATOM     11  C   UNL     1       7.923  -4.591  25.405  0.00  0.00    +0.126 A 
ATOM     12  C   UNL     1       7.797  -4.842  26.764  0.00  0.00    +0.033 A 
ATOM     13  C   UNL     1       6.696  -5.574  27.192  0.00  0.00    +0.012 A 
ATOM     14  C   UNL     1       5.752  -6.018  26.256  0.00  0.00    +0.000 A 
ATOM     15  C   UNL     1       5.974  -5.721  24.892  0.00  0.00    +0.072 A 
ATOM     16  C   UNL     1       5.035  -6.153  23.966  0.00  0.00    +0.028 A 
ATOM     17  C   UNL     1       3.888  -6.850  24.355  0.00  0.00    +0.002 A 
ATOM     18  C   UNL     1       3.673  -7.138  25.700  0.00  0.00    +0.001 A 
ATOM     19  C   UNL     1       4.606  -6.729  26.649  0.00  0.00    +0.010 A 
ATOM     20  N   UNL     1       7.046  -5.031  24.464  0.00  0.00    -0.242 NA
ENDBRANCH   9  11
ENDBRANCH   6   7
BRANCH   6  21
ATOM     21  C   UNL     1      10.355  -1.708  22.832  0.00  0.00    +0.127 C 
BRANCH  21  22
ATOM     22  C   UNL     1       9.234  -1.589  21.833  0.00  0.00    +0.213 C 
ATOM     23  N   UNL     1       9.425  -0.678  20.840  0.00  0.00    -0.329 N 
ATOM     24  H   UNL     1       8.732  -0.632  20.103  0.00  0.00    +0.145 HD
ATOM     25  H   UNL     1      10.324  -0.240  20.684  0.00  0.00    +0.145 HD
ATOM     26  O   UNL     1       8.209  -2.260  21.896  0.00  0.00    -0.276 OA
ENDBRANCH  21  22
ENDBRANCH   6  21
ENDBRANCH   4   6
ENDBRANCH   1   2
BRANCH   1  27
ATOM     27  C   UNL     1       6.029   1.392  24.623  0.00  0.00    +0.149 C 
BRANCH  27  28
ATOM     28  O   UNL     1       5.446   0.137  24.265  0.00  0.00    -0.389 OA
ATOM     29  H   UNL     1       6.165  -0.373  23.847  0.00  0.00    +0.210 HD
ENDBRANCH  27  28
BRANCH  27  30
ATOM     30  C   UNL     1       5.124   2.560  24.144  0.00  0.00    +0.118 C 
BRANCH  30  32
ATOM     31  C   UNL     1       3.673   4.484  24.737  0.00  0.00    +0.143 C 
ATOM     32  N   UNL     1       4.308   3.203  25.209  0.00  0.00    -0.289 NA
ATOM     33  C   UNL     1       5.141   3.558  26.396  0.00  0.00    +0.089 C 
ATOM     34  C   UNL     1       6.268   4.571  26.083  0.00  0.00    +0.006 C 
ATOM     35  C   UNL     1       5.697   5.869  25.510  0.00  0.00    -0.005 C 
ATOM     36  C   UNL     1       5.039   6.787  26.555  0.00  0.00    +0.004 C 
ATOM     37  C   UNL     1       5.415   6.621  28.029  0.00  0.00    +0.000 C 
ATOM     38  C   UNL     1       6.367   5.499  28.428  0.00  0.00    +0.000 C 
ATOM     39  C   UNL     1       7.157   4.903  27.281  0.00  0.00    +0.005 C 
ATOM     40  C   UNL     1       4.712   5.573  24.370  0.00  0.00    +0.032 C 
BRANCH  31  43
ATOM     41  N   UNL     1       2.784   5.176  22.489  0.00  0.00    -0.309 N 
ATOM     42  H   UNL     1       3.586   5.798  22.482  0.00  0.00    +0.149 HD
ATOM     43  C   UNL     1       2.646   4.357  23.589  0.00  0.00    +0.231 C 
ATOM     44  O   UNL     1       1.790   3.467  23.622  0.00  0.00    -0.274 OA
BRANCH  41  46
ATOM     45  C   UNL     1       2.106   3.697  20.595  0.00  0.00    +0.031 C 
ATOM     46  C   UNL     1       1.921   5.063  21.288  0.00  0.00    +0.026 C 
ATOM     47  C   UNL     1       0.444   5.175  21.699  0.00  0.00    +0.031 C 
ATOM     48  C   UNL     1       2.221   6.191  20.282  0.00  0.00    +0.031 C 
ENDBRANCH  41  46
ENDBRANCH  31  43
ENDBRANCH  30  32
ENDBRANCH  27  30
ENDBRANCH   1  27
BRANCH   1  49
ATOM     49  C   UNL     1       7.687   2.436  22.866  0.00  0.00    +0.060 C 
BRANCH  49  50
ATOM     50  C   UNL     1       8.221   3.836  23.058  0.00  0.00    -0.046 A 
ATOM     51  C   UNL     1       9.264   4.077  23.963  0.00  0.00    +0.004 A 
ATOM     52  C   UNL     1       9.667   5.382  24.252  0.00  0.00    +0.000 A 
ATOM     53  C   UNL     1       9.052   6.463  23.624  0.00  0.00    +0.000 A 
ATOM     54  C   UNL     1       8.042   6.235  22.694  0.00  0.00    +0.000 A 
ATOM     55  C   UNL     1       7.627   4.932  22.416  0.00  0.00    +0.004 A 
ENDBRANCH  49  50
ENDBRANCH   1  49
TORSDOF 14
ENDMDL
MODEL 4
REMARK VINA RESULT:      -6.6      2.250      7.666
REMARK  Name = 
REMARK  17 active torsions:
REMARK  status: ('A' for Active; 'I' for Inactive)
REMARK    1  A    between atoms: C_1  and  C_2
REMARK    2  A    between atoms: C_2  and  C_3
REMARK    3  A    between atoms: C_2  and  C_4
REMARK    4  A    between atoms: C_2  and  N_5
REMARK    5  A    between atoms: C_6  and  C_8
REMARK    6  A    between atoms: N_20  and  C_21
REMARK    7  A    between atoms: C_21  and  C_22
REMARK    8  A    between atoms: C_22  and  C_24
REMARK    9  A    between atoms: C_22  and  O_55
REMARK   10  A    between atoms: C_24  and  C_26
REMARK   11  A    between atoms: C_24  and  N_33
REMARK   12  A    between atoms: C_26  and  C_27
REMARK   13  A    between atoms: C_34  and  C_36
REMARK   14  A    between atoms: C_36  and  C_38
REMARK   15  A    between atoms: C_36  and  N_42
REMARK   16  A    between atoms: C_38  and  C_39
REMARK   17  A    between atoms: C_43  and  C_45
REMARK                            x       y       z     vdW  Elec       q    Type
REMARK                         _______ _______ _______ _____ _____    ______ ____
ROOT
ATOM      1  C   UNL     1       5.611  -2.593  26.512  0.00  0.00    +0.107 C 
ENDROOT
BRANCH   1   2
ATOM      2  N   UNL     1       5.912  -1.293  27.116  0.00  0.00    -0.308 N 
ATOM      3  H   UNL     1       6.634  -0.748  26.658  0.00  0.00    +0.149 HD
ATOM      4  C   UNL     1       5.216  -0.805  28.201  0.00  0.00    +0.234 C 
ATOM      5  O   UNL     1       4.265  -1.408  28.706  0.00  0.00    -0.274 OA
BRANCH   4   6
ATOM      6  C   UNL     1       5.666   0.579  28.722  0.00  0.00    +0.168 C 
BRANCH   6   7
ATOM      7  N   UNL     1       5.906   1.468  27.583  0.00  0.00    -0.298 N 
ATOM      8  H   UNL     1       5.494   1.216  26.681  0.00  0.00    +0.150 HD
ATOM      9  C   UNL     1       6.775   2.532  27.614  0.00  0.00    +0.263 C 
ATOM     10  O   UNL     1       7.357   2.896  28.631  0.00  0.00    -0.269 OA
BRANCH   9  11
ATOM     11  C   UNL     1       6.946   3.263  26.318  0.00  0.00    +0.126 A 
ATOM     12  C   UNL     1       6.128   2.949  25.243  0.00  0.00    +0.033 A 
ATOM     13  C   UNL     1       6.306   3.656  24.061  0.00  0.00    +0.012 A 
ATOM     14  C   UNL     1       7.282   4.660  23.994  0.00  0.00    +0.000 A 
ATOM     15  C   UNL     1       8.073   4.899  25.140  0.00  0.00    +0.072 A 
ATOM     16  C   UNL     1       9.033   5.899  25.076  0.00  0.00    +0.028 A 
ATOM     17  C   UNL     1       9.216   6.669  23.924  0.00  0.00    +0.002 A 
ATOM     18  C   UNL     1       8.432   6.432  22.799  0.00  0.00    +0.001 A 
ATOM     19  C   UNL     1       7.471   5.424  22.830  0.00  0.00    +0.010 A 
ATOM     20  N   UNL     1       7.923   4.208  26.283  0.00  0.00    -0.242 NA
ENDBRANCH   9  11
ENDBRANCH   6   7
BRANCH   6  21
ATOM     21  C   UNL     1       4.696   1.157  29.751  0.00  0.00    +0.127 C 
BRANCH  21  22
ATOM     22  C   UNL     1       3.512   1.819  29.095  0.00  0.00    +0.213 C 
ATOM     23  N   UNL     1       2.377   1.068  29.035  0.00  0.00    -0.329 N 
ATOM     24  H   UNL     1       1.539   1.511  28.680  0.00  0.00    +0.145 HD
ATOM     25  H   UNL     1       2.285   0.200  29.546  0.00  0.00    +0.145 HD
ATOM     26  O   UNL     1       3.550   2.957  28.641  0.00  0.00    -0.276 OA
ENDBRANCH  21  22
ENDBRANCH   6  21
ENDBRANCH   4   6
ENDBRANCH   1   2
BRANCH   1  27
ATOM     27  C   UNL     1       6.886  -3.217  25.890  0.00  0.00    +0.149 C 
BRANCH  27  28
ATOM     28  O   UNL     1       7.496  -4.184  26.748  0.00  0.00    -0.389 OA
ATOM     29  H   UNL     1       7.954  -4.807  26.152  0.00  0.00    +0.210 HD
ENDBRANCH  27  28
BRANCH  27  30
ATOM     30  C   UNL     1       7.921  -2.132  25.485  0.00  0.00    +0.118 C 
BRANCH  30  32
ATOM     31  C   UNL     1       7.610  -1.632  23.074  0.00  0.00    +0.143 C 
ATOM     32  N   UNL     1       7.436  -1.141  24.487  0.00  0.00    -0.289 NA
ATOM     33  C   UNL     1       8.191   0.143  24.583  0.00  0.00    +0.089 C 
ATOM     34  C   UNL     1       9.706  -0.004  24.303  0.00  0.00    +0.006 C 
ATOM     35  C   UNL     1       9.954  -0.588  22.911  0.00  0.00    -0.005 C 
ATOM     36  C   UNL     1       9.749   0.411  21.760  0.00  0.00    +0.004 C 
ATOM     37  C   UNL     1       9.814   1.910  22.059  0.00  0.00    +0.000 C 
ATOM     38  C   UNL     1      10.000   2.370  23.500  0.00  0.00    +0.000 C 
ATOM     39  C   UNL     1      10.495   1.296  24.446  0.00  0.00    +0.005 C 
ATOM     40  C   UNL     1       9.095  -1.840  22.686  0.00  0.00    +0.032 C 
BRANCH  31  43
ATOM     41  N   UNL     1       7.458  -4.102  22.629  0.00  0.00    -0.309 N 
ATOM     42  H   UNL     1       8.438  -4.102  22.891  0.00  0.00    +0.149 HD
ATOM     43  C   UNL     1       6.803  -2.891  22.682  0.00  0.00    +0.231 C 
ATOM     44  O   UNL     1       5.580  -2.816  22.526  0.00  0.00    -0.274 OA
BRANCH  41  46
ATOM     45  C   UNL     1       6.141  -5.409  20.957  0.00  0.00    +0.031 C 
ATOM     46  C   UNL     1       6.759  -5.384  22.370  0.00  0.00    +0.026 C 
ATOM     47  C   UNL     1       7.761  -6.547  22.456  0.00  0.00    +0.031 C 
ATOM     48  C   UNL     1       5.653  -5.632  23.415  0.00  0.00    +0.031 C 
ENDBRANCH  41  46
ENDBRANCH  31  43
ENDBRANCH  30  32
ENDBRANCH  27  30
ENDBRANCH   1  27
BRANCH   1  49
ATOM     49  C   UNL     1       4.354  -2.552  25.619  0.00  0.00    +0.060 C 
BRANCH  49  50
ATOM     50  C   UNL     1       3.410  -3.731  25.631  0.00  0.00    -0.046 A 
ATOM     51  C   UNL     1       3.473  -4.677  26.664  0.00  0.00    +0.004 A 
ATOM     52  C   UNL     1       2.705  -5.841  26.609  0.00  0.00    +0.000 A 
ATOM     53  C   UNL     1       1.846  -6.067  25.536  0.00  0.00    +0.000 A 
ATOM     54  C   UNL     1       1.745  -5.117  24.524  0.00  0.00    +0.000 A 
ATOM     55  C   UNL     1       2.524  -3.961  24.569  0.00  0.00    +0.004 A 
ENDBRANCH  49  50
ENDBRANCH   1  49
TORSDOF 14
ENDMDL
MODEL 5
REMARK VINA RESULT:      -6.5      2.438      7.319
REMARK  Name = 
REMARK  17 active torsions:
REMARK  status: ('A' for Active; 'I' for Inactive)
REMARK    1  A    between atoms: C_1  and  C_2
REMARK    2  A    between atoms: C_2  and  C_3
REMARK    3  A    between atoms: C_2  and  C_4
REMARK    4  A    between atoms: C_2  and  N_5
REMARK    5  A    between atoms: C_6  and  C_8
REMARK    6  A    between atoms: N_20  and  C_21
REMARK    7  A    between atoms: C_21  and  C_22
REMARK    8  A    between atoms: C_22  and  C_24
REMARK    9  A    between atoms: C_22  and  O_55
REMARK   10  A    between atoms: C_24  and  C_26
REMARK   11  A    between atoms: C_24  and  N_33
REMARK   12  A    between atoms: C_26  and  C_27
REMARK   13  A    between atoms: C_34  and  C_36
REMARK   14  A    between atoms: C_36  and  C_38
REMARK   15  A    between atoms: C_36  and  N_42
REMARK   16  A    between atoms: C_38  and  C_39
REMARK   17  A    between atoms: C_43  and  C_45
REMARK                            x       y       z     vdW  Elec       q    Type
REMARK                         _______ _______ _______ _____ _____    ______ ____
ROOT
ATOM      1  C   UNL     1       6.101  -2.428  26.860  0.00  0.00    +0.107 C 
ENDROOT
BRANCH   1   2
ATOM      2  N   UNL     1       5.567  -1.126  27.270  0.00  0.00    -0.308 N 
ATOM      3  H   UNL     1       5.865  -0.331  26.716  0.00  0.00    +0.149 HD
ATOM      4  C   UNL     1       4.665  -0.991  28.303  0.00  0.00    +0.234 C 
ATOM      5  O   UNL     1       4.211  -1.960  28.920  0.00  0.00    -0.274 OA
BRANCH   4   6
ATOM      6  C   UNL     1       4.210   0.453  28.614  0.00  0.00    +0.168 C 
BRANCH   6   7
ATOM      7  N   UNL     1       4.805   1.367  27.636  0.00  0.00    -0.298 N 
ATOM      8  H   UNL     1       4.485   1.308  26.666  0.00  0.00    +0.150 HD
ATOM      9  C   UNL     1       5.871   2.190  27.910  0.00  0.00    +0.263 C 
ATOM     10  O   UNL     1       6.360   2.307  29.029  0.00  0.00    -0.269 OA
BRANCH   9  11
ATOM     11  C   UNL     1       6.387   2.983  26.749  0.00  0.00    +0.126 A 
ATOM     12  C   UNL     1       7.217   4.071  26.979  0.00  0.00    +0.033 A 
ATOM     13  C   UNL     1       7.688   4.775  25.878  0.00  0.00    +0.012 A 
ATOM     14  C   UNL     1       7.329   4.364  24.587  0.00  0.00    +0.000 A 
ATOM     15  C   UNL     1       6.470   3.249  24.456  0.00  0.00    +0.072 A 
ATOM     16  C   UNL     1       6.122   2.838  23.177  0.00  0.00    +0.028 A 
ATOM     17  C   UNL     1       6.610   3.486  22.039  0.00  0.00    +0.002 A 
ATOM     18  C   UNL     1       7.458   4.581  22.174  0.00  0.00    +0.001 A 
ATOM     19  C   UNL     1       7.812   5.026  23.446  0.00  0.00    +0.010 A 
ATOM     20  N   UNL     1       5.993   2.573  25.515  0.00  0.00    -0.242 NA
ENDBRANCH   9  11
ENDBRANCH   6   7
BRANCH   6  21
ATOM     21  C   UNL     1       2.689   0.574  28.714  0.00  0.00    +0.127 C 
BRANCH  21  22
ATOM     22  C   UNL     1       2.024   0.409  27.373  0.00  0.00    +0.213 C 
ATOM     23  N   UNL     1       1.159  -0.638  27.270  0.00  0.00    -0.329 N 
ATOM     24  H   UNL     1       0.629  -0.729  26.413  0.00  0.00    +0.145 HD
ATOM     25  H   UNL     1       0.855  -1.159  28.083  0.00  0.00    +0.145 HD
ATOM     26  O   UNL     1       2.236   1.157  26.425  0.00  0.00    -0.276 OA
ENDBRANCH  21  22
ENDBRANCH   6  21
ENDBRANCH   4   6
ENDBRANCH   1   2
BRANCH   1  27
ATOM     27  C   UNL     1       7.630  -2.345  26.626  0.00  0.00    +0.149 C 
BRANCH  27  28
ATOM     28  O   UNL     1       8.202  -1.153  27.170  0.00  0.00    -0.389 OA
ATOM     29  H   UNL     1       8.135  -0.486  26.461  0.00  0.00    +0.210 HD
ENDBRANCH  27  28
BRANCH  27  30
ATOM     30  C   UNL     1       7.991  -2.474  25.121  0.00  0.00    +0.118 C 
BRANCH  30  32
ATOM     31  C   UNL     1       7.575  -1.716  22.794  0.00  0.00    +0.143 C 
ATOM     32  N   UNL     1       7.500  -1.366  24.257  0.00  0.00    -0.289 NA
ATOM     33  C   UNL     1       8.315  -0.130  24.438  0.00  0.00    +0.089 C 
ATOM     34  C   UNL     1       9.805  -0.307  24.059  0.00  0.00    +0.006 C 
ATOM     35  C   UNL     1       9.953  -0.754  22.603  0.00  0.00    -0.005 C 
ATOM     36  C   UNL     1       9.731   0.366  21.572  0.00  0.00    +0.004 C 
ATOM     37  C   UNL     1       9.879   1.823  22.016  0.00  0.00    +0.000 C 
ATOM     38  C   UNL     1      10.162   2.124  23.483  0.00  0.00    +0.000 C 
ATOM     39  C   UNL     1      10.658   0.940  24.287  0.00  0.00    +0.005 C 
ATOM     40  C   UNL     1       9.027  -1.941  22.303  0.00  0.00    +0.032 C 
BRANCH  31  43
ATOM     41  N   UNL     1       7.239  -4.161  22.311  0.00  0.00    -0.309 N 
ATOM     42  H   UNL     1       8.191  -4.250  22.651  0.00  0.00    +0.149 HD
ATOM     43  C   UNL     1       6.693  -2.895  22.325  0.00  0.00    +0.231 C 
ATOM     44  O   UNL     1       5.498  -2.710  22.072  0.00  0.00    -0.274 OA
BRANCH  41  46
ATOM     45  C   UNL     1       5.085  -5.362  22.699  0.00  0.00    +0.031 C 
ATOM     46  C   UNL     1       6.451  -5.373  21.983  0.00  0.00    +0.026 C 
ATOM     47  C   UNL     1       6.178  -5.420  20.470  0.00  0.00    +0.031 C 
ATOM     48  C   UNL     1       7.218  -6.653  22.367  0.00  0.00    +0.031 C 
ENDBRANCH  41  46
ENDBRANCH  31  43
ENDBRANCH  30  32
ENDBRANCH  27  30
ENDBRANCH   1  27
BRANCH   1  49
ATOM     49  C   UNL     1       5.264  -3.082  25.742  0.00  0.00    +0.060 C 
BRANCH  49  50
ATOM     50  C   UNL     1       4.640  -4.435  25.992  0.00  0.00    -0.046 A 
ATOM     51  C   UNL     1       3.249  -4.593  25.936  0.00  0.00    +0.004 A 
ATOM     52  C   UNL     1       2.656  -5.802  26.305  0.00  0.00    +0.000 A 
ATOM     53  C   UNL     1       3.444  -6.877  26.710  0.00  0.00    +0.000 A 
ATOM     54  C   UNL     1       4.829  -6.745  26.731  0.00  0.00    +0.000 A 
ATOM     55  C   UNL     1       5.422  -5.533  26.379  0.00  0.00    +0.004 A 
ENDBRANCH  49  50
ENDBRANCH   1  49
TORSDOF 14
ENDMDL
MODEL 6
REMARK VINA RESULT:      -6.4      2.803      5.862
REMARK  Name = 
REMARK  17 active torsions:
REMARK  status: ('A' for Active; 'I' for Inactive)
REMARK    1  A    between atoms: C_1  and  C_2
REMARK    2  A    between atoms: C_2  and  C_3
REMARK    3  A    between atoms: C_2  and  C_4
REMARK    4  A    between atoms: C_2  and  N_5
REMARK    5  A    between atoms: C_6  and  C_8
REMARK    6  A    between atoms: N_20  and  C_21
REMARK    7  A    between atoms: C_21  and  C_22
REMARK    8  A    between atoms: C_22  and  C_24
REMARK    9  A    between atoms: C_22  and  O_55
REMARK   10  A    between atoms: C_24  and  C_26
REMARK   11  A    between atoms: C_24  and  N_33
REMARK   12  A    between atoms: C_26  and  C_27
REMARK   13  A    between atoms: C_34  and  C_36
REMARK   14  A    between atoms: C_36  and  C_38
REMARK   15  A    between atoms: C_36  and  N_42
REMARK   16  A    between atoms: C_38  and  C_39
REMARK   17  A    between atoms: C_43  and  C_45
REMARK                            x       y       z     vdW  Elec       q    Type
REMARK                         _______ _______ _______ _____ _____    ______ ____
ROOT
ATOM      1  C   UNL     1       9.397  -0.767  25.071  0.00  0.00    +0.107 C 
ENDROOT
BRANCH   1   2
ATOM      2  N   UNL     1       8.541  -1.782  24.451  0.00  0.00    -0.308 N 
ATOM      3  H   UNL     1       7.568  -1.525  24.327  0.00  0.00    +0.149 HD
ATOM      4  C   UNL     1       9.033  -2.989  24.002  0.00  0.00    +0.234 C 
ATOM      5  O   UNL     1      10.234  -3.275  24.049  0.00  0.00    -0.274 OA
BRANCH   4   6
ATOM      6  C   UNL     1       7.995  -3.950  23.382  0.00  0.00    +0.168 C 
BRANCH   6   7
ATOM      7  N   UNL     1       7.137  -4.483  24.443  0.00  0.00    -0.298 N 
ATOM      8  H   UNL     1       6.176  -4.135  24.505  0.00  0.00    +0.150 HD
ATOM      9  C   UNL     1       7.587  -5.302  25.450  0.00  0.00    +0.263 C 
ATOM     10  O   UNL     1       8.731  -5.744  25.498  0.00  0.00    -0.269 OA
BRANCH   9  11
ATOM     11  C   UNL     1       6.571  -5.666  26.488  0.00  0.00    +0.126 A 
ATOM     12  C   UNL     1       6.878  -5.507  27.831  0.00  0.00    +0.033 A 
ATOM     13  C   UNL     1       5.906  -5.842  28.766  0.00  0.00    +0.012 A 
ATOM     14  C   UNL     1       4.659  -6.310  28.332  0.00  0.00    +0.000 A 
ATOM     15  C   UNL     1       4.445  -6.447  26.941  0.00  0.00    +0.072 A 
ATOM     16  C   UNL     1       3.206  -6.902  26.512  0.00  0.00    +0.028 A 
ATOM     17  C   UNL     1       2.182  -7.206  27.413  0.00  0.00    +0.002 A 
ATOM     18  C   UNL     1       2.397  -7.066  28.780  0.00  0.00    +0.001 A 
ATOM     19  C   UNL     1       3.635  -6.625  29.241  0.00  0.00    +0.010 A 
ATOM     20  N   UNL     1       5.384  -6.145  26.029  0.00  0.00    -0.242 NA
ENDBRANCH   9  11
ENDBRANCH   6   7
BRANCH   6  21
ATOM     21  C   UNL     1       7.216  -3.305  22.236  0.00  0.00    +0.127 C 
BRANCH  21  22
ATOM     22  C   UNL     1       6.004  -4.116  21.856  0.00  0.00    +0.213 C 
ATOM     23  N   UNL     1       6.239  -5.172  21.030  0.00  0.00    -0.329 N 
ATOM     24  H   UNL     1       5.463  -5.790  20.824  0.00  0.00    +0.145 HD
ATOM     25  H   UNL     1       7.177  -5.492  20.828  0.00  0.00    +0.145 HD
ATOM     26  O   UNL     1       4.874  -3.856  22.256  0.00  0.00    -0.276 OA
ENDBRANCH  21  22
ENDBRANCH   6  21
ENDBRANCH   4   6
ENDBRANCH   1   2
BRANCH   1  27
ATOM     27  C   UNL     1       8.746  -0.215  26.363  0.00  0.00    +0.149 C 
BRANCH  27  28
ATOM     28  O   UNL     1       9.446  -0.617  27.543  0.00  0.00    -0.389 OA
ATOM     29  H   UNL     1       9.376   0.138  28.156  0.00  0.00    +0.210 HD
ENDBRANCH  27  28
BRANCH  27  30
ATOM     30  C   UNL     1       7.247  -0.610  26.469  0.00  0.00    +0.118 C 
BRANCH  30  32
ATOM     31  C   UNL     1       5.027   0.044  27.365  0.00  0.00    +0.143 C 
ATOM     32  N   UNL     1       6.513   0.001  27.609  0.00  0.00    -0.289 NA
ATOM     33  C   UNL     1       6.943   1.411  27.842  0.00  0.00    +0.089 C 
ATOM     34  C   UNL     1       6.677   2.349  26.640  0.00  0.00    +0.006 C 
ATOM     35  C   UNL     1       5.191   2.369  26.277  0.00  0.00    -0.005 C 
ATOM     36  C   UNL     1       4.317   3.199  27.233  0.00  0.00    +0.004 C 
ATOM     37  C   UNL     1       4.979   4.275  28.097  0.00  0.00    +0.000 C 
ATOM     38  C   UNL     1       6.494   4.437  28.045  0.00  0.00    +0.000 C 
ATOM     39  C   UNL     1       7.158   3.783  26.852  0.00  0.00    +0.005 C 
ATOM     40  C   UNL     1       4.640   0.940  26.162  0.00  0.00    +0.032 C 
BRANCH  31  43
ATOM     41  N   UNL     1       2.978  -1.335  26.897  0.00  0.00    -0.309 N 
ATOM     42  H   UNL     1       2.542  -0.435  26.721  0.00  0.00    +0.149 HD
ATOM     43  C   UNL     1       4.315  -1.321  27.229  0.00  0.00    +0.231 C 
ATOM     44  O   UNL     1       4.965  -2.367  27.315  0.00  0.00    -0.274 OA
BRANCH  41  46
ATOM     45  C   UNL     1       0.772  -2.289  26.218  0.00  0.00    +0.031 C 
ATOM     46  C   UNL     1       2.227  -2.587  26.635  0.00  0.00    +0.026 C 
ATOM     47  C   UNL     1       2.890  -3.357  25.481  0.00  0.00    +0.031 C 
ATOM     48  C   UNL     1       2.226  -3.501  27.876  0.00  0.00    +0.031 C 
ENDBRANCH  41  46
ENDBRANCH  31  43
ENDBRANCH  30  32
ENDBRANCH  27  30
ENDBRANCH   1  27
BRANCH   1  49
ATOM     49  C   UNL     1       9.908   0.275  24.054  0.00  0.00    +0.060 C 
BRANCH  49  50
ATOM     50  C   UNL     1       8.978   1.379  23.609  0.00  0.00    -0.046 A 
ATOM     51  C   UNL     1       9.336   2.721  23.795  0.00  0.00    +0.004 A 
ATOM     52  C   UNL     1       8.427   3.744  23.519  0.00  0.00    +0.000 A 
ATOM     53  C   UNL     1       7.157   3.442  23.032  0.00  0.00    +0.000 A 
ATOM     54  C   UNL     1       6.804   2.116  22.806  0.00  0.00    +0.000 A 
ATOM     55  C   UNL     1       7.706   1.092  23.097  0.00  0.00    +0.004 A 
ENDBRANCH  49  50
ENDBRANCH   1  49
TORSDOF 14
ENDMDL
MODEL 7
REMARK VINA RESULT:      -6.4      2.895      5.137
REMARK  Name = 
REMARK  17 active torsions:
REMARK  status: ('A' for Active; 'I' for Inactive)
REMARK    1  A    between atoms: C_1  and  C_2
REMARK    2  A    between atoms: C_2  and  C_3
REMARK    3  A    between atoms: C_2  and  C_4
REMARK    4  A    between atoms: C_2  and  N_5
REMARK    5  A    between atoms: C_6  and  C_8
REMARK    6  A    between atoms: N_20  and  C_21
REMARK    7  A    between atoms: C_21  and  C_22
REMARK    8  A    between atoms: C_22  and  C_24
REMARK    9  A    between atoms: C_22  and  O_55
REMARK   10  A    between atoms: C_24  and  C_26
REMARK   11  A    between atoms: C_24  and  N_33
REMARK   12  A    between atoms: C_26  and  C_27
REMARK   13  A    between atoms: C_34  and  C_36
REMARK   14  A    between atoms: C_36  and  C_38
REMARK   15  A    between atoms: C_36  and  N_42
REMARK   16  A    between atoms: C_38  and  C_39
REMARK   17  A    between atoms: C_43  and  C_45
REMARK                            x       y       z     vdW  Elec       q    Type
REMARK                         _______ _______ _______ _____ _____    ______ ____
ROOT
ATOM      1  C   UNL     1       8.394  -2.692  26.269  0.00  0.00    +0.107 C 
ENDROOT
BRANCH   1   2
ATOM      2  N   UNL     1       7.093  -3.069  26.829  0.00  0.00    -0.308 N 
ATOM      3  H   UNL     1       6.347  -2.393  26.711  0.00  0.00    +0.149 HD
ATOM      4  C   UNL     1       6.873  -4.293  27.425  0.00  0.00    +0.234 C 
ATOM      5  O   UNL     1       7.742  -5.169  27.483  0.00  0.00    -0.274 OA
BRANCH   4   6
ATOM      6  C   UNL     1       5.448  -4.528  27.972  0.00  0.00    +0.168 C 
BRANCH   6   7
ATOM      7  N   UNL     1       4.625  -5.141  26.928  0.00  0.00    -0.298 N 
ATOM      8  H   UNL     1       5.044  -5.879  26.356  0.00  0.00    +0.150 HD
ATOM      9  C   UNL     1       3.380  -4.682  26.567  0.00  0.00    +0.263 C 
ATOM     10  O   UNL     1       2.802  -3.775  27.157  0.00  0.00    -0.269 OA
BRANCH   9  11
ATOM     11  C   UNL     1       2.740  -5.392  25.415  0.00  0.00    +0.126 A 
ATOM     12  C   UNL     1       2.647  -4.757  24.186  0.00  0.00    +0.033 A 
ATOM     13  C   UNL     1       2.059  -5.451  23.136  0.00  0.00    +0.012 A 
ATOM     14  C   UNL     1       1.595  -6.757  23.343  0.00  0.00    +0.000 A 
ATOM     15  C   UNL     1       1.725  -7.315  24.635  0.00  0.00    +0.072 A 
ATOM     16  C   UNL     1       1.274  -8.612  24.836  0.00  0.00    +0.028 A 
ATOM     17  C   UNL     1       0.720  -9.366  23.798  0.00  0.00    +0.002 A 
ATOM     18  C   UNL     1       0.597  -8.813  22.527  0.00  0.00    +0.001 A 
ATOM     19  C   UNL     1       1.027  -7.508  22.300  0.00  0.00    +0.010 A 
ATOM     20  N   UNL     1       2.275  -6.646  25.662  0.00  0.00    -0.242 NA
ENDBRANCH   9  11
ENDBRANCH   6   7
BRANCH   6  21
ATOM     21  C   UNL     1       5.450  -5.312  29.284  0.00  0.00    +0.127 C 
BRANCH  21  22
ATOM     22  C   UNL     1       5.049  -6.750  29.078  0.00  0.00    +0.213 C 
ATOM     23  N   UNL     1       3.912  -7.141  29.716  0.00  0.00    -0.329 N 
ATOM     24  H   UNL     1       3.565  -8.073  29.531  0.00  0.00    +0.145 HD
ATOM     25  H   UNL     1       3.289  -6.472  30.153  0.00  0.00    +0.145 HD
ATOM     26  O   UNL     1       5.693  -7.530  28.385  0.00  0.00    -0.276 OA
ENDBRANCH  21  22
ENDBRANCH   6  21
ENDBRANCH   4   6
ENDBRANCH   1   2
BRANCH   1  27
ATOM     27  C   UNL     1       8.609  -1.161  26.366  0.00  0.00    +0.149 C 
BRANCH  27  28
ATOM     28  O   UNL     1       9.299  -0.781  27.559  0.00  0.00    -0.389 OA
ATOM     29  H   UNL     1      10.194  -1.160  27.472  0.00  0.00    +0.210 HD
ENDBRANCH  27  28
BRANCH  27  30
ATOM     30  C   UNL     1       7.271  -0.381  26.249  0.00  0.00    +0.118 C 
BRANCH  30  32
ATOM     31  C   UNL     1       6.081   1.761  25.858  0.00  0.00    +0.143 C 
ATOM     32  N   UNL     1       7.412   1.089  26.071  0.00  0.00    -0.289 NA
ATOM     33  C   UNL     1       8.246   1.417  24.877  0.00  0.00    +0.089 C 
ATOM     34  C   UNL     1       7.651   0.903  23.544  0.00  0.00    +0.006 C 
ATOM     35  C   UNL     1       6.253   1.477  23.308  0.00  0.00    -0.005 C 
ATOM     36  C   UNL     1       6.241   2.946  22.850  0.00  0.00    +0.004 C 
ATOM     37  C   UNL     1       7.502   3.535  22.215  0.00  0.00    +0.000 C 
ATOM     38  C   UNL     1       8.758   2.675  22.128  0.00  0.00    +0.000 C 
ATOM     39  C   UNL     1       8.521   1.191  22.322  0.00  0.00    +0.005 C 
ATOM     40  C   UNL     1       5.376   1.304  24.556  0.00  0.00    +0.032 C 
BRANCH  31  43
ATOM     41  N   UNL     1       3.989   0.847  26.911  0.00  0.00    -0.309 N 
ATOM     42  H   UNL     1       3.929   0.296  26.061  0.00  0.00    +0.149 HD
ATOM     43  C   UNL     1       5.078   1.683  27.031  0.00  0.00    +0.231 C 
ATOM     44  O   UNL     1       5.315   2.279  28.087  0.00  0.00    -0.274 OA
BRANCH  41  46
ATOM     45  C   UNL     1       1.851  -0.271  27.555  0.00  0.00    +0.031 C 
ATOM     46  C   UNL     1       3.027   0.615  28.015  0.00  0.00    +0.026 C 
ATOM     47  C   UNL     1       3.731  -0.117  29.170  0.00  0.00    +0.031 C 
ATOM     48  C   UNL     1       2.480   1.947  28.563  0.00  0.00    +0.031 C 
ENDBRANCH  41  46
ENDBRANCH  31  43
ENDBRANCH  30  32
ENDBRANCH  27  30
ENDBRANCH   1  27
BRANCH   1  49
ATOM     49  C   UNL     1       8.655  -3.342  24.894  0.00  0.00    +0.060 C 
BRANCH  49  50
ATOM     50  C   UNL     1       7.485  -3.605  23.976  0.00  0.00    -0.046 A 
ATOM     51  C   UNL     1       7.077  -4.919  23.710  0.00  0.00    +0.004 A 
ATOM     52  C   UNL     1       6.091  -5.178  22.755  0.00  0.00    +0.000 A 
ATOM     53  C   UNL     1       5.483  -4.128  22.071  0.00  0.00    +0.000 A 
ATOM     54  C   UNL     1       5.851  -2.816  22.355  0.00  0.00    +0.000 A 
ATOM     55  C   UNL     1       6.847  -2.558  23.297  0.00  0.00    +0.004 A 
ENDBRANCH  49  50
ENDBRANCH   1  49
TORSDOF 14
ENDMDL
MODEL 8
REMARK VINA RESULT:      -6.4      2.082      5.925
REMARK  Name = 
REMARK  17 active torsions:
REMARK  status: ('A' for Active; 'I' for Inactive)
REMARK    1  A    between atoms: C_1  and  C_2
REMARK    2  A    between atoms: C_2  and  C_3
REMARK    3  A    between atoms: C_2  and  C_4
REMARK    4  A    between atoms: C_2  and  N_5
REMARK    5  A    between atoms: C_6  and  C_8
REMARK    6  A    between atoms: N_20  and  C_21
REMARK    7  A    between atoms: C_21  and  C_22
REMARK    8  A    between atoms: C_22  and  C_24
REMARK    9  A    between atoms: C_22  and  O_55
REMARK   10  A    between atoms: C_24  and  C_26
REMARK   11  A    between atoms: C_24  and  N_33
REMARK   12  A    between atoms: C_26  and  C_27
REMARK   13  A    between atoms: C_34  and  C_36
REMARK   14  A    between atoms: C_36  and  C_38
REMARK   15  A    between atoms: C_36  and  N_42
REMARK   16  A    between atoms: C_38  and  C_39
REMARK   17  A    between atoms: C_43  and  C_45
REMARK                            x       y       z     vdW  Elec       q    Type
REMARK                         _______ _______ _______ _____ _____    ______ ____
ROOT
ATOM      1  C   UNL     1       4.912   3.838  23.789  0.00  0.00    +0.107 C 
ENDROOT
BRANCH   1   2
ATOM      2  N   UNL     1       5.043   3.018  24.997  0.00  0.00    -0.308 N 
ATOM      3  H   UNL     1       5.968   2.987  25.412  0.00  0.00    +0.149 HD
ATOM      4  C   UNL     1       3.968   2.378  25.575  0.00  0.00    +0.234 C 
ATOM      5  O   UNL     1       2.817   2.491  25.142  0.00  0.00    -0.274 OA
BRANCH   4   6
ATOM      6  C   UNL     1       4.281   1.546  26.838  0.00  0.00    +0.168 C 
BRANCH   6   7
ATOM      7  N   UNL     1       4.912   0.285  26.442  0.00  0.00    -0.298 N 
ATOM      8  H   UNL     1       5.876   0.317  26.099  0.00  0.00    +0.150 HD
ATOM      9  C   UNL     1       4.242  -0.912  26.357  0.00  0.00    +0.263 C 
ATOM     10  O   UNL     1       3.073  -1.054  26.701  0.00  0.00    -0.269 OA
BRANCH   9  11
ATOM     11  C   UNL     1       5.047  -2.067  25.846  0.00  0.00    +0.126 A 
ATOM     12  C   UNL     1       5.876  -2.759  26.715  0.00  0.00    +0.033 A 
ATOM     13  C   UNL     1       6.599  -3.833  26.210  0.00  0.00    +0.012 A 
ATOM     14  C   UNL     1       6.460  -4.189  24.861  0.00  0.00    +0.000 A 
ATOM     15  C   UNL     1       5.598  -3.414  24.053  0.00  0.00    +0.072 A 
ATOM     16  C   UNL     1       5.454  -3.772  22.720  0.00  0.00    +0.028 A 
ATOM     17  C   UNL     1       6.123  -4.874  22.179  0.00  0.00    +0.002 A 
ATOM     18  C   UNL     1       6.969  -5.634  22.980  0.00  0.00    +0.001 A 
ATOM     19  C   UNL     1       7.143  -5.289  24.318  0.00  0.00    +0.010 A 
ATOM     20  N   UNL     1       4.909  -2.362  24.526  0.00  0.00    -0.242 NA
ENDBRANCH   9  11
ENDBRANCH   6   7
BRANCH   6  21
ATOM     21  C   UNL     1       5.089   2.334  27.869  0.00  0.00    +0.127 C 
BRANCH  21  22
ATOM     22  C   UNL     1       6.304   1.571  28.330  0.00  0.00    +0.213 C 
ATOM     23  N   UNL     1       7.494   2.003  27.828  0.00  0.00    -0.329 N 
ATOM     24  H   UNL     1       8.339   1.571  28.182  0.00  0.00    +0.145 HD
ATOM     25  H   UNL     1       7.575   2.877  27.324  0.00  0.00    +0.145 HD
ATOM     26  O   UNL     1       6.244   0.622  29.104  0.00  0.00    -0.276 OA
ENDBRANCH  21  22
ENDBRANCH   6  21
ENDBRANCH   4   6
ENDBRANCH   1   2
BRANCH   1  27
ATOM     27  C   UNL     1       6.262   3.922  23.034  0.00  0.00    +0.149 C 
BRANCH  27  28
ATOM     28  O   UNL     1       6.183   4.742  21.866  0.00  0.00    -0.389 OA
ATOM     29  H   UNL     1       6.523   4.189  21.137  0.00  0.00    +0.210 HD
ENDBRANCH  27  28
BRANCH  27  30
ATOM     30  C   UNL     1       6.806   2.515  22.666  0.00  0.00    +0.118 C 
BRANCH  30  32
ATOM     31  C   UNL     1       8.704   2.158  24.225  0.00  0.00    +0.143 C 
ATOM     32  N   UNL     1       7.323   1.720  23.811  0.00  0.00    -0.289 NA
ATOM     33  C   UNL     1       7.426   0.271  23.468  0.00  0.00    +0.089 C 
ATOM     34  C   UNL     1       8.398  -0.023  22.300  0.00  0.00    +0.006 C 
ATOM     35  C   UNL     1       9.807   0.482  22.616  0.00  0.00    -0.005 C 
ATOM     36  C   UNL     1      10.588  -0.400  23.606  0.00  0.00    +0.004 C 
ATOM     37  C   UNL     1      10.163  -1.857  23.796  0.00  0.00    +0.000 C 
ATOM     38  C   UNL     1       8.930  -2.370  23.060  0.00  0.00    +0.000 C 
ATOM     39  C   UNL     1       8.473  -1.498  21.909  0.00  0.00    +0.005 C 
ATOM     40  C   UNL     1       9.764   1.932  23.118  0.00  0.00    +0.032 C 
BRANCH  31  43
ATOM     41  N   UNL     1       9.724   4.455  24.149  0.00  0.00    -0.309 N 
ATOM     42  H   UNL     1      10.225   4.090  23.345  0.00  0.00    +0.149 HD
ATOM     43  C   UNL     1       8.832   3.602  24.762  0.00  0.00    +0.231 C 
ATOM     44  O   UNL     1       8.072   3.999  25.651  0.00  0.00    -0.274 OA
BRANCH  41  46
ATOM     45  C   UNL     1      11.295   6.388  24.329  0.00  0.00    +0.031 C 
ATOM     46  C   UNL     1       9.848   5.887  24.514  0.00  0.00    +0.026 C 
ATOM     47  C   UNL     1       8.946   6.734  23.600  0.00  0.00    +0.031 C 
ATOM     48  C   UNL     1       9.406   6.128  25.970  0.00  0.00    +0.031 C 
ENDBRANCH  41  46
ENDBRANCH  31  43
ENDBRANCH  30  32
ENDBRANCH  27  30
ENDBRANCH   1  27
BRANCH   1  49
ATOM     49  C   UNL     1       4.185   5.171  24.059  0.00  0.00    +0.060 C 
BRANCH  49  50
ATOM     50  C   UNL     1       4.467   5.911  25.345  0.00  0.00    -0.046 A 
ATOM     51  C   UNL     1       5.702   6.545  25.539  0.00  0.00    +0.004 A 
ATOM     52  C   UNL     1       6.025   7.108  26.775  0.00  0.00    +0.000 A 
ATOM     53  C   UNL     1       5.112   7.067  27.826  0.00  0.00    +0.000 A 
ATOM     54  C   UNL     1       3.868   6.475  27.634  0.00  0.00    +0.000 A 
ATOM     55  C   UNL     1       3.550   5.898  26.405  0.00  0.00    +0.004 A 
ENDBRANCH  49  50
ENDBRANCH   1  49
TORSDOF 14
ENDMDL
MODEL 9
REMARK VINA RESULT:      -6.2      2.651      5.361
REMARK  Name = 
REMARK  17 active torsions:
REMARK  status: ('A' for Active; 'I' for Inactive)
REMARK    1  A    between atoms: C_1  and  C_2
REMARK    2  A    between atoms: C_2  and  C_3
REMARK    3  A    between atoms: C_2  and  C_4
REMARK    4  A    between atoms: C_2  and  N_5
REMARK    5  A    between atoms: C_6  and  C_8
REMARK    6  A    between atoms: N_20  and  C_21
REMARK    7  A    between atoms: C_21  and  C_22
REMARK    8  A    between atoms: C_22  and  C_24
REMARK    9  A    between atoms: C_22  and  O_55
REMARK   10  A    between atoms: C_24  and  C_26
REMARK   11  A    between atoms: C_24  and  N_33
REMARK   12  A    between atoms: C_26  and  C_27
REMARK   13  A    between atoms: C_34  and  C_36
REMARK   14  A    between atoms: C_36  and  C_38
REMARK   15  A    between atoms: C_36  and  N_42
REMARK   16  A    between atoms: C_38  and  C_39
REMARK   17  A    between atoms: C_43  and  C_45
REMARK                            x       y       z     vdW  Elec       q    Type
REMARK                         _______ _______ _______ _____ _____    ______ ____
ROOT
ATOM      1  C   UNL     1       7.128  -1.890  24.717  0.00  0.00    +0.107 C 
ENDROOT
BRANCH   1   2
ATOM      2  N   UNL     1       6.414  -2.895  25.508  0.00  0.00    -0.308 N 
ATOM      3  H   UNL     1       5.452  -3.070  25.238  0.00  0.00    +0.149 HD
ATOM      4  C   UNL     1       7.023  -3.608  26.518  0.00  0.00    +0.234 C 
ATOM      5  O   UNL     1       8.221  -3.483  26.791  0.00  0.00    -0.274 OA
BRANCH   4   6
ATOM      6  C   UNL     1       6.126  -4.623  27.261  0.00  0.00    +0.168 C 
BRANCH   6   7
ATOM      7  N   UNL     1       5.224  -5.263  26.301  0.00  0.00    -0.298 N 
ATOM      8  H   UNL     1       5.637  -5.724  25.486  0.00  0.00    +0.150 HD
ATOM      9  C   UNL     1       3.855  -5.148  26.345  0.00  0.00    +0.263 C 
ATOM     10  O   UNL     1       3.256  -4.580  27.252  0.00  0.00    -0.269 OA
BRANCH   9  11
ATOM     11  C   UNL     1       3.116  -5.804  25.220  0.00  0.00    +0.126 A 
ATOM     12  C   UNL     1       3.160  -5.241  23.953  0.00  0.00    +0.033 A 
ATOM     13  C   UNL     1       2.474  -5.884  22.930  0.00  0.00    +0.012 A 
ATOM     14  C   UNL     1       1.781  -7.072  23.200  0.00  0.00    +0.000 A 
ATOM     15  C   UNL     1       1.787  -7.561  24.526  0.00  0.00    +0.072 A 
ATOM     16  C   UNL     1       1.107  -8.742  24.791  0.00  0.00    +0.028 A 
ATOM     17  C   UNL     1       0.443  -9.449  23.784  0.00  0.00    +0.002 A 
ATOM     18  C   UNL     1       0.443  -8.964  22.480  0.00  0.00    +0.001 A 
ATOM     19  C   UNL     1       1.104  -7.773  22.188  0.00  0.00    +0.010 A 
ATOM     20  N   UNL     1       2.430  -6.937  25.527  0.00  0.00    -0.242 NA
ENDBRANCH   9  11
ENDBRANCH   6   7
BRANCH   6  21
ATOM     21  C   UNL     1       6.936  -5.618  28.092  0.00  0.00    +0.127 C 
BRANCH  21  22
ATOM     22  C   UNL     1       6.050  -6.478  28.956  0.00  0.00    +0.213 C 
ATOM     23  N   UNL     1       5.915  -6.070  30.248  0.00  0.00    -0.329 N 
ATOM     24  H   UNL     1       5.260  -6.573  30.834  0.00  0.00    +0.145 HD
ATOM     25  H   UNL     1       6.243  -5.164  30.558  0.00  0.00    +0.145 HD
ATOM     26  O   UNL     1       5.482  -7.481  28.539  0.00  0.00    -0.276 OA
ENDBRANCH  21  22
ENDBRANCH   6  21
ENDBRANCH   4   6
ENDBRANCH   1   2
BRANCH   1  27
ATOM     27  C   UNL     1       6.181  -0.730  24.319  0.00  0.00    +0.149 C 
BRANCH  27  28
ATOM     28  O   UNL     1       6.434  -0.247  22.997  0.00  0.00    -0.389 OA
ATOM     29  H   UNL     1       7.323   0.154  23.034  0.00  0.00    +0.210 HD
ENDBRANCH  27  28
BRANCH  27  30
ATOM     30  C   UNL     1       6.242   0.440  25.338  0.00  0.00    +0.118 C 
BRANCH  30  32
ATOM     31  C   UNL     1       6.619   2.857  24.917  0.00  0.00    +0.143 C 
ATOM     32  N   UNL     1       5.637   1.716  24.869  0.00  0.00    -0.289 NA
ATOM     33  C   UNL     1       4.481   2.118  25.724  0.00  0.00    +0.089 C 
ATOM     34  C   UNL     1       4.860   2.370  27.203  0.00  0.00    +0.006 C 
ATOM     35  C   UNL     1       5.928   3.459  27.320  0.00  0.00    -0.005 C 
ATOM     36  C   UNL     1       5.397   4.890  27.119  0.00  0.00    +0.004 C 
ATOM     37  C   UNL     1       3.904   5.161  27.316  0.00  0.00    +0.000 C 
ATOM     38  C   UNL     1       2.974   3.993  27.625  0.00  0.00    +0.000 C 
ATOM     39  C   UNL     1       3.675   2.735  28.095  0.00  0.00    +0.005 C 
ATOM     40  C   UNL     1       7.091   3.186  26.356  0.00  0.00    +0.032 C 
BRANCH  31  43
ATOM     41  N   UNL     1       9.000   2.163  24.500  0.00  0.00    -0.309 N 
ATOM     42  H   UNL     1       8.952   1.813  25.452  0.00  0.00    +0.149 HD
ATOM     43  C   UNL     1       7.853   2.737  23.995  0.00  0.00    +0.231 C 
ATOM     44  O   UNL     1       7.768   3.057  22.805  0.00  0.00    -0.274 OA
BRANCH  41  46
ATOM     45  C   UNL     1      11.133   0.875  24.347  0.00  0.00    +0.031 C 
ATOM     46  C   UNL     1      10.201   1.902  23.672  0.00  0.00    +0.026 C 
ATOM     47  C   UNL     1       9.778   1.318  22.314  0.00  0.00    +0.031 C 
ATOM     48  C   UNL     1      10.983   3.203  23.405  0.00  0.00    +0.031 C 
ENDBRANCH  41  46
ENDBRANCH  31  43
ENDBRANCH  30  32
ENDBRANCH  27  30
ENDBRANCH   1  27
BRANCH   1  49
ATOM     49  C   UNL     1       7.967  -2.518  23.584  0.00  0.00    +0.060 C 
BRANCH  49  50
ATOM     50  C   UNL     1       7.397  -3.686  22.814  0.00  0.00    -0.046 A 
ATOM     51  C   UNL     1       6.424  -3.474  21.828  0.00  0.00    +0.004 A 
ATOM     52  C   UNL     1       5.789  -4.555  21.213  0.00  0.00    +0.000 A 
ATOM     53  C   UNL     1       6.135  -5.861  21.555  0.00  0.00    +0.000 A 
ATOM     54  C   UNL     1       7.127  -6.084  22.504  0.00  0.00    +0.000 A 
ATOM     55  C   UNL     1       7.750  -5.005  23.132  0.00  0.00    +0.004 A 
ENDBRANCH  49  50
ENDBRANCH   1  49
TORSDOF 14
ENDMDL
