MODEL 1
REMARK VINA RESULT:      -6.7      0.000      0.000
REMARK  Name = 
REMARK  27 active torsions:
REMARK  status: ('A' for Active; 'I' for Inactive)
REMARK    1  A    between atoms: C_1  and  C_2
REMARK    2  A    between atoms: C_2  and  C_3
REMARK    3  A    between atoms: C_2  and  C_4
REMARK    4  A    between atoms: C_2  and  C_5
REMARK    5  A    between atoms: C_5  and  C_7
REMARK    6  A    between atoms: C_5  and  N_51
REMARK    7  A    between atoms: N_9  and  C_10
REMARK    8  A    between atoms: C_10  and  C_12
REMARK    9  A    between atoms: C_10  and  C_19
REMARK   10  A    between atoms: C_12  and  C_13
REMARK   11  A    between atoms: C_19  and  C_21
REMARK   12  A    between atoms: C_19  and  O_50
REMARK   13  A    between atoms: C_21  and  N_22
REMARK   14  A    between atoms: N_22  and  C_23
REMARK   15  A    between atoms: N_22  and  N_36
REMARK   16  A    between atoms: C_23  and  C_24
REMARK   17  A    between atoms: C_27  and  C_30
REMARK   18  A    between atoms: C_37  and  C_39
REMARK   19  A    between atoms: C_39  and  C_41
REMARK   20  A    between atoms: C_39  and  N_45
REMARK   21  A    between atoms: C_41  and  C_42
REMARK   22  A    between atoms: C_41  and  C_43
REMARK   23  A    between atoms: C_41  and  C_44
REMARK   24  A    between atoms: C_46  and  O_48
REMARK   25  A    between atoms: O_48  and  C_49
REMARK   26  A    between atoms: C_52  and  O_54
REMARK   27  A    between atoms: O_54  and  C_55
REMARK                            x       y       z     vdW  Elec       q    Type
REMARK                         _______ _______ _______ _____ _____    ______ ____
ROOT
ATOM      1  N   UNL     1       5.728  -0.024  26.472  0.00  0.00    -0.220 NA
ENDROOT
BRANCH   1   2
ATOM      2  N   UNL     1       5.366   1.243  25.922  0.00  0.00    -0.246 N 
ATOM      3  H   UNL     1       5.069   1.989  26.551  0.00  0.00    +0.169 HD
ATOM      4  C   UNL     1       5.680   1.531  24.596  0.00  0.00    +0.248 C 
ATOM      5  O   UNL     1       6.068   0.675  23.806  0.00  0.00    -0.272 OA
BRANCH   4   6
ATOM      6  C   UNL     1       5.331   2.985  24.178  0.00  0.00    +0.169 C 
BRANCH   6   7
ATOM      7  C   UNL     1       6.537   3.945  23.897  0.00  0.00    -0.011 C 
ATOM      8  C   UNL     1       6.115   5.407  24.139  0.00  0.00    +0.013 C 
ATOM      9  C   UNL     1       6.957   3.828  22.409  0.00  0.00    +0.013 C 
ATOM     10  C   UNL     1       7.781   3.636  24.751  0.00  0.00    +0.013 C 
ENDBRANCH   6   7
BRANCH   6  11
ATOM     11  N   UNL     1       4.474   2.851  23.009  0.00  0.00    -0.269 N 
ATOM     12  H   UNL     1       4.778   2.283  22.229  0.00  0.00    +0.153 HD
ATOM     13  C   UNL     1       3.210   3.358  22.929  0.00  0.00    +0.401 C 
ATOM     14  O   UNL     1       2.653   3.993  23.808  0.00  0.00    -0.226 OA
BRANCH  13  15
ATOM     15  O   UNL     1       2.697   3.045  21.722  0.00  0.00    -0.454 OA
ATOM     16  C   UNL     1       1.283   2.853  21.719  0.00  0.00    +0.282 C 
ENDBRANCH  13  15
ENDBRANCH   6  11
ENDBRANCH   4   6
ENDBRANCH   1   2
BRANCH   1  17
ATOM     17  C   UNL     1       7.037   0.058  27.124  0.00  0.00    +0.139 C 
BRANCH  17  18
ATOM     18  C   UNL     1       8.129  -0.986  26.796  0.00  0.00    +0.151 C 
BRANCH  18  19
ATOM     19  O   UNL     1       9.379  -0.392  27.210  0.00  0.00    -0.389 OA
ATOM     20  H   UNL     1      10.023  -1.111  27.337  0.00  0.00    +0.210 HD
ENDBRANCH  18  19
BRANCH  18  21
ATOM     21  C   UNL     1       8.270  -1.454  25.307  0.00  0.00    +0.107 C 
BRANCH  21  23
ATOM     22  C   UNL     1       8.141  -3.661  24.054  0.00  0.00    +0.234 C 
ATOM     23  N   UNL     1       7.764  -2.829  25.092  0.00  0.00    -0.308 N 
ATOM     24  H   UNL     1       6.821  -3.004  25.421  0.00  0.00    +0.149 HD
ATOM     25  O   UNL     1       8.978  -3.335  23.212  0.00  0.00    -0.274 OA
BRANCH  22  26
ATOM     26  C   UNL     1       7.379  -5.025  23.939  0.00  0.00    +0.167 C 
BRANCH  26  28
ATOM     27  C   UNL     1       5.218  -5.960  22.904  0.00  0.00    +0.013 C 
ATOM     28  C   UNL     1       6.495  -5.134  22.648  0.00  0.00    -0.011 C 
ATOM     29  C   UNL     1       6.027  -3.727  22.205  0.00  0.00    +0.013 C 
ATOM     30  C   UNL     1       7.271  -5.779  21.485  0.00  0.00    +0.013 C 
ENDBRANCH  26  28
BRANCH  26  31
ATOM     31  N   UNL     1       6.589  -5.319  25.136  0.00  0.00    -0.269 N 
ATOM     32  H   UNL     1       5.581  -5.347  25.091  0.00  0.00    +0.153 HD
ATOM     33  C   UNL     1       7.124  -5.624  26.348  0.00  0.00    +0.401 C 
ATOM     34  O   UNL     1       8.309  -5.654  26.625  0.00  0.00    -0.226 OA
BRANCH  33  35
ATOM     35  O   UNL     1       6.105  -5.907  27.196  0.00  0.00    -0.454 OA
ATOM     36  C   UNL     1       5.681  -4.819  28.018  0.00  0.00    +0.282 C 
ENDBRANCH  33  35
ENDBRANCH  26  31
ENDBRANCH  22  26
ENDBRANCH  21  23
BRANCH  21  37
ATOM     37  C   UNL     1       9.747  -1.204  24.837  0.00  0.00    +0.060 C 
BRANCH  37  38
ATOM     38  C   UNL     1       9.948  -0.032  23.896  0.00  0.00    -0.046 A 
ATOM     39  C   UNL     1       9.385  -0.022  22.610  0.00  0.00    +0.004 A 
ATOM     40  C   UNL     1       9.496   1.105  21.792  0.00  0.00    +0.000 A 
ATOM     41  C   UNL     1      10.192   2.225  22.240  0.00  0.00    +0.000 A 
ATOM     42  C   UNL     1      10.803   2.206  23.491  0.00  0.00    +0.000 A 
ATOM     43  C   UNL     1      10.690   1.081  24.306  0.00  0.00    +0.004 A 
ENDBRANCH  37  38
ENDBRANCH  21  37
ENDBRANCH  18  21
ENDBRANCH  17  18
ENDBRANCH   1  17
BRANCH   1  44
ATOM     44  C   UNL     1       4.625  -0.667  27.215  0.00  0.00    +0.140 C 
BRANCH  44  45
ATOM     45  C   UNL     1       3.907  -1.830  26.579  0.00  0.00    -0.032 A 
ATOM     46  C   UNL     1       4.282  -2.349  25.339  0.00  0.00    +0.005 A 
ATOM     47  C   UNL     1       3.685  -3.516  24.853  0.00  0.00    +0.010 A 
ATOM     48  C   UNL     1       2.687  -4.194  25.578  0.00  0.00    +0.000 A 
ATOM     49  C   UNL     1       2.180  -3.535  26.710  0.00  0.00    +0.010 A 
ATOM     50  C   UNL     1       2.792  -2.385  27.214  0.00  0.00    +0.005 A 
BRANCH  48  51
ATOM     51  C   UNL     1       2.322  -5.595  25.242  0.00  0.00    +0.071 A 
ATOM     52  N   UNL     1       1.454  -5.740  24.204  0.00  0.00    -0.255 NA
ATOM     53  C   UNL     1       1.276  -6.974  23.683  0.00  0.00    +0.111 A 
ATOM     54  C   UNL     1       1.917  -8.106  24.147  0.00  0.00    +0.020 A 
ATOM     55  C   UNL     1       2.764  -7.969  25.235  0.00  0.00    +0.004 A 
ATOM     56  C   UNL     1       2.961  -6.708  25.795  0.00  0.00    +0.028 A 
ENDBRANCH  48  51
ENDBRANCH  44  45
ENDBRANCH   1  44
TORSDOF 19
ENDMDL
MODEL 2
REMARK VINA RESULT:      -6.7      2.231      6.192
REMARK  Name = 
REMARK  27 active torsions:
REMARK  status: ('A' for Active; 'I' for Inactive)
REMARK    1  A    between atoms: C_1  and  C_2
REMARK    2  A    between atoms: C_2  and  C_3
REMARK    3  A    between atoms: C_2  and  C_4
REMARK    4  A    between atoms: C_2  and  C_5
REMARK    5  A    between atoms: C_5  and  C_7
REMARK    6  A    between atoms: C_5  and  N_51
REMARK    7  A    between atoms: N_9  and  C_10
REMARK    8  A    between atoms: C_10  and  C_12
REMARK    9  A    between atoms: C_10  and  C_19
REMARK   10  A    between atoms: C_12  and  C_13
REMARK   11  A    between atoms: C_19  and  C_21
REMARK   12  A    between atoms: C_19  and  O_50
REMARK   13  A    between atoms: C_21  and  N_22
REMARK   14  A    between atoms: N_22  and  C_23
REMARK   15  A    between atoms: N_22  and  N_36
REMARK   16  A    between atoms: C_23  and  C_24
REMARK   17  A    between atoms: C_27  and  C_30
REMARK   18  A    between atoms: C_37  and  C_39
REMARK   19  A    between atoms: C_39  and  C_41
REMARK   20  A    between atoms: C_39  and  N_45
REMARK   21  A    between atoms: C_41  and  C_42
REMARK   22  A    between atoms: C_41  and  C_43
REMARK   23  A    between atoms: C_41  and  C_44
REMARK   24  A    between atoms: C_46  and  O_48
REMARK   25  A    between atoms: O_48  and  C_49
REMARK   26  A    between atoms: C_52  and  O_54
REMARK   27  A    between atoms: O_54  and  C_55
REMARK                            x       y       z     vdW  Elec       q    Type
REMARK                         _______ _______ _______ _____ _____    ______ ____
ROOT
ATOM      1  N   UNL     1       6.604  -1.727  26.114  0.00  0.00    -0.220 NA
ENDROOT
BRANCH   1   2
ATOM      2  N   UNL     1       6.044  -0.660  26.881  0.00  0.00    -0.246 N 
ATOM      3  H   UNL     1       6.242  -0.612  27.880  0.00  0.00    +0.169 HD
ATOM      4  C   UNL     1       5.477   0.431  26.228  0.00  0.00    +0.248 C 
ATOM      5  O   UNL     1       5.244   0.435  25.022  0.00  0.00    -0.272 OA
BRANCH   4   6
ATOM      6  C   UNL     1       5.018   1.561  27.191  0.00  0.00    +0.169 C 
BRANCH   6   7
ATOM      7  C   UNL     1       3.657   1.341  27.935  0.00  0.00    -0.011 C 
ATOM      8  C   UNL     1       2.927   2.688  28.107  0.00  0.00    +0.013 C 
ATOM      9  C   UNL     1       3.926   0.779  29.354  0.00  0.00    +0.013 C 
ATOM     10  C   UNL     1       2.718   0.351  27.219  0.00  0.00    +0.013 C 
ENDBRANCH   6   7
BRANCH   6  11
ATOM     11  N   UNL     1       6.117   1.730  28.131  0.00  0.00    -0.269 N 
ATOM     12  H   UNL     1       6.596   0.915  28.492  0.00  0.00    +0.153 HD
ATOM     13  C   UNL     1       6.634   2.940  28.488  0.00  0.00    +0.401 C 
ATOM     14  O   UNL     1       6.236   4.019  28.084  0.00  0.00    -0.226 OA
BRANCH  13  15
ATOM     15  O   UNL     1       7.642   2.737  29.361  0.00  0.00    -0.454 OA
ATOM     16  C   UNL     1       7.590   1.477  30.031  0.00  0.00    +0.282 C 
ENDBRANCH  13  15
ENDBRANCH   6  11
ENDBRANCH   4   6
ENDBRANCH   1   2
BRANCH   1  17
ATOM     17  C   UNL     1       8.000  -1.434  25.778  0.00  0.00    +0.139 C 
BRANCH  17  18
ATOM     18  C   UNL     1       8.571  -1.869  24.410  0.00  0.00    +0.151 C 
BRANCH  18  19
ATOM     19  O   UNL     1       9.981  -1.561  24.456  0.00  0.00    -0.389 OA
ATOM     20  H   UNL     1      10.073  -0.610  24.640  0.00  0.00    +0.210 HD
ENDBRANCH  18  19
BRANCH  18  21
ATOM     21  C   UNL     1       7.961  -1.217  23.121  0.00  0.00    +0.107 C 
BRANCH  21  23
ATOM     22  C   UNL     1       8.457   1.156  22.362  0.00  0.00    +0.234 C 
ATOM     23  N   UNL     1       7.857   0.256  23.224  0.00  0.00    -0.308 N 
ATOM     24  H   UNL     1       7.737   0.622  24.162  0.00  0.00    +0.149 HD
ATOM     25  O   UNL     1       9.120   0.803  21.388  0.00  0.00    -0.274 OA
BRANCH  22  26
ATOM     26  C   UNL     1       8.329   2.673  22.735  0.00  0.00    +0.167 C 
BRANCH  26  28
ATOM     27  C   UNL     1       9.786   4.522  23.772  0.00  0.00    +0.013 C 
ATOM     28  C   UNL     1       9.234   3.093  23.945  0.00  0.00    -0.011 C 
ATOM     29  C   UNL     1       8.405   3.096  25.252  0.00  0.00    +0.013 C 
ATOM     30  C   UNL     1      10.421   2.127  24.123  0.00  0.00    +0.013 C 
ENDBRANCH  26  28
BRANCH  26  31
ATOM     31  N   UNL     1       6.938   3.069  22.966  0.00  0.00    -0.269 N 
ATOM     32  H   UNL     1       6.317   2.475  23.496  0.00  0.00    +0.153 HD
ATOM     33  C   UNL     1       6.402   4.249  22.556  0.00  0.00    +0.401 C 
ATOM     34  O   UNL     1       6.969   5.112  21.910  0.00  0.00    -0.226 OA
BRANCH  33  35
ATOM     35  O   UNL     1       5.125   4.307  23.004  0.00  0.00    -0.454 OA
ATOM     36  C   UNL     1       4.212   3.425  22.350  0.00  0.00    +0.282 C 
ENDBRANCH  33  35
ENDBRANCH  26  31
ENDBRANCH  22  26
ENDBRANCH  21  23
BRANCH  21  37
ATOM     37  C   UNL     1       6.624  -1.959  22.764  0.00  0.00    +0.060 C 
BRANCH  37  38
ATOM     38  C   UNL     1       6.761  -3.427  22.409  0.00  0.00    -0.046 A 
ATOM     39  C   UNL     1       7.699  -4.250  23.052  0.00  0.00    +0.004 A 
ATOM     40  C   UNL     1       7.746  -5.620  22.784  0.00  0.00    +0.000 A 
ATOM     41  C   UNL     1       6.875  -6.178  21.852  0.00  0.00    +0.000 A 
ATOM     42  C   UNL     1       5.980  -5.362  21.166  0.00  0.00    +0.000 A 
ATOM     43  C   UNL     1       5.933  -3.995  21.435  0.00  0.00    +0.004 A 
ENDBRANCH  37  38
ENDBRANCH  21  37
ENDBRANCH  18  21
ENDBRANCH  17  18
ENDBRANCH   1  17
BRANCH   1  44
ATOM     44  C   UNL     1       6.290  -3.060  26.664  0.00  0.00    +0.140 C 
BRANCH  44  45
ATOM     45  C   UNL     1       5.475  -4.014  25.828  0.00  0.00    -0.032 A 
ATOM     46  C   UNL     1       5.742  -5.383  25.788  0.00  0.00    +0.005 A 
ATOM     47  C   UNL     1       4.876  -6.252  25.115  0.00  0.00    +0.010 A 
ATOM     48  C   UNL     1       3.728  -5.782  24.450  0.00  0.00    +0.000 A 
ATOM     49  C   UNL     1       3.604  -4.389  24.324  0.00  0.00    +0.010 A 
ATOM     50  C   UNL     1       4.450  -3.520  25.017  0.00  0.00    +0.005 A 
BRANCH  48  51
ATOM     51  C   UNL     1       2.642  -6.718  24.057  0.00  0.00    +0.071 A 
ATOM     52  N   UNL     1       2.034  -6.442  22.872  0.00  0.00    -0.255 NA
ATOM     53  C   UNL     1       1.223  -7.379  22.332  0.00  0.00    +0.111 A 
ATOM     54  C   UNL     1       0.964  -8.603  22.917  0.00  0.00    +0.020 A 
ATOM     55  C   UNL     1       1.544  -8.867  24.148  0.00  0.00    +0.004 A 
ATOM     56  C   UNL     1       2.380  -7.915  24.729  0.00  0.00    +0.028 A 
ENDBRANCH  48  51
ENDBRANCH  44  45
ENDBRANCH   1  44
TORSDOF 19
ENDMDL
MODEL 3
REMARK VINA RESULT:      -6.6      2.592      8.864
REMARK  Name = 
REMARK  27 active torsions:
REMARK  status: ('A' for Active; 'I' for Inactive)
REMARK    1  A    between atoms: C_1  and  C_2
REMARK    2  A    between atoms: C_2  and  C_3
REMARK    3  A    between atoms: C_2  and  C_4
REMARK    4  A    between atoms: C_2  and  C_5
REMARK    5  A    between atoms: C_5  and  C_7
REMARK    6  A    between atoms: C_5  and  N_51
REMARK    7  A    between atoms: N_9  and  C_10
REMARK    8  A    between atoms: C_10  and  C_12
REMARK    9  A    between atoms: C_10  and  C_19
REMARK   10  A    between atoms: C_12  and  C_13
REMARK   11  A    between atoms: C_19  and  C_21
REMARK   12  A    between atoms: C_19  and  O_50
REMARK   13  A    between atoms: C_21  and  N_22
REMARK   14  A    between atoms: N_22  and  C_23
REMARK   15  A    between atoms: N_22  and  N_36
REMARK   16  A    between atoms: C_23  and  C_24
REMARK   17  A    between atoms: C_27  and  C_30
REMARK   18  A    between atoms: C_37  and  C_39
REMARK   19  A    between atoms: C_39  and  C_41
REMARK   20  A    between atoms: C_39  and  N_45
REMARK   21  A    between atoms: C_41  and  C_42
REMARK   22  A    between atoms: C_41  and  C_43
REMARK   23  A    between atoms: C_41  and  C_44
REMARK   24  A    between atoms: C_46  and  O_48
REMARK   25  A    between atoms: O_48  and  C_49
REMARK   26  A    between atoms: C_52  and  O_54
REMARK   27  A    between atoms: O_54  and  C_55
REMARK                            x       y       z     vdW  Elec       q    Type
REMARK                         _______ _______ _______ _____ _____    ______ ____
ROOT
ATOM      1  N   UNL     1       7.722  -2.129  22.553  0.00  0.00    -0.220 NA
ENDROOT
BRANCH   1   2
ATOM      2  N   UNL     1       7.576  -3.010  23.668  0.00  0.00    -0.246 N 
ATOM      3  H   UNL     1       7.463  -2.614  24.600  0.00  0.00    +0.169 HD
ATOM      4  C   UNL     1       7.317  -4.360  23.446  0.00  0.00    +0.248 C 
ATOM      5  O   UNL     1       7.412  -4.881  22.338  0.00  0.00    -0.272 OA
BRANCH   4   6
ATOM      6  C   UNL     1       7.067  -5.165  24.751  0.00  0.00    +0.169 C 
BRANCH   6   7
ATOM      7  C   UNL     1       7.927  -4.767  25.999  0.00  0.00    -0.011 C 
ATOM      8  C   UNL     1       7.509  -5.612  27.218  0.00  0.00    +0.013 C 
ATOM      9  C   UNL     1       7.665  -3.282  26.356  0.00  0.00    +0.013 C 
ATOM     10  C   UNL     1       9.443  -4.926  25.777  0.00  0.00    +0.013 C 
ENDBRANCH   6   7
BRANCH   6  11
ATOM     11  N   UNL     1       5.643  -5.026  25.019  0.00  0.00    -0.269 N 
ATOM     12  H   UNL     1       5.289  -4.158  25.401  0.00  0.00    +0.153 HD
ATOM     13  C   UNL     1       4.709  -5.962  24.684  0.00  0.00    +0.401 C 
ATOM     14  O   UNL     1       4.949  -7.026  24.140  0.00  0.00    -0.226 OA
BRANCH  13  15
ATOM     15  O   UNL     1       3.496  -5.512  25.063  0.00  0.00    -0.454 OA
ATOM     16  C   UNL     1       2.503  -5.577  24.039  0.00  0.00    +0.282 C 
ENDBRANCH  13  15
ENDBRANCH   6  11
ENDBRANCH   4   6
ENDBRANCH   1   2
BRANCH   1  17
ATOM     17  C   UNL     1       6.796  -1.000  22.672  0.00  0.00    +0.139 C 
BRANCH  17  18
ATOM     18  C   UNL     1       6.584  -0.318  24.042  0.00  0.00    +0.151 C 
BRANCH  18  19
ATOM     19  O   UNL     1       5.268  -0.719  24.482  0.00  0.00    -0.389 OA
ATOM     20  H   UNL     1       5.291  -1.675  24.661  0.00  0.00    +0.210 HD
ENDBRANCH  18  19
BRANCH  18  21
ATOM     21  C   UNL     1       6.674   1.246  24.104  0.00  0.00    +0.107 C 
BRANCH  21  23
ATOM     22  C   UNL     1       6.332   1.864  26.544  0.00  0.00    +0.234 C 
ATOM     23  N   UNL     1       5.901   1.816  25.231  0.00  0.00    -0.308 N 
ATOM     24  H   UNL     1       4.893   1.757  25.144  0.00  0.00    +0.149 HD
ATOM     25  O   UNL     1       7.439   1.457  26.896  0.00  0.00    -0.274 OA
BRANCH  22  26
ATOM     26  C   UNL     1       5.299   2.387  27.600  0.00  0.00    +0.167 C 
BRANCH  26  28
ATOM     27  C   UNL     1       6.966   2.763  29.523  0.00  0.00    +0.013 C 
ATOM     28  C   UNL     1       5.912   3.420  28.608  0.00  0.00    -0.011 C 
ATOM     29  C   UNL     1       6.640   4.547  27.837  0.00  0.00    +0.013 C 
ATOM     30  C   UNL     1       4.825   4.059  29.493  0.00  0.00    +0.013 C 
ENDBRANCH  26  28
BRANCH  26  31
ATOM     31  N   UNL     1       4.639   1.292  28.316  0.00  0.00    -0.269 N 
ATOM     32  H   UNL     1       4.807   1.149  29.301  0.00  0.00    +0.153 HD
ATOM     33  C   UNL     1       3.735   0.447  27.752  0.00  0.00    +0.401 C 
ATOM     34  O   UNL     1       3.383   0.443  26.586  0.00  0.00    -0.226 OA
BRANCH  33  35
ATOM     35  O   UNL     1       3.281  -0.385  28.720  0.00  0.00    -0.454 OA
ATOM     36  C   UNL     1       2.672   0.262  29.838  0.00  0.00    +0.282 C 
ENDBRANCH  33  35
ENDBRANCH  26  31
ENDBRANCH  22  26
ENDBRANCH  21  23
BRANCH  21  37
ATOM     37  C   UNL     1       6.321   1.828  22.689  0.00  0.00    +0.060 C 
BRANCH  37  38
ATOM     38  C   UNL     1       6.188   3.336  22.613  0.00  0.00    -0.046 A 
ATOM     39  C   UNL     1       5.071   3.999  23.146  0.00  0.00    +0.004 A 
ATOM     40  C   UNL     1       5.008   5.394  23.156  0.00  0.00    +0.000 A 
ATOM     41  C   UNL     1       6.049   6.143  22.612  0.00  0.00    +0.000 A 
ATOM     42  C   UNL     1       7.135   5.496  22.030  0.00  0.00    +0.000 A 
ATOM     43  C   UNL     1       7.197   4.103  22.021  0.00  0.00    +0.004 A 
ENDBRANCH  37  38
ENDBRANCH  21  37
ENDBRANCH  18  21
ENDBRANCH  17  18
ENDBRANCH   1  17
BRANCH   1  44
ATOM     44  C   UNL     1       9.132  -1.836  22.229  0.00  0.00    +0.140 C 
BRANCH  44  45
ATOM     45  C   UNL     1       9.678  -0.467  22.547  0.00  0.00    -0.032 A 
ATOM     46  C   UNL     1       9.649   0.579  21.623  0.00  0.00    +0.005 A 
ATOM     47  C   UNL     1      10.032   1.869  22.005  0.00  0.00    +0.010 A 
ATOM     48  C   UNL     1      10.469   2.154  23.312  0.00  0.00    +0.000 A 
ATOM     49  C   UNL     1      10.693   1.050  24.151  0.00  0.00    +0.010 A 
ATOM     50  C   UNL     1      10.286  -0.235  23.784  0.00  0.00    +0.005 A 
BRANCH  48  51
ATOM     51  C   UNL     1      10.526   3.555  23.806  0.00  0.00    +0.071 A 
ATOM     52  N   UNL     1      11.579   4.289  23.358  0.00  0.00    -0.255 NA
ATOM     53  C   UNL     1      11.561   5.626  23.556  0.00  0.00    +0.111 A 
ATOM     54  C   UNL     1      10.537   6.296  24.198  0.00  0.00    +0.020 A 
ATOM     55  C   UNL     1       9.486   5.543  24.698  0.00  0.00    +0.004 A 
ATOM     56  C   UNL     1       9.484   4.162  24.511  0.00  0.00    +0.028 A 
ENDBRANCH  48  51
ENDBRANCH  44  45
ENDBRANCH   1  44
TORSDOF 19
ENDMDL
MODEL 4
REMARK VINA RESULT:      -6.6      2.499      9.014
REMARK  Name = 
REMARK  27 active torsions:
REMARK  status: ('A' for Active; 'I' for Inactive)
REMARK    1  A    between atoms: C_1  and  C_2
REMARK    2  A    between atoms: C_2  and  C_3
REMARK    3  A    between atoms: C_2  and  C_4
REMARK    4  A    between atoms: C_2  and  C_5
REMARK    5  A    between atoms: C_5  and  C_7
REMARK    6  A    between atoms: C_5  and  N_51
REMARK    7  A    between atoms: N_9  and  C_10
REMARK    8  A    between atoms: C_10  and  C_12
REMARK    9  A    between atoms: C_10  and  C_19
REMARK   10  A    between atoms: C_12  and  C_13
REMARK   11  A    between atoms: C_19  and  C_21
REMARK   12  A    between atoms: C_19  and  O_50
REMARK   13  A    between atoms: C_21  and  N_22
REMARK   14  A    between atoms: N_22  and  C_23
REMARK   15  A    between atoms: N_22  and  N_36
REMARK   16  A    between atoms: C_23  and  C_24
REMARK   17  A    between atoms: C_27  and  C_30
REMARK   18  A    between atoms: C_37  and  C_39
REMARK   19  A    between atoms: C_39  and  C_41
REMARK   20  A    between atoms: C_39  and  N_45
REMARK   21  A    between atoms: C_41  and  C_42
REMARK   22  A    between atoms: C_41  and  C_43
REMARK   23  A    between atoms: C_41  and  C_44
REMARK   24  A    between atoms: C_46  and  O_48
REMARK   25  A    between atoms: O_48  and  C_49
REMARK   26  A    between atoms: C_52  and  O_54
REMARK   27  A    between atoms: O_54  and  C_55
REMARK                            x       y       z     vdW  Elec       q    Type
REMARK                         _______ _______ _______ _____ _____    ______ ____
ROOT
ATOM      1  N   UNL     1       7.768  -2.154  22.732  0.00  0.00    -0.220 NA
ENDROOT
BRANCH   1   2
ATOM      2  N   UNL     1       7.496  -2.992  23.857  0.00  0.00    -0.246 N 
ATOM      3  H   UNL     1       7.280  -2.561  24.755  0.00  0.00    +0.169 HD
ATOM      4  C   UNL     1       7.261  -4.351  23.660  0.00  0.00    +0.248 C 
ATOM      5  O   UNL     1       7.479  -4.913  22.590  0.00  0.00    -0.272 OA
BRANCH   4   6
ATOM      6  C   UNL     1       6.865  -5.106  24.958  0.00  0.00    +0.169 C 
BRANCH   6   7
ATOM      7  C   UNL     1       7.582  -4.660  26.278  0.00  0.00    -0.011 C 
ATOM      8  C   UNL     1       7.157  -5.574  27.443  0.00  0.00    +0.013 C 
ATOM      9  C   UNL     1       7.147  -3.218  26.642  0.00  0.00    +0.013 C 
ATOM     10  C   UNL     1       9.119  -4.664  26.174  0.00  0.00    +0.013 C 
ENDBRANCH   6   7
BRANCH   6  11
ATOM     11  N   UNL     1       5.421  -4.957  25.060  0.00  0.00    -0.269 N 
ATOM     12  H   UNL     1       5.026  -4.054  25.289  0.00  0.00    +0.153 HD
ATOM     13  C   UNL     1       4.530  -5.945  24.757  0.00  0.00    +0.401 C 
ATOM     14  O   UNL     1       4.828  -7.066  24.383  0.00  0.00    -0.226 OA
BRANCH  13  15
ATOM     15  O   UNL     1       3.282  -5.471  24.950  0.00  0.00    -0.454 OA
ATOM     16  C   UNL     1       3.219  -4.064  25.179  0.00  0.00    +0.282 C 
ENDBRANCH  13  15
ENDBRANCH   6  11
ENDBRANCH   4   6
ENDBRANCH   1   2
BRANCH   1  17
ATOM     17  C   UNL     1       6.867  -0.999  22.729  0.00  0.00    +0.139 C 
BRANCH  17  18
ATOM     18  C   UNL     1       6.640  -0.195  24.029  0.00  0.00    +0.151 C 
BRANCH  18  19
ATOM     19  O   UNL     1       5.269  -0.441  24.411  0.00  0.00    -0.389 OA
ATOM     20  H   UNL     1       5.209  -1.357  24.735  0.00  0.00    +0.210 HD
ENDBRANCH  18  19
BRANCH  18  21
ATOM     21  C   UNL     1       6.872   1.355  23.982  0.00  0.00    +0.107 C 
BRANCH  21  23
ATOM     22  C   UNL     1       6.954   1.726  26.494  0.00  0.00    +0.234 C 
ATOM     23  N   UNL     1       6.467   2.029  25.236  0.00  0.00    -0.308 N 
ATOM     24  H   UNL     1       5.519   2.390  25.251  0.00  0.00    +0.149 HD
ATOM     25  O   UNL     1       7.816   0.868  26.683  0.00  0.00    -0.274 OA
BRANCH  22  26
ATOM     26  C   UNL     1       6.288   2.471  27.700  0.00  0.00    +0.167 C 
BRANCH  26  28
ATOM     27  C   UNL     1       4.061   2.512  28.986  0.00  0.00    +0.013 C 
ATOM     28  C   UNL     1       5.185   1.621  28.421  0.00  0.00    -0.011 C 
ATOM     29  C   UNL     1       4.516   0.655  27.413  0.00  0.00    +0.013 C 
ATOM     30  C   UNL     1       5.777   0.788  29.574  0.00  0.00    +0.013 C 
ENDBRANCH  26  28
BRANCH  26  31
ATOM     31  N   UNL     1       5.764   3.784  27.317  0.00  0.00    -0.269 N 
ATOM     32  H   UNL     1       4.793   3.893  27.062  0.00  0.00    +0.153 HD
ATOM     33  C   UNL     1       6.494   4.931  27.330  0.00  0.00    +0.401 C 
ATOM     34  O   UNL     1       7.675   5.030  27.609  0.00  0.00    -0.226 OA
BRANCH  33  35
ATOM     35  O   UNL     1       5.671   5.953  26.990  0.00  0.00    -0.454 OA
ATOM     36  C   UNL     1       4.351   5.567  26.609  0.00  0.00    +0.282 C 
ENDBRANCH  33  35
ENDBRANCH  26  31
ENDBRANCH  22  26
ENDBRANCH  21  23
BRANCH  21  37
ATOM     37  C   UNL     1       6.216   1.924  22.673  0.00  0.00    +0.060 C 
BRANCH  37  38
ATOM     38  C   UNL     1       6.154   3.435  22.573  0.00  0.00    -0.046 A 
ATOM     39  C   UNL     1       5.049   4.156  23.053  0.00  0.00    +0.004 A 
ATOM     40  C   UNL     1       5.049   5.552  23.042  0.00  0.00    +0.000 A 
ATOM     41  C   UNL     1       6.143   6.245  22.529  0.00  0.00    +0.000 A 
ATOM     42  C   UNL     1       7.220   5.541  21.999  0.00  0.00    +0.000 A 
ATOM     43  C   UNL     1       7.219   4.147  22.011  0.00  0.00    +0.004 A 
ENDBRANCH  37  38
ENDBRANCH  21  37
ENDBRANCH  18  21
ENDBRANCH  17  18
ENDBRANCH   1  17
BRANCH   1  44
ATOM     44  C   UNL     1       9.209  -1.908  22.531  0.00  0.00    +0.140 C 
BRANCH  44  45
ATOM     45  C   UNL     1       9.749  -0.524  22.787  0.00  0.00    -0.032 A 
ATOM     46  C   UNL     1       9.750   0.468  21.805  0.00  0.00    +0.005 A 
ATOM     47  C   UNL     1      10.126   1.777  22.124  0.00  0.00    +0.010 A 
ATOM     48  C   UNL     1      10.525   2.135  23.425  0.00  0.00    +0.000 A 
ATOM     49  C   UNL     1      10.721   1.080  24.332  0.00  0.00    +0.010 A 
ATOM     50  C   UNL     1      10.321  -0.222  24.026  0.00  0.00    +0.005 A 
BRANCH  48  51
ATOM     51  C   UNL     1      10.571   3.562  23.840  0.00  0.00    +0.071 A 
ATOM     52  N   UNL     1      11.612   4.281  23.341  0.00  0.00    -0.255 NA
ATOM     53  C   UNL     1      11.581   5.627  23.466  0.00  0.00    +0.111 A 
ATOM     54  C   UNL     1      10.556   6.320  24.080  0.00  0.00    +0.020 A 
ATOM     55  C   UNL     1       9.518   5.586  24.631  0.00  0.00    +0.004 A 
ATOM     56  C   UNL     1       9.529   4.197  24.521  0.00  0.00    +0.028 A 
ENDBRANCH  48  51
ENDBRANCH  44  45
ENDBRANCH   1  44
TORSDOF 19
ENDMDL
MODEL 5
REMARK VINA RESULT:      -6.5      2.543      8.232
REMARK  Name = 
REMARK  27 active torsions:
REMARK  status: ('A' for Active; 'I' for Inactive)
REMARK    1  A    between atoms: C_1  and  C_2
REMARK    2  A    between atoms: C_2  and  C_3
REMARK    3  A    between atoms: C_2  and  C_4
REMARK    4  A    between atoms: C_2  and  C_5
REMARK    5  A    between atoms: C_5  and  C_7
REMARK    6  A    between atoms: C_5  and  N_51
REMARK    7  A    between atoms: N_9  and  C_10
REMARK    8  A    between atoms: C_10  and  C_12
REMARK    9  A    between atoms: C_10  and  C_19
REMARK   10  A    between atoms: C_12  and  C_13
REMARK   11  A    between atoms: C_19  and  C_21
REMARK   12  A    between atoms: C_19  and  O_50
REMARK   13  A    between atoms: C_21  and  N_22
REMARK   14  A    between atoms: N_22  and  C_23
REMARK   15  A    between atoms: N_22  and  N_36
REMARK   16  A    between atoms: C_23  and  C_24
REMARK   17  A    between atoms: C_27  and  C_30
REMARK   18  A    between atoms: C_37  and  C_39
REMARK   19  A    between atoms: C_39  and  C_41
REMARK   20  A    between atoms: C_39  and  N_45
REMARK   21  A    between atoms: C_41  and  C_42
REMARK   22  A    between atoms: C_41  and  C_43
REMARK   23  A    between atoms: C_41  and  C_44
REMARK   24  A    between atoms: C_46  and  O_48
REMARK   25  A    between atoms: O_48  and  C_49
REMARK   26  A    between atoms: C_52  and  O_54
REMARK   27  A    between atoms: O_54  and  C_55
REMARK                            x       y       z     vdW  Elec       q    Type
REMARK                         _______ _______ _______ _____ _____    ______ ____
ROOT
ATOM      1  N   UNL     1       8.543  -2.307  25.062  0.00  0.00    -0.220 NA
ENDROOT
BRANCH   1   2
ATOM      2  N   UNL     1       7.649  -1.322  25.582  0.00  0.00    -0.246 N 
ATOM      3  H   UNL     1       6.706  -1.260  25.202  0.00  0.00    +0.169 HD
ATOM      4  C   UNL     1       7.972  -0.658  26.763  0.00  0.00    +0.248 C 
ATOM      5  O   UNL     1       9.085  -0.723  27.277  0.00  0.00    -0.272 OA
BRANCH   4   6
ATOM      6  C   UNL     1       6.852   0.295  27.264  0.00  0.00    +0.169 C 
BRANCH   6   7
ATOM      7  C   UNL     1       6.428   1.452  26.297  0.00  0.00    -0.011 C 
ATOM      8  C   UNL     1       5.387   0.937  25.284  0.00  0.00    +0.013 C 
ATOM      9  C   UNL     1       7.661   1.930  25.488  0.00  0.00    +0.013 C 
ATOM     10  C   UNL     1       5.851   2.681  27.025  0.00  0.00    +0.013 C 
ENDBRANCH   6   7
BRANCH   6  11
ATOM     11  N   UNL     1       5.727  -0.573  27.582  0.00  0.00    -0.269 N 
ATOM     12  H   UNL     1       5.553  -1.394  27.016  0.00  0.00    +0.153 HD
ATOM     13  C   UNL     1       4.933  -0.420  28.680  0.00  0.00    +0.401 C 
ATOM     14  O   UNL     1       5.054   0.461  29.514  0.00  0.00    -0.226 OA
BRANCH  13  15
ATOM     15  O   UNL     1       4.000  -1.394  28.676  0.00  0.00    -0.454 OA
ATOM     16  C   UNL     1       3.168  -1.412  29.836  0.00  0.00    +0.282 C 
ENDBRANCH  13  15
ENDBRANCH   6  11
ENDBRANCH   4   6
ENDBRANCH   1   2
BRANCH   1  17
ATOM     17  C   UNL     1       7.996  -3.651  25.268  0.00  0.00    +0.139 C 
BRANCH  17  18
ATOM     18  C   UNL     1       7.631  -4.124  26.693  0.00  0.00    +0.151 C 
BRANCH  18  19
ATOM     19  O   UNL     1       8.743  -4.933  27.135  0.00  0.00    -0.389 OA
ATOM     20  H   UNL     1       8.976  -5.542  26.412  0.00  0.00    +0.210 HD
ENDBRANCH  18  19
BRANCH  18  21
ATOM     21  C   UNL     1       6.312  -4.951  26.875  0.00  0.00    +0.107 C 
BRANCH  21  23
ATOM     22  C   UNL     1       4.712  -3.831  25.249  0.00  0.00    +0.234 C 
ATOM     23  N   UNL     1       5.452  -4.921  25.670  0.00  0.00    -0.308 N 
ATOM     24  H   UNL     1       5.039  -5.809  25.406  0.00  0.00    +0.149 HD
ATOM     25  O   UNL     1       4.730  -2.750  25.836  0.00  0.00    -0.274 OA
BRANCH  22  26
ATOM     26  C   UNL     1       3.763  -4.061  24.024  0.00  0.00    +0.167 C 
BRANCH  26  28
ATOM     27  C   UNL     1       2.974  -6.213  25.192  0.00  0.00    +0.013 C 
ATOM     28  C   UNL     1       2.546  -4.995  24.349  0.00  0.00    -0.011 C 
ATOM     29  C   UNL     1       1.496  -4.226  25.188  0.00  0.00    +0.013 C 
ATOM     30  C   UNL     1       1.865  -5.503  23.064  0.00  0.00    +0.013 C 
ENDBRANCH  26  28
BRANCH  26  31
ATOM     31  N   UNL     1       4.489  -4.545  22.847  0.00  0.00    -0.269 N 
ATOM     32  H   UNL     1       4.310  -5.467  22.479  0.00  0.00    +0.153 HD
ATOM     33  C   UNL     1       5.384  -3.802  22.143  0.00  0.00    +0.401 C 
ATOM     34  O   UNL     1       5.743  -2.668  22.406  0.00  0.00    -0.226 OA
BRANCH  33  35
ATOM     35  O   UNL     1       5.798  -4.539  21.085  0.00  0.00    -0.454 OA
ATOM     36  C   UNL     1       6.104  -5.903  21.380  0.00  0.00    +0.282 C 
ENDBRANCH  33  35
ENDBRANCH  26  31
ENDBRANCH  22  26
ENDBRANCH  21  23
BRANCH  21  37
ATOM     37  C   UNL     1       5.614  -4.500  28.207  0.00  0.00    +0.060 C 
BRANCH  37  38
ATOM     38  C   UNL     1       4.370  -5.277  28.592  0.00  0.00    -0.046 A 
ATOM     39  C   UNL     1       3.092  -4.704  28.496  0.00  0.00    +0.004 A 
ATOM     40  C   UNL     1       1.950  -5.463  28.760  0.00  0.00    +0.000 A 
ATOM     41  C   UNL     1       2.072  -6.795  29.148  0.00  0.00    +0.000 A 
ATOM     42  C   UNL     1       3.336  -7.357  29.303  0.00  0.00    +0.000 A 
ATOM     43  C   UNL     1       4.475  -6.599  29.037  0.00  0.00    +0.004 A 
ENDBRANCH  37  38
ENDBRANCH  21  37
ENDBRANCH  18  21
ENDBRANCH  17  18
ENDBRANCH   1  17
BRANCH   1  44
ATOM     44  C   UNL     1       9.058  -1.968  23.720  0.00  0.00    +0.140 C 
BRANCH  44  45
ATOM     45  C   UNL     1       9.613  -0.586  23.487  0.00  0.00    -0.032 A 
ATOM     46  C   UNL     1       9.179   0.223  22.435  0.00  0.00    +0.005 A 
ATOM     47  C   UNL     1       9.614   1.549  22.339  0.00  0.00    +0.010 A 
ATOM     48  C   UNL     1      10.504   2.105  23.278  0.00  0.00    +0.000 A 
ATOM     49  C   UNL     1      11.088   1.212  24.191  0.00  0.00    +0.010 A 
ATOM     50  C   UNL     1      10.636  -0.104  24.308  0.00  0.00    +0.005 A 
BRANCH  48  51
ATOM     51  C   UNL     1      10.675   3.578  23.382  0.00  0.00    +0.071 A 
ATOM     52  N   UNL     1       9.565   4.270  23.757  0.00  0.00    -0.255 NA
ATOM     53  C   UNL     1       9.707   5.565  24.116  0.00  0.00    +0.111 A 
ATOM     54  C   UNL     1      10.913   6.237  24.117  0.00  0.00    +0.020 A 
ATOM     55  C   UNL     1      12.037   5.548  23.690  0.00  0.00    +0.004 A 
ATOM     56  C   UNL     1      11.918   4.212  23.309  0.00  0.00    +0.028 A 
ENDBRANCH  48  51
ENDBRANCH  44  45
ENDBRANCH   1  44
TORSDOF 19
ENDMDL
MODEL 6
REMARK VINA RESULT:      -6.4      2.513      6.012
REMARK  Name = 
REMARK  27 active torsions:
REMARK  status: ('A' for Active; 'I' for Inactive)
REMARK    1  A    between atoms: C_1  and  C_2
REMARK    2  A    between atoms: C_2  and  C_3
REMARK    3  A    between atoms: C_2  and  C_4
REMARK    4  A    between atoms: C_2  and  C_5
REMARK    5  A    between atoms: C_5  and  C_7
REMARK    6  A    between atoms: C_5  and  N_51
REMARK    7  A    between atoms: N_9  and  C_10
REMARK    8  A    between atoms: C_10  and  C_12
REMARK    9  A    between atoms: C_10  and  C_19
REMARK   10  A    between atoms: C_12  and  C_13
REMARK   11  A    between atoms: C_19  and  C_21
REMARK   12  A    between atoms: C_19  and  O_50
REMARK   13  A    between atoms: C_21  and  N_22
REMARK   14  A    between atoms: N_22  and  C_23
REMARK   15  A    between atoms: N_22  and  N_36
REMARK   16  A    between atoms: C_23  and  C_24
REMARK   17  A    between atoms: C_27  and  C_30
REMARK   18  A    between atoms: C_37  and  C_39
REMARK   19  A    between atoms: C_39  and  C_41
REMARK   20  A    between atoms: C_39  and  N_45
REMARK   21  A    between atoms: C_41  and  C_42
REMARK   22  A    between atoms: C_41  and  C_43
REMARK   23  A    between atoms: C_41  and  C_44
REMARK   24  A    between atoms: C_46  and  O_48
REMARK   25  A    between atoms: O_48  and  C_49
REMARK   26  A    between atoms: C_52  and  O_54
REMARK   27  A    between atoms: O_54  and  C_55
REMARK                            x       y       z     vdW  Elec       q    Type
REMARK                         _______ _______ _______ _____ _____    ______ ____
ROOT
ATOM      1  N   UNL     1       7.052  -2.373  26.207  0.00  0.00    -0.220 NA
ENDROOT
BRANCH   1   2
ATOM      2  N   UNL     1       6.509  -1.448  27.151  0.00  0.00    -0.246 N 
ATOM      3  H   UNL     1       6.897  -1.418  28.093  0.00  0.00    +0.169 HD
ATOM      4  C   UNL     1       5.667  -0.431  26.709  0.00  0.00    +0.248 C 
ATOM      5  O   UNL     1       5.196  -0.406  25.576  0.00  0.00    -0.272 OA
BRANCH   4   6
ATOM      6  C   UNL     1       5.253   0.562  27.830  0.00  0.00    +0.169 C 
BRANCH   6   7
ATOM      7  C   UNL     1       6.019   1.928  27.878  0.00  0.00    -0.011 C 
ATOM      8  C   UNL     1       5.077   3.075  27.464  0.00  0.00    +0.013 C 
ATOM      9  C   UNL     1       7.188   1.903  26.861  0.00  0.00    +0.013 C 
ATOM     10  C   UNL     1       6.619   2.248  29.261  0.00  0.00    +0.013 C 
ENDBRANCH   6   7
BRANCH   6  11
ATOM     11  N   UNL     1       3.822   0.759  27.655  0.00  0.00    -0.269 N 
ATOM     12  H   UNL     1       3.484   1.294  26.864  0.00  0.00    +0.153 HD
ATOM     13  C   UNL     1       2.870   0.172  28.435  0.00  0.00    +0.401 C 
ATOM     14  O   UNL     1       3.096  -0.570  29.376  0.00  0.00    -0.226 OA
BRANCH  13  15
ATOM     15  O   UNL     1       1.655   0.557  27.995  0.00  0.00    -0.454 OA
ATOM     16  C   UNL     1       1.692   1.541  26.961  0.00  0.00    +0.282 C 
ENDBRANCH  13  15
ENDBRANCH   6  11
ENDBRANCH   4   6
ENDBRANCH   1   2
BRANCH   1  17
ATOM     17  C   UNL     1       8.368  -1.919  25.749  0.00  0.00    +0.139 C 
BRANCH  17  18
ATOM     18  C   UNL     1       8.749  -2.042  24.257  0.00  0.00    +0.151 C 
BRANCH  18  19
ATOM     19  O   UNL     1      10.159  -1.737  24.184  0.00  0.00    -0.389 OA
ATOM     20  H   UNL     1      10.253  -0.771  24.115  0.00  0.00    +0.210 HD
ENDBRANCH  18  19
BRANCH  18  21
ATOM     21  C   UNL     1       7.991  -1.133  23.230  0.00  0.00    +0.107 C 
BRANCH  21  23
ATOM     22  C   UNL     1       8.181   1.369  22.826  0.00  0.00    +0.234 C 
ATOM     23  N   UNL     1       7.944   0.286  23.652  0.00  0.00    -0.308 N 
ATOM     24  H   UNL     1       8.189   0.462  24.621  0.00  0.00    +0.149 HD
ATOM     25  O   UNL     1       8.425   1.247  21.626  0.00  0.00    -0.274 OA
BRANCH  22  26
ATOM     26  C   UNL     1       8.213   2.777  23.510  0.00  0.00    +0.167 C 
BRANCH  26  28
ATOM     27  C   UNL     1       7.108   4.512  21.964  0.00  0.00    +0.013 C 
ATOM     28  C   UNL     1       6.933   3.636  23.222  0.00  0.00    -0.011 C 
ATOM     29  C   UNL     1       5.723   2.710  22.948  0.00  0.00    +0.013 C 
ATOM     30  C   UNL     1       6.587   4.551  24.412  0.00  0.00    +0.013 C 
ENDBRANCH  26  28
BRANCH  26  31
ATOM     31  N   UNL     1       9.427   3.526  23.175  0.00  0.00    -0.269 N 
ATOM     32  H   UNL     1       9.365   4.423  22.717  0.00  0.00    +0.153 HD
ATOM     33  C   UNL     1      10.685   3.122  23.494  0.00  0.00    +0.401 C 
ATOM     34  O   UNL     1      10.988   2.082  24.050  0.00  0.00    -0.226 OA
BRANCH  33  35
ATOM     35  O   UNL     1      11.548   4.089  23.098  0.00  0.00    -0.454 OA
ATOM     36  C   UNL     1      11.274   5.393  23.613  0.00  0.00    +0.282 C 
ENDBRANCH  33  35
ENDBRANCH  26  31
ENDBRANCH  22  26
ENDBRANCH  21  23
BRANCH  21  37
ATOM     37  C   UNL     1       6.597  -1.783  22.912  0.00  0.00    +0.060 C 
BRANCH  37  38
ATOM     38  C   UNL     1       6.614  -3.275  22.644  0.00  0.00    -0.046 A 
ATOM     39  C   UNL     1       7.704  -4.074  23.024  0.00  0.00    +0.004 A 
ATOM     40  C   UNL     1       7.663  -5.460  22.859  0.00  0.00    +0.000 A 
ATOM     41  C   UNL     1       6.543  -6.061  22.290  0.00  0.00    +0.000 A 
ATOM     42  C   UNL     1       5.479  -5.274  21.857  0.00  0.00    +0.000 A 
ATOM     43  C   UNL     1       5.521  -3.891  22.024  0.00  0.00    +0.004 A 
ENDBRANCH  37  38
ENDBRANCH  21  37
ENDBRANCH  18  21
ENDBRANCH  17  18
ENDBRANCH   1  17
BRANCH   1  44
ATOM     44  C   UNL     1       6.915  -3.780  26.633  0.00  0.00    +0.140 C 
BRANCH  44  45
ATOM     45  C   UNL     1       5.741  -4.577  26.127  0.00  0.00    -0.032 A 
ATOM     46  C   UNL     1       4.570  -3.970  25.671  0.00  0.00    +0.005 A 
ATOM     47  C   UNL     1       3.562  -4.737  25.077  0.00  0.00    +0.010 A 
ATOM     48  C   UNL     1       3.683  -6.132  24.932  0.00  0.00    +0.000 A 
ATOM     49  C   UNL     1       4.766  -6.738  25.590  0.00  0.00    +0.010 A 
ATOM     50  C   UNL     1       5.788  -5.974  26.160  0.00  0.00    +0.005 A 
BRANCH  48  51
ATOM     51  C   UNL     1       2.799  -6.878  23.998  0.00  0.00    +0.071 A 
ATOM     52  N   UNL     1       2.567  -8.177  24.327  0.00  0.00    -0.255 NA
ATOM     53  C   UNL     1       1.584  -8.839  23.676  0.00  0.00    +0.111 A 
ATOM     54  C   UNL     1       0.803  -8.277  22.685  0.00  0.00    +0.020 A 
ATOM     55  C   UNL     1       1.071  -6.968  22.315  0.00  0.00    +0.004 A 
ATOM     56  C   UNL     1       2.082  -6.266  22.967  0.00  0.00    +0.028 A 
ENDBRANCH  48  51
ENDBRANCH  44  45
ENDBRANCH   1  44
TORSDOF 19
ENDMDL
MODEL 7
REMARK VINA RESULT:      -6.4      2.561      6.299
REMARK  Name = 
REMARK  27 active torsions:
REMARK  status: ('A' for Active; 'I' for Inactive)
REMARK    1  A    between atoms: C_1  and  C_2
REMARK    2  A    between atoms: C_2  and  C_3
REMARK    3  A    between atoms: C_2  and  C_4
REMARK    4  A    between atoms: C_2  and  C_5
REMARK    5  A    between atoms: C_5  and  C_7
REMARK    6  A    between atoms: C_5  and  N_51
REMARK    7  A    between atoms: N_9  and  C_10
REMARK    8  A    between atoms: C_10  and  C_12
REMARK    9  A    between atoms: C_10  and  C_19
REMARK   10  A    between atoms: C_12  and  C_13
REMARK   11  A    between atoms: C_19  and  C_21
REMARK   12  A    between atoms: C_19  and  O_50
REMARK   13  A    between atoms: C_21  and  N_22
REMARK   14  A    between atoms: N_22  and  C_23
REMARK   15  A    between atoms: N_22  and  N_36
REMARK   16  A    between atoms: C_23  and  C_24
REMARK   17  A    between atoms: C_27  and  C_30
REMARK   18  A    between atoms: C_37  and  C_39
REMARK   19  A    between atoms: C_39  and  C_41
REMARK   20  A    between atoms: C_39  and  N_45
REMARK   21  A    between atoms: C_41  and  C_42
REMARK   22  A    between atoms: C_41  and  C_43
REMARK   23  A    between atoms: C_41  and  C_44
REMARK   24  A    between atoms: C_46  and  O_48
REMARK   25  A    between atoms: O_48  and  C_49
REMARK   26  A    between atoms: C_52  and  O_54
REMARK   27  A    between atoms: O_54  and  C_55
REMARK                            x       y       z     vdW  Elec       q    Type
REMARK                         _______ _______ _______ _____ _____    ______ ____
ROOT
ATOM      1  N   UNL     1       6.568  -1.616  26.286  0.00  0.00    -0.220 NA
ENDROOT
BRANCH   1   2
ATOM      2  N   UNL     1       5.969  -0.547  27.021  0.00  0.00    -0.246 N 
ATOM      3  H   UNL     1       6.180  -0.449  28.013  0.00  0.00    +0.169 HD
ATOM      4  C   UNL     1       5.340   0.489  26.335  0.00  0.00    +0.248 C 
ATOM      5  O   UNL     1       5.088   0.432  25.134  0.00  0.00    -0.272 OA
BRANCH   4   6
ATOM      6  C   UNL     1       4.842   1.632  27.260  0.00  0.00    +0.169 C 
BRANCH   6   7
ATOM      7  C   UNL     1       3.509   1.375  28.043  0.00  0.00    -0.011 C 
ATOM      8  C   UNL     1       2.776   2.708  28.289  0.00  0.00    +0.013 C 
ATOM      9  C   UNL     1       3.833   0.764  29.431  0.00  0.00    +0.013 C 
ATOM     10  C   UNL     1       2.553   0.403  27.325  0.00  0.00    +0.013 C 
ENDBRANCH   6   7
BRANCH   6  11
ATOM     11  N   UNL     1       5.949   1.898  28.167  0.00  0.00    -0.269 N 
ATOM     12  H   UNL     1       6.392   1.129  28.655  0.00  0.00    +0.153 HD
ATOM     13  C   UNL     1       6.521   3.125  28.332  0.00  0.00    +0.401 C 
ATOM     14  O   UNL     1       6.171   4.143  27.760  0.00  0.00    -0.226 OA
BRANCH  13  15
ATOM     15  O   UNL     1       7.520   3.017  29.231  0.00  0.00    -0.454 OA
ATOM     16  C   UNL     1       7.393   1.903  30.115  0.00  0.00    +0.282 C 
ENDBRANCH  13  15
ENDBRANCH   6  11
ENDBRANCH   4   6
ENDBRANCH   1   2
BRANCH   1  17
ATOM     17  C   UNL     1       7.977  -1.320  26.015  0.00  0.00    +0.139 C 
BRANCH  17  18
ATOM     18  C   UNL     1       8.569  -1.604  24.616  0.00  0.00    +0.151 C 
BRANCH  18  19
ATOM     19  O   UNL     1       9.972  -1.274  24.707  0.00  0.00    -0.389 OA
ATOM     20  H   UNL     1      10.094  -0.701  25.484  0.00  0.00    +0.210 HD
ENDBRANCH  18  19
BRANCH  18  21
ATOM     21  C   UNL     1       7.957  -0.839  23.392  0.00  0.00    +0.107 C 
BRANCH  21  23
ATOM     22  C   UNL     1       8.493   1.616  23.017  0.00  0.00    +0.234 C 
ATOM     23  N   UNL     1       7.790   0.609  23.653  0.00  0.00    -0.308 N 
ATOM     24  H   UNL     1       7.508   0.854  24.596  0.00  0.00    +0.149 HD
ATOM     25  O   UNL     1       9.317   1.394  22.130  0.00  0.00    -0.274 OA
BRANCH  22  26
ATOM     26  C   UNL     1       8.257   3.073  23.543  0.00  0.00    +0.167 C 
BRANCH  26  28
ATOM     27  C   UNL     1       6.040   4.200  24.200  0.00  0.00    +0.013 C 
ATOM     28  C   UNL     1       6.917   3.708  23.031  0.00  0.00    -0.011 C 
ATOM     29  C   UNL     1       7.218   4.948  22.155  0.00  0.00    +0.013 C 
ATOM     30  C   UNL     1       6.102   2.705  22.194  0.00  0.00    +0.013 C 
ENDBRANCH  26  28
BRANCH  26  31
ATOM     31  N   UNL     1       9.392   3.954  23.255  0.00  0.00    -0.269 N 
ATOM     32  H   UNL     1       9.904   3.864  22.390  0.00  0.00    +0.153 HD
ATOM     33  C   UNL     1       9.797   4.967  24.067  0.00  0.00    +0.401 C 
ATOM     34  O   UNL     1       9.320   5.257  25.149  0.00  0.00    -0.226 OA
BRANCH  33  35
ATOM     35  O   UNL     1      10.819   5.611  23.453  0.00  0.00    -0.454 OA
ATOM     36  C   UNL     1      12.044   4.880  23.390  0.00  0.00    +0.282 C 
ENDBRANCH  33  35
ENDBRANCH  26  31
ENDBRANCH  22  26
ENDBRANCH  21  23
BRANCH  21  37
ATOM     37  C   UNL     1       6.658  -1.588  22.926  0.00  0.00    +0.060 C 
BRANCH  37  38
ATOM     38  C   UNL     1       6.832  -3.055  22.586  0.00  0.00    -0.046 A 
ATOM     39  C   UNL     1       7.781  -3.852  23.247  0.00  0.00    +0.004 A 
ATOM     40  C   UNL     1       7.862  -5.222  22.993  0.00  0.00    +0.000 A 
ATOM     41  C   UNL     1       7.014  -5.809  22.057  0.00  0.00    +0.000 A 
ATOM     42  C   UNL     1       6.108  -5.020  21.353  0.00  0.00    +0.000 A 
ATOM     43  C   UNL     1       6.028  -3.652  21.609  0.00  0.00    +0.004 A 
ENDBRANCH  37  38
ENDBRANCH  21  37
ENDBRANCH  18  21
ENDBRANCH  17  18
ENDBRANCH   1  17
BRANCH   1  44
ATOM     44  C   UNL     1       6.233  -2.948  26.829  0.00  0.00    +0.140 C 
BRANCH  44  45
ATOM     45  C   UNL     1       5.453  -3.905  25.965  0.00  0.00    -0.032 A 
ATOM     46  C   UNL     1       5.704  -5.278  25.960  0.00  0.00    +0.005 A 
ATOM     47  C   UNL     1       4.865  -6.146  25.254  0.00  0.00    +0.010 A 
ATOM     48  C   UNL     1       3.760  -5.675  24.523  0.00  0.00    +0.000 A 
ATOM     49  C   UNL     1       3.660  -4.282  24.369  0.00  0.00    +0.010 A 
ATOM     50  C   UNL     1       4.478  -3.412  25.093  0.00  0.00    +0.005 A 
BRANCH  48  51
ATOM     51  C   UNL     1       2.684  -6.604  24.086  0.00  0.00    +0.071 A 
ATOM     52  N   UNL     1       2.059  -6.269  22.925  0.00  0.00    -0.255 NA
ATOM     53  C   UNL     1       1.258  -7.187  22.340  0.00  0.00    +0.111 A 
ATOM     54  C   UNL     1       1.025  -8.447  22.855  0.00  0.00    +0.020 A 
ATOM     55  C   UNL     1       1.623  -8.772  24.063  0.00  0.00    +0.004 A 
ATOM     56  C   UNL     1       2.450  -7.842  24.689  0.00  0.00    +0.028 A 
ENDBRANCH  48  51
ENDBRANCH  44  45
ENDBRANCH   1  44
TORSDOF 19
ENDMDL
MODEL 8
REMARK VINA RESULT:      -6.4      2.669      7.806
REMARK  Name = 
REMARK  27 active torsions:
REMARK  status: ('A' for Active; 'I' for Inactive)
REMARK    1  A    between atoms: C_1  and  C_2
REMARK    2  A    between atoms: C_2  and  C_3
REMARK    3  A    between atoms: C_2  and  C_4
REMARK    4  A    between atoms: C_2  and  C_5
REMARK    5  A    between atoms: C_5  and  C_7
REMARK    6  A    between atoms: C_5  and  N_51
REMARK    7  A    between atoms: N_9  and  C_10
REMARK    8  A    between atoms: C_10  and  C_12
REMARK    9  A    between atoms: C_10  and  C_19
REMARK   10  A    between atoms: C_12  and  C_13
REMARK   11  A    between atoms: C_19  and  C_21
REMARK   12  A    between atoms: C_19  and  O_50
REMARK   13  A    between atoms: C_21  and  N_22
REMARK   14  A    between atoms: N_22  and  C_23
REMARK   15  A    between atoms: N_22  and  N_36
REMARK   16  A    between atoms: C_23  and  C_24
REMARK   17  A    between atoms: C_27  and  C_30
REMARK   18  A    between atoms: C_37  and  C_39
REMARK   19  A    between atoms: C_39  and  C_41
REMARK   20  A    between atoms: C_39  and  N_45
REMARK   21  A    between atoms: C_41  and  C_42
REMARK   22  A    between atoms: C_41  and  C_43
REMARK   23  A    between atoms: C_41  and  C_44
REMARK   24  A    between atoms: C_46  and  O_48
REMARK   25  A    between atoms: O_48  and  C_49
REMARK   26  A    between atoms: C_52  and  O_54
REMARK   27  A    between atoms: O_54  and  C_55
REMARK                            x       y       z     vdW  Elec       q    Type
REMARK                         _______ _______ _______ _____ _____    ______ ____
ROOT
ATOM      1  N   UNL     1       8.750  -2.522  25.583  0.00  0.00    -0.220 NA
ENDROOT
BRANCH   1   2
ATOM      2  N   UNL     1       7.598  -1.756  25.938  0.00  0.00    -0.246 N 
ATOM      3  H   UNL     1       6.688  -2.032  25.572  0.00  0.00    +0.169 HD
ATOM      4  C   UNL     1       7.682  -0.830  26.975  0.00  0.00    +0.248 C 
ATOM      5  O   UNL     1       8.752  -0.484  27.470  0.00  0.00    -0.272 OA
BRANCH   4   6
ATOM      6  C   UNL     1       6.323  -0.162  27.322  0.00  0.00    +0.169 C 
BRANCH   6   7
ATOM      7  C   UNL     1       6.218   1.383  27.085  0.00  0.00    -0.011 C 
ATOM      8  C   UNL     1       4.745   1.786  26.882  0.00  0.00    +0.013 C 
ATOM      9  C   UNL     1       6.982   1.762  25.790  0.00  0.00    +0.013 C 
ATOM     10  C   UNL     1       6.813   2.223  28.232  0.00  0.00    +0.013 C 
ENDBRANCH   6   7
BRANCH   6  11
ATOM     11  N   UNL     1       5.332  -0.889  26.543  0.00  0.00    -0.269 N 
ATOM     12  H   UNL     1       5.454  -0.986  25.543  0.00  0.00    +0.153 HD
ATOM     13  C   UNL     1       4.277  -1.560  27.088  0.00  0.00    +0.401 C 
ATOM     14  O   UNL     1       4.026  -1.621  28.279  0.00  0.00    -0.226 OA
BRANCH  13  15
ATOM     15  O   UNL     1       3.567  -2.127  26.092  0.00  0.00    -0.454 OA
ATOM     16  C   UNL     1       2.242  -2.509  26.461  0.00  0.00    +0.282 C 
ENDBRANCH  13  15
ENDBRANCH   6  11
ENDBRANCH   4   6
ENDBRANCH   1   2
BRANCH   1  17
ATOM     17  C   UNL     1       8.577  -3.919  25.988  0.00  0.00    +0.139 C 
BRANCH  17  18
ATOM     18  C   UNL     1       7.332  -4.337  26.802  0.00  0.00    +0.151 C 
BRANCH  18  19
ATOM     19  O   UNL     1       7.704  -5.546  27.499  0.00  0.00    -0.389 OA
ATOM     20  H   UNL     1       6.896  -6.069  27.643  0.00  0.00    +0.210 HD
ENDBRANCH  18  19
BRANCH  18  21
ATOM     21  C   UNL     1       6.001  -4.605  26.019  0.00  0.00    +0.107 C 
BRANCH  21  23
ATOM     22  C   UNL     1       4.562  -6.138  27.446  0.00  0.00    +0.234 C 
ATOM     23  N   UNL     1       4.860  -4.895  26.918  0.00  0.00    -0.308 N 
ATOM     24  H   UNL     1       4.042  -4.310  26.789  0.00  0.00    +0.149 HD
ATOM     25  O   UNL     1       5.256  -7.132  27.237  0.00  0.00    -0.274 OA
BRANCH  22  26
ATOM     26  C   UNL     1       3.231  -6.249  28.264  0.00  0.00    +0.167 C 
BRANCH  26  28
ATOM     27  C   UNL     1       2.874  -7.511  30.478  0.00  0.00    +0.013 C 
ATOM     28  C   UNL     1       3.455  -6.244  29.816  0.00  0.00    -0.011 C 
ATOM     29  C   UNL     1       4.970  -6.238  30.134  0.00  0.00    +0.013 C 
ATOM     30  C   UNL     1       2.813  -5.009  30.476  0.00  0.00    +0.013 C 
ENDBRANCH  26  28
BRANCH  26  31
ATOM     31  N   UNL     1       2.429  -7.407  27.859  0.00  0.00    -0.269 N 
ATOM     32  H   UNL     1       2.391  -8.232  28.439  0.00  0.00    +0.153 HD
ATOM     33  C   UNL     1       1.652  -7.444  26.744  0.00  0.00    +0.401 C 
ATOM     34  O   UNL     1       1.544  -6.562  25.911  0.00  0.00    -0.226 OA
BRANCH  33  35
ATOM     35  O   UNL     1       1.002  -8.633  26.727  0.00  0.00    -0.454 OA
ATOM     36  C   UNL     1       0.523  -9.079  27.996  0.00  0.00    +0.282 C 
ENDBRANCH  33  35
ENDBRANCH  26  31
ENDBRANCH  22  26
ENDBRANCH  21  23
BRANCH  21  37
ATOM     37  C   UNL     1       6.274  -5.686  24.914  0.00  0.00    +0.060 C 
BRANCH  37  38
ATOM     38  C   UNL     1       6.226  -5.189  23.482  0.00  0.00    -0.046 A 
ATOM     39  C   UNL     1       6.406  -6.063  22.398  0.00  0.00    +0.004 A 
ATOM     40  C   UNL     1       6.262  -5.610  21.086  0.00  0.00    +0.000 A 
ATOM     41  C   UNL     1       5.962  -4.272  20.840  0.00  0.00    +0.000 A 
ATOM     42  C   UNL     1       5.838  -3.384  21.904  0.00  0.00    +0.000 A 
ATOM     43  C   UNL     1       5.981  -3.838  23.214  0.00  0.00    +0.004 A 
ENDBRANCH  37  38
ENDBRANCH  21  37
ENDBRANCH  18  21
ENDBRANCH  17  18
ENDBRANCH   1  17
BRANCH   1  44
ATOM     44  C   UNL     1       9.221  -2.253  24.209  0.00  0.00    +0.140 C 
BRANCH  44  45
ATOM     45  C   UNL     1       9.675  -0.859  23.861  0.00  0.00    -0.032 A 
ATOM     46  C   UNL     1       9.269  -0.214  22.691  0.00  0.00    +0.005 A 
ATOM     47  C   UNL     1       9.596   1.129  22.475  0.00  0.00    +0.010 A 
ATOM     48  C   UNL     1      10.348   1.866  23.409  0.00  0.00    +0.000 A 
ATOM     49  C   UNL     1      10.923   1.137  24.464  0.00  0.00    +0.010 A 
ATOM     50  C   UNL     1      10.576  -0.196  24.698  0.00  0.00    +0.005 A 
BRANCH  48  51
ATOM     51  C   UNL     1      10.383   3.351  23.354  0.00  0.00    +0.071 A 
ATOM     52  N   UNL     1       9.186   3.970  23.533  0.00  0.00    -0.255 NA
ATOM     53  C   UNL     1       9.179   5.305  23.747  0.00  0.00    +0.111 A 
ATOM     54  C   UNL     1      10.318   6.085  23.788  0.00  0.00    +0.020 A 
ATOM     55  C   UNL     1      11.535   5.463  23.558  0.00  0.00    +0.004 A 
ATOM     56  C   UNL     1      11.570   4.089  23.329  0.00  0.00    +0.028 A 
ENDBRANCH  48  51
ENDBRANCH  44  45
ENDBRANCH   1  44
TORSDOF 19
ENDMDL
MODEL 9
REMARK VINA RESULT:      -6.4      1.974      6.369
REMARK  Name = 
REMARK  27 active torsions:
REMARK  status: ('A' for Active; 'I' for Inactive)
REMARK    1  A    between atoms: C_1  and  C_2
REMARK    2  A    between atoms: C_2  and  C_3
REMARK    3  A    between atoms: C_2  and  C_4
REMARK    4  A    between atoms: C_2  and  C_5
REMARK    5  A    between atoms: C_5  and  C_7
REMARK    6  A    between atoms: C_5  and  N_51
REMARK    7  A    between atoms: N_9  and  C_10
REMARK    8  A    between atoms: C_10  and  C_12
REMARK    9  A    between atoms: C_10  and  C_19
REMARK   10  A    between atoms: C_12  and  C_13
REMARK   11  A    between atoms: C_19  and  C_21
REMARK   12  A    between atoms: C_19  and  O_50
REMARK   13  A    between atoms: C_21  and  N_22
REMARK   14  A    between atoms: N_22  and  C_23
REMARK   15  A    between atoms: N_22  and  N_36
REMARK   16  A    between atoms: C_23  and  C_24
REMARK   17  A    between atoms: C_27  and  C_30
REMARK   18  A    between atoms: C_37  and  C_39
REMARK   19  A    between atoms: C_39  and  C_41
REMARK   20  A    between atoms: C_39  and  N_45
REMARK   21  A    between atoms: C_41  and  C_42
REMARK   22  A    between atoms: C_41  and  C_43
REMARK   23  A    between atoms: C_41  and  C_44
REMARK   24  A    between atoms: C_46  and  O_48
REMARK   25  A    between atoms: O_48  and  C_49
REMARK   26  A    between atoms: C_52  and  O_54
REMARK   27  A    between atoms: O_54  and  C_55
REMARK                            x       y       z     vdW  Elec       q    Type
REMARK                         _______ _______ _______ _____ _____    ______ ____
ROOT
ATOM      1  N   UNL     1       7.688  -1.809  26.419  0.00  0.00    -0.220 NA
ENDROOT
BRANCH   1   2
ATOM      2  N   UNL     1       7.547  -2.266  25.073  0.00  0.00    -0.246 N 
ATOM      3  H   UNL     1       7.139  -1.641  24.379  0.00  0.00    +0.169 HD
ATOM      4  C   UNL     1       8.205  -3.424  24.669  0.00  0.00    +0.248 C 
ATOM      5  O   UNL     1       8.738  -4.196  25.462  0.00  0.00    -0.272 OA
BRANCH   4   6
ATOM      6  C   UNL     1       8.052  -3.727  23.153  0.00  0.00    +0.169 C 
BRANCH   6   7
ATOM      7  C   UNL     1       6.822  -4.601  22.731  0.00  0.00    -0.011 C 
ATOM      8  C   UNL     1       5.641  -3.693  22.338  0.00  0.00    +0.013 C 
ATOM      9  C   UNL     1       6.360  -5.462  23.935  0.00  0.00    +0.013 C 
ATOM     10  C   UNL     1       7.123  -5.564  21.566  0.00  0.00    +0.013 C 
ENDBRANCH   6   7
BRANCH   6  11
ATOM     11  N   UNL     1       8.027  -2.424  22.505  0.00  0.00    -0.269 N 
ATOM     12  H   UNL     1       7.140  -1.970  22.329  0.00  0.00    +0.153 HD
ATOM     13  C   UNL     1       9.144  -1.701  22.205  0.00  0.00    +0.401 C 
ATOM     14  O   UNL     1      10.289  -2.057  22.425  0.00  0.00    -0.226 OA
BRANCH  13  15
ATOM     15  O   UNL     1       8.764  -0.544  21.624  0.00  0.00    -0.454 OA
ATOM     16  C   UNL     1       9.808   0.422  21.507  0.00  0.00    +0.282 C 
ENDBRANCH  13  15
ENDBRANCH   6  11
ENDBRANCH   4   6
ENDBRANCH   1   2
BRANCH   1  17
ATOM     17  C   UNL     1       8.548  -0.624  26.468  0.00  0.00    +0.139 C 
BRANCH  17  18
ATOM     18  C   UNL     1       8.780   0.213  25.189  0.00  0.00    +0.151 C 
BRANCH  18  19
ATOM     19  O   UNL     1      10.191   0.103  24.898  0.00  0.00    -0.389 OA
ATOM     20  H   UNL     1      10.496  -0.762  25.222  0.00  0.00    +0.210 HD
ENDBRANCH  18  19
BRANCH  18  21
ATOM     21  C   UNL     1       8.398   1.732  25.229  0.00  0.00    +0.107 C 
BRANCH  21  23
ATOM     22  C   UNL     1       6.659   2.901  26.666  0.00  0.00    +0.234 C 
ATOM     23  N   UNL     1       7.019   1.959  25.720  0.00  0.00    -0.308 N 
ATOM     24  H   UNL     1       6.415   1.145  25.717  0.00  0.00    +0.149 HD
ATOM     25  O   UNL     1       7.468   3.678  27.172  0.00  0.00    -0.274 OA
BRANCH  22  26
ATOM     26  C   UNL     1       5.166   2.879  27.142  0.00  0.00    +0.167 C 
BRANCH  26  28
ATOM     27  C   UNL     1       4.280   2.809  29.556  0.00  0.00    +0.013 C 
ATOM     28  C   UNL     1       4.935   1.999  28.419  0.00  0.00    -0.011 C 
ATOM     29  C   UNL     1       3.967   0.836  28.093  0.00  0.00    +0.013 C 
ATOM     30  C   UNL     1       6.256   1.402  28.940  0.00  0.00    +0.013 C 
ENDBRANCH  26  28
BRANCH  26  31
ATOM     31  N   UNL     1       4.251   2.486  26.068  0.00  0.00    -0.269 N 
ATOM     32  H   UNL     1       3.948   1.528  25.978  0.00  0.00    +0.153 HD
ATOM     33  C   UNL     1       3.705   3.354  25.174  0.00  0.00    +0.401 C 
ATOM     34  O   UNL     1       3.927   4.549  25.104  0.00  0.00    -0.226 OA
BRANCH  33  35
ATOM     35  O   UNL     1       2.857   2.657  24.380  0.00  0.00    -0.454 OA
ATOM     36  C   UNL     1       2.440   3.338  23.196  0.00  0.00    +0.282 C 
ENDBRANCH  33  35
ENDBRANCH  26  31
ENDBRANCH  22  26
ENDBRANCH  21  23
BRANCH  21  37
ATOM     37  C   UNL     1       8.724   2.371  23.832  0.00  0.00    +0.060 C 
BRANCH  37  38
ATOM     38  C   UNL     1       9.706   3.526  23.851  0.00  0.00    -0.046 A 
ATOM     39  C   UNL     1      11.025   3.372  23.394  0.00  0.00    +0.004 A 
ATOM     40  C   UNL     1      11.888   4.467  23.326  0.00  0.00    +0.000 A 
ATOM     41  C   UNL     1      11.452   5.725  23.738  0.00  0.00    +0.000 A 
ATOM     42  C   UNL     1      10.165   5.879  24.246  0.00  0.00    +0.000 A 
ATOM     43  C   UNL     1       9.304   4.784  24.312  0.00  0.00    +0.004 A 
ENDBRANCH  37  38
ENDBRANCH  21  37
ENDBRANCH  18  21
ENDBRANCH  17  18
ENDBRANCH   1  17
BRANCH   1  44
ATOM     44  C   UNL     1       6.406  -1.764  27.151  0.00  0.00    +0.140 C 
BRANCH  44  45
ATOM     45  C   UNL     1       5.285  -2.666  26.701  0.00  0.00    -0.032 A 
ATOM     46  C   UNL     1       4.300  -2.241  25.808  0.00  0.00    +0.005 A 
ATOM     47  C   UNL     1       3.363  -3.150  25.307  0.00  0.00    +0.010 A 
ATOM     48  C   UNL     1       3.369  -4.504  25.688  0.00  0.00    +0.000 A 
ATOM     49  C   UNL     1       4.227  -4.853  26.745  0.00  0.00    +0.010 A 
ATOM     50  C   UNL     1       5.182  -3.956  27.229  0.00  0.00    +0.005 A 
BRANCH  48  51
ATOM     51  C   UNL     1       2.624  -5.520  24.899  0.00  0.00    +0.071 A 
ATOM     52  N   UNL     1       1.848  -6.369  25.624  0.00  0.00    -0.255 NA
ATOM     53  C   UNL     1       0.957  -7.144  24.966  0.00  0.00    +0.111 A 
ATOM     54  C   UNL     1       0.790  -7.134  23.596  0.00  0.00    +0.020 A 
ATOM     55  C   UNL     1       1.613  -6.304  22.850  0.00  0.00    +0.004 A 
ATOM     56  C   UNL     1       2.544  -5.499  23.503  0.00  0.00    +0.028 A 
ENDBRANCH  48  51
ENDBRANCH  44  45
ENDBRANCH   1  44
TORSDOF 19
ENDMDL
