MODEL 1
REMARK VINA RESULT:      -6.5      0.000      0.000
REMARK  Name = 
REMARK  5 active torsions:
REMARK  status: ('A' for Active; 'I' for Inactive)
REMARK    1  A    between atoms: C_1  and  C_5
REMARK    2  A    between atoms: N_7  and  C_13
REMARK    3  A    between atoms: C_17  and  O_24
REMARK    4  A    between atoms: C_19  and  C_22
REMARK    5  A    between atoms: C_22  and  O_23
REMARK                            x       y       z     vdW  Elec       q    Type
REMARK                         _______ _______ _______ _____ _____    ______ ____
ROOT
ATOM      1  C   UNL     1       9.157  -2.693  24.097  0.00  0.00    +0.260 C 
ATOM      2  O   UNL     1       9.133  -1.311  24.507  0.00  0.00    -0.345 OA
ATOM      3  C   UNL     1       8.904  -0.490  23.338  0.00  0.00    +0.178 C 
ATOM      4  C   UNL     1       8.775  -1.423  22.134  0.00  0.00    +0.184 C 
ATOM      5  C   UNL     1       8.423  -2.756  22.754  0.00  0.00    +0.246 C 
ATOM      6  F   UNL     1       7.078  -2.823  22.951  0.00  0.00    -0.238 F 
ENDROOT
BRANCH   1  15
ATOM      7  C   UNL     1       5.679  -3.694  27.537  0.00  0.00    +0.051 C 
ATOM      8  C   UNL     1       6.931  -4.005  26.785  0.00  0.00    +0.030 A 
ATOM      9  C   UNL     1       7.645  -5.257  27.127  0.00  0.00    +0.257 A 
ATOM     10  O   UNL     1       7.226  -6.028  27.985  0.00  0.00    -0.267 OA
ATOM     11  N   UNL     1       8.800  -5.490  26.440  0.00  0.00    -0.275 N 
ATOM     12  H   UNL     1       9.306  -6.331  26.671  0.00  0.00    +0.173 HD
ATOM     13  C   UNL     1       9.332  -4.696  25.460  0.00  0.00    +0.331 A 
ATOM     14  O   UNL     1      10.393  -5.005  24.921  0.00  0.00    -0.246 OA
ATOM     15  N   UNL     1       8.605  -3.559  25.142  0.00  0.00    -0.271 N 
ATOM     16  C   UNL     1       7.449  -3.230  25.824  0.00  0.00    +0.102 A 
ENDBRANCH   1  15
BRANCH   4  17
ATOM     17  O   UNL     1      10.046  -1.519  21.472  0.00  0.00    -0.386 OA
ATOM     18  H   UNL     1       9.968  -1.068  20.611  0.00  0.00    +0.210 HD
ENDBRANCH   4  17
BRANCH   3  19
ATOM     19  C   UNL     1       7.669   0.380  23.593  0.00  0.00    +0.190 C 
BRANCH  19  20
ATOM     20  O   UNL     1       6.678   0.234  22.584  0.00  0.00    -0.392 OA
ATOM     21  H   UNL     1       7.091   0.468  21.731  0.00  0.00    +0.210 HD
ENDBRANCH  19  20
ENDBRANCH   3  19
TORSDOF 4
ENDMDL
MODEL 2
REMARK VINA RESULT:      -6.1      2.570      3.452
REMARK  Name = 
REMARK  5 active torsions:
REMARK  status: ('A' for Active; 'I' for Inactive)
REMARK    1  A    between atoms: C_1  and  C_5
REMARK    2  A    between atoms: N_7  and  C_13
REMARK    3  A    between atoms: C_17  and  O_24
REMARK    4  A    between atoms: C_19  and  C_22
REMARK    5  A    between atoms: C_22  and  O_23
REMARK                            x       y       z     vdW  Elec       q    Type
REMARK                         _______ _______ _______ _____ _____    ______ ____
ROOT
ATOM      1  C   UNL     1       8.879  -1.445  24.078  0.00  0.00    +0.260 C 
ATOM      2  O   UNL     1       8.073  -0.319  23.672  0.00  0.00    -0.345 OA
ATOM      3  C   UNL     1       8.948   0.811  23.444  0.00  0.00    +0.178 C 
ATOM      4  C   UNL     1      10.381   0.352  23.720  0.00  0.00    +0.184 C 
ATOM      5  C   UNL     1      10.302  -1.152  23.593  0.00  0.00    +0.246 C 
ATOM      6  F   UNL     1      10.441  -1.505  22.287  0.00  0.00    -0.238 F 
ENDROOT
BRANCH   1  15
ATOM      7  C   UNL     1       5.832  -3.935  21.004  0.00  0.00    +0.051 C 
ATOM      8  C   UNL     1       6.834  -3.863  22.108  0.00  0.00    +0.030 A 
ATOM      9  C   UNL     1       7.262  -5.136  22.733  0.00  0.00    +0.257 A 
ATOM     10  O   UNL     1       6.828  -6.220  22.356  0.00  0.00    -0.267 OA
ATOM     11  N   UNL     1       8.155  -5.025  23.757  0.00  0.00    -0.275 N 
ATOM     12  H   UNL     1       8.446  -5.881  24.203  0.00  0.00    +0.173 HD
ATOM     13  C   UNL     1       8.703  -3.863  24.231  0.00  0.00    +0.331 A 
ATOM     14  O   UNL     1       9.490  -3.889  25.175  0.00  0.00    -0.246 OA
ATOM     15  N   UNL     1       8.307  -2.701  23.585  0.00  0.00    -0.271 N 
ATOM     16  C   UNL     1       7.372  -2.726  22.568  0.00  0.00    +0.102 A 
ENDBRANCH   1  15
BRANCH   4  17
ATOM     17  O   UNL     1      10.738   0.706  25.066  0.00  0.00    -0.386 OA
ATOM     18  H   UNL     1      10.045   1.297  25.412  0.00  0.00    +0.210 HD
ENDBRANCH   4  17
BRANCH   3  19
ATOM     19  C   UNL     1       8.716   1.319  22.017  0.00  0.00    +0.190 C 
BRANCH  19  20
ATOM     20  O   UNL     1       9.846   2.001  21.488  0.00  0.00    -0.392 OA
ATOM     21  H   UNL     1       9.697   2.120  20.532  0.00  0.00    +0.210 HD
ENDBRANCH  19  20
ENDBRANCH   3  19
TORSDOF 4
ENDMDL
MODEL 3
REMARK VINA RESULT:      -6.1      2.952      3.299
REMARK  Name = 
REMARK  5 active torsions:
REMARK  status: ('A' for Active; 'I' for Inactive)
REMARK    1  A    between atoms: C_1  and  C_5
REMARK    2  A    between atoms: N_7  and  C_13
REMARK    3  A    between atoms: C_17  and  O_24
REMARK    4  A    between atoms: C_19  and  C_22
REMARK    5  A    between atoms: C_22  and  O_23
REMARK                            x       y       z     vdW  Elec       q    Type
REMARK                         _______ _______ _______ _____ _____    ______ ____
ROOT
ATOM      1  C   UNL     1       7.942  -4.002  22.939  0.00  0.00    +0.260 C 
ATOM      2  O   UNL     1       8.842  -3.711  24.028  0.00  0.00    -0.345 OA
ATOM      3  C   UNL     1       9.307  -2.348  23.885  0.00  0.00    +0.178 C 
ATOM      4  C   UNL     1       8.650  -1.762  22.635  0.00  0.00    +0.184 C 
ATOM      5  C   UNL     1       7.446  -2.650  22.417  0.00  0.00    +0.246 C 
ATOM      6  F   UNL     1       6.408  -2.201  23.174  0.00  0.00    -0.238 F 
ENDROOT
BRANCH   1  15
ATOM      7  C   UNL     1       5.143  -6.057  26.527  0.00  0.00    +0.051 C 
ATOM      8  C   UNL     1       5.569  -5.893  25.105  0.00  0.00    +0.030 A 
ATOM      9  C   UNL     1       4.880  -6.715  24.082  0.00  0.00    +0.257 A 
ATOM     10  O   UNL     1       3.980  -7.494  24.377  0.00  0.00    -0.267 OA
ATOM     11  N   UNL     1       5.318  -6.559  22.801  0.00  0.00    -0.275 N 
ATOM     12  H   UNL     1       4.870  -7.121  22.094  0.00  0.00    +0.173 HD
ATOM     13  C   UNL     1       6.301  -5.704  22.380  0.00  0.00    +0.331 A 
ATOM     14  O   UNL     1       6.621  -5.664  21.194  0.00  0.00    -0.246 OA
ATOM     15  N   UNL     1       6.886  -4.922  23.366  0.00  0.00    -0.271 N 
ATOM     16  C   UNL     1       6.528  -5.054  24.695  0.00  0.00    +0.102 A 
ENDBRANCH   1  15
BRANCH   4  17
ATOM     17  O   UNL     1       9.552  -1.888  21.524  0.00  0.00    -0.386 OA
ATOM     18  H   UNL     1      10.297  -2.447  21.809  0.00  0.00    +0.210 HD
ENDBRANCH   4  17
BRANCH   3  19
ATOM     19  C   UNL     1       8.984  -1.590  25.177  0.00  0.00    +0.190 C 
BRANCH  19  20
ATOM     20  O   UNL     1       8.344  -2.410  26.147  0.00  0.00    -0.392 OA
ATOM     21  H   UNL     1       8.605  -2.082  27.028  0.00  0.00    +0.210 HD
ENDBRANCH  19  20
ENDBRANCH   3  19
TORSDOF 4
ENDMDL
MODEL 4
REMARK VINA RESULT:      -6.1      2.283      5.294
REMARK  Name = 
REMARK  5 active torsions:
REMARK  status: ('A' for Active; 'I' for Inactive)
REMARK    1  A    between atoms: C_1  and  C_5
REMARK    2  A    between atoms: N_7  and  C_13
REMARK    3  A    between atoms: C_17  and  O_24
REMARK    4  A    between atoms: C_19  and  C_22
REMARK    5  A    between atoms: C_22  and  O_23
REMARK                            x       y       z     vdW  Elec       q    Type
REMARK                         _______ _______ _______ _____ _____    ______ ____
ROOT
ATOM      1  C   UNL     1       8.958  -3.100  25.296  0.00  0.00    +0.260 C 
ATOM      2  O   UNL     1       9.221  -3.987  24.190  0.00  0.00    -0.345 OA
ATOM      3  C   UNL     1       8.372  -5.151  24.323  0.00  0.00    +0.178 C 
ATOM      4  C   UNL     1       7.530  -4.967  25.587  0.00  0.00    +0.184 C 
ATOM      5  C   UNL     1       7.572  -3.476  25.828  0.00  0.00    +0.246 C 
ATOM      6  F   UNL     1       6.600  -2.870  25.092  0.00  0.00    -0.238 F 
ENDROOT
BRANCH   1  15
ATOM      7  C   UNL     1       9.628   0.363  21.762  0.00  0.00    +0.051 C 
ATOM      8  C   UNL     1       9.433  -0.068  23.178  0.00  0.00    +0.030 A 
ATOM      9  C   UNL     1       9.388   0.986  24.218  0.00  0.00    +0.257 A 
ATOM     10  O   UNL     1       9.492   2.176  23.938  0.00  0.00    -0.267 OA
ATOM     11  N   UNL     1       9.239   0.550  25.501  0.00  0.00    -0.275 N 
ATOM     12  H   UNL     1       9.221   1.254  26.223  0.00  0.00    +0.173 HD
ATOM     13  C   UNL     1       9.101  -0.752  25.902  0.00  0.00    +0.331 A 
ATOM     14  O   UNL     1       8.988  -1.023  27.095  0.00  0.00    -0.246 OA
ATOM     15  N   UNL     1       9.102  -1.700  24.890  0.00  0.00    -0.271 N 
ATOM     16  C   UNL     1       9.294  -1.341  23.569  0.00  0.00    +0.102 A 
ENDBRANCH   1  15
BRANCH   4  17
ATOM     17  O   UNL     1       8.163  -5.652  26.679  0.00  0.00    -0.386 OA
ATOM     18  H   UNL     1       7.612  -6.423  26.907  0.00  0.00    +0.210 HD
ENDBRANCH   4  17
BRANCH   3  19
ATOM     19  C   UNL     1       7.551  -5.299  23.038  0.00  0.00    +0.190 C 
BRANCH  19  20
ATOM     20  O   UNL     1       7.485  -4.093  22.288  0.00  0.00    -0.392 OA
ATOM     21  H   UNL     1       7.193  -3.386  22.893  0.00  0.00    +0.210 HD
ENDBRANCH  19  20
ENDBRANCH   3  19
TORSDOF 4
ENDMDL
MODEL 5
REMARK VINA RESULT:      -5.8      2.451      3.346
REMARK  Name = 
REMARK  5 active torsions:
REMARK  status: ('A' for Active; 'I' for Inactive)
REMARK    1  A    between atoms: C_1  and  C_5
REMARK    2  A    between atoms: N_7  and  C_13
REMARK    3  A    between atoms: C_17  and  O_24
REMARK    4  A    between atoms: C_19  and  C_22
REMARK    5  A    between atoms: C_22  and  O_23
REMARK                            x       y       z     vdW  Elec       q    Type
REMARK                         _______ _______ _______ _____ _____    ______ ____
ROOT
ATOM      1  C   UNL     1       8.245  -1.619  24.365  0.00  0.00    +0.260 C 
ATOM      2  O   UNL     1       7.949  -0.643  23.344  0.00  0.00    -0.345 OA
ATOM      3  C   UNL     1       9.125   0.175  23.138  0.00  0.00    +0.178 C 
ATOM      4  C   UNL     1      10.214  -0.330  24.086  0.00  0.00    +0.184 C 
ATOM      5  C   UNL     1       9.771  -1.737  24.417  0.00  0.00    +0.246 C 
ATOM      6  F   UNL     1      10.215  -2.590  23.454  0.00  0.00    -0.238 F 
ENDROOT
BRANCH   1  15
ATOM      7  C   UNL     1       6.364  -4.989  21.198  0.00  0.00    +0.051 C 
ATOM      8  C   UNL     1       6.642  -4.465  22.568  0.00  0.00    +0.030 A 
ATOM      9  C   UNL     1       6.168  -5.267  23.720  0.00  0.00    +0.257 A 
ATOM     10  O   UNL     1       5.581  -6.334  23.568  0.00  0.00    -0.267 OA
ATOM     11  N   UNL     1       6.414  -4.740  24.953  0.00  0.00    -0.275 N 
ATOM     12  H   UNL     1       6.086  -5.266  25.748  0.00  0.00    +0.173 HD
ATOM     13  C   UNL     1       7.074  -3.569  25.215  0.00  0.00    +0.331 A 
ATOM     14  O   UNL     1       7.221  -3.188  26.375  0.00  0.00    -0.246 OA
ATOM     15  N   UNL     1       7.539  -2.876  24.108  0.00  0.00    -0.271 N 
ATOM     16  C   UNL     1       7.290  -3.322  22.823  0.00  0.00    +0.102 A 
ENDBRANCH   1  15
BRANCH   4  17
ATOM     17  O   UNL     1      10.210   0.471  25.278  0.00  0.00    -0.386 OA
ATOM     18  H   UNL     1      10.426   1.386  25.022  0.00  0.00    +0.210 HD
ENDBRANCH   4  17
BRANCH   3  19
ATOM     19  C   UNL     1       9.504   0.109  21.655  0.00  0.00    +0.190 C 
BRANCH  19  20
ATOM     20  O   UNL     1       8.895   1.138  20.887  0.00  0.00    -0.392 OA
ATOM     21  H   UNL     1       8.921   0.862  19.952  0.00  0.00    +0.210 HD
ENDBRANCH  19  20
ENDBRANCH   3  19
TORSDOF 4
ENDMDL
MODEL 6
REMARK VINA RESULT:      -5.8      2.210      2.907
REMARK  Name = 
REMARK  5 active torsions:
REMARK  status: ('A' for Active; 'I' for Inactive)
REMARK    1  A    between atoms: C_1  and  C_5
REMARK    2  A    between atoms: N_7  and  C_13
REMARK    3  A    between atoms: C_17  and  O_24
REMARK    4  A    between atoms: C_19  and  C_22
REMARK    5  A    between atoms: C_22  and  O_23
REMARK                            x       y       z     vdW  Elec       q    Type
REMARK                         _______ _______ _______ _____ _____    ______ ____
ROOT
ATOM      1  C   UNL     1       8.686  -1.722  22.692  0.00  0.00    +0.260 C 
ATOM      2  O   UNL     1      10.031  -1.486  23.157  0.00  0.00    -0.345 OA
ATOM      3  C   UNL     1      10.308  -0.069  23.056  0.00  0.00    +0.178 C 
ATOM      4  C   UNL     1       9.056   0.610  22.499  0.00  0.00    +0.184 C 
ATOM      5  C   UNL     1       7.954  -0.382  22.795  0.00  0.00    +0.246 C 
ATOM      6  F   UNL     1       7.496  -0.187  24.062  0.00  0.00    -0.238 F 
ENDROOT
BRANCH   1  15
ATOM      7  C   UNL     1       8.495  -4.746  26.661  0.00  0.00    +0.051 C 
ATOM      8  C   UNL     1       8.004  -4.260  25.337  0.00  0.00    +0.030 A 
ATOM      9  C   UNL     1       6.825  -4.938  24.750  0.00  0.00    +0.257 A 
ATOM     10  O   UNL     1       6.254  -5.858  25.327  0.00  0.00    -0.267 OA
ATOM     11  N   UNL     1       6.426  -4.485  23.528  0.00  0.00    -0.275 N 
ATOM     12  H   UNL     1       5.634  -4.946  23.107  0.00  0.00    +0.173 HD
ATOM     13  C   UNL     1       6.992  -3.458  22.821  0.00  0.00    +0.331 A 
ATOM     14  O   UNL     1       6.551  -3.150  21.716  0.00  0.00    -0.246 OA
ATOM     15  N   UNL     1       8.064  -2.823  23.431  0.00  0.00    -0.271 N 
ATOM     16  C   UNL     1       8.556  -3.252  24.649  0.00  0.00    +0.102 A 
ENDBRANCH   1  15
BRANCH   4  17
ATOM     17  O   UNL     1       9.196   0.767  21.079  0.00  0.00    -0.386 OA
ATOM     18  H   UNL     1       9.229   1.722  20.887  0.00  0.00    +0.210 HD
ENDBRANCH   4  17
BRANCH   3  19
ATOM     19  C   UNL     1      10.735   0.438  24.437  0.00  0.00    +0.190 C 
BRANCH  19  20
ATOM     20  O   UNL     1       9.961   1.546  24.877  0.00  0.00    -0.392 OA
ATOM     21  H   UNL     1       9.021   1.292  24.816  0.00  0.00    +0.210 HD
ENDBRANCH  19  20
ENDBRANCH   3  19
TORSDOF 4
ENDMDL
MODEL 7
REMARK VINA RESULT:      -5.8      2.394      3.054
REMARK  Name = 
REMARK  5 active torsions:
REMARK  status: ('A' for Active; 'I' for Inactive)
REMARK    1  A    between atoms: C_1  and  C_5
REMARK    2  A    between atoms: N_7  and  C_13
REMARK    3  A    between atoms: C_17  and  O_24
REMARK    4  A    between atoms: C_19  and  C_22
REMARK    5  A    between atoms: C_22  and  O_23
REMARK                            x       y       z     vdW  Elec       q    Type
REMARK                         _______ _______ _______ _____ _____    ______ ____
ROOT
ATOM      1  C   UNL     1       9.596   0.113  23.508  0.00  0.00    +0.260 C 
ATOM      2  O   UNL     1       9.632   1.159  24.501  0.00  0.00    -0.345 OA
ATOM      3  C   UNL     1       9.318   2.415  23.855  0.00  0.00    +0.178 C 
ATOM      4  C   UNL     1       9.068   2.125  22.374  0.00  0.00    +0.184 C 
ATOM      5  C   UNL     1       8.747   0.648  22.351  0.00  0.00    +0.246 C 
ATOM      6  F   UNL     1       7.424   0.467  22.610  0.00  0.00    -0.238 F 
ENDROOT
BRANCH   1  15
ATOM      7  C   UNL     1       6.716  -2.379  26.738  0.00  0.00    +0.051 C 
ATOM      8  C   UNL     1       7.738  -2.307  25.651  0.00  0.00    +0.030 A 
ATOM      9  C   UNL     1       8.296  -3.583  25.148  0.00  0.00    +0.257 A 
ATOM     10  O   UNL     1       7.930  -4.669  25.587  0.00  0.00    -0.267 OA
ATOM     11  N   UNL     1       9.249  -3.474  24.178  0.00  0.00    -0.275 N 
ATOM     12  H   UNL     1       9.650  -4.333  23.834  0.00  0.00    +0.173 HD
ATOM     13  C   UNL     1       9.705  -2.311  23.620  0.00  0.00    +0.331 A 
ATOM     14  O   UNL     1      10.583  -2.339  22.759  0.00  0.00    -0.246 OA
ATOM     15  N   UNL     1       9.121  -1.144  24.090  0.00  0.00    -0.271 N 
ATOM     16  C   UNL     1       8.181  -1.169  25.104  0.00  0.00    +0.102 A 
ENDBRANCH   1  15
BRANCH   4  17
ATOM     17  O   UNL     1      10.275   2.370  21.636  0.00  0.00    -0.386 OA
ATOM     18  H   UNL     1      10.166   3.212  21.158  0.00  0.00    +0.210 HD
ENDBRANCH   4  17
BRANCH   3  19
ATOM     19  C   UNL     1       8.124   3.045  24.581  0.00  0.00    +0.190 C 
BRANCH  19  20
ATOM     20  O   UNL     1       8.019   2.622  25.934  0.00  0.00    -0.392 OA
ATOM     21  H   UNL     1       8.741   1.987  26.100  0.00  0.00    +0.210 HD
ENDBRANCH  19  20
ENDBRANCH   3  19
TORSDOF 4
ENDMDL
MODEL 8
REMARK VINA RESULT:      -5.7      3.026      5.816
REMARK  Name = 
REMARK  5 active torsions:
REMARK  status: ('A' for Active; 'I' for Inactive)
REMARK    1  A    between atoms: C_1  and  C_5
REMARK    2  A    between atoms: N_7  and  C_13
REMARK    3  A    between atoms: C_17  and  O_24
REMARK    4  A    between atoms: C_19  and  C_22
REMARK    5  A    between atoms: C_22  and  O_23
REMARK                            x       y       z     vdW  Elec       q    Type
REMARK                         _______ _______ _______ _____ _____    ______ ____
ROOT
ATOM      1  C   UNL     1       9.420  -1.057  23.499  0.00  0.00    +0.260 C 
ATOM      2  O   UNL     1       8.662  -1.694  22.450  0.00  0.00    -0.345 OA
ATOM      3  C   UNL     1       8.200  -2.977  22.934  0.00  0.00    +0.178 C 
ATOM      4  C   UNL     1       8.701  -3.139  24.370  0.00  0.00    +0.184 C 
ATOM      5  C   UNL     1       8.985  -1.721  24.808  0.00  0.00    +0.246 C 
ATOM      6  F   UNL     1       7.839  -1.152  25.272  0.00  0.00    -0.238 F 
ENDROOT
BRANCH   1  15
ATOM      7  C   UNL     1       6.872   2.991  22.065  0.00  0.00    +0.051 C 
ATOM      8  C   UNL     1       8.013   2.314  22.751  0.00  0.00    +0.030 A 
ATOM      9  C   UNL     1       9.019   3.171  23.420  0.00  0.00    +0.257 A 
ATOM     10  O   UNL     1       8.923   4.394  23.430  0.00  0.00    -0.267 OA
ATOM     11  N   UNL     1      10.060   2.517  24.008  0.00  0.00    -0.275 N 
ATOM     12  H   UNL     1      10.762   3.086  24.456  0.00  0.00    +0.173 HD
ATOM     13  C   UNL     1      10.239   1.160  24.059  0.00  0.00    +0.331 A 
ATOM     14  O   UNL     1      11.232   0.686  24.607  0.00  0.00    -0.246 OA
ATOM     15  N   UNL     1       9.248   0.397  23.459  0.00  0.00    -0.271 N 
ATOM     16  C   UNL     1       8.184   0.987  22.803  0.00  0.00    +0.102 A 
ENDBRANCH   1  15
BRANCH   4  17
ATOM     17  O   UNL     1       9.921  -3.897  24.361  0.00  0.00    -0.386 OA
ATOM     18  H   UNL     1      10.660  -3.269  24.268  0.00  0.00    +0.210 HD
ENDBRANCH   4  17
BRANCH   3  19
ATOM     19  C   UNL     1       6.675  -3.026  22.792  0.00  0.00    +0.190 C 
BRANCH  19  20
ATOM     20  O   UNL     1       6.096  -1.735  22.657  0.00  0.00    -0.392 OA
ATOM     21  H   UNL     1       6.154  -1.483  21.716  0.00  0.00    +0.210 HD
ENDBRANCH  19  20
ENDBRANCH   3  19
TORSDOF 4
ENDMDL
MODEL 9
REMARK VINA RESULT:      -5.7      2.260      5.424
REMARK  Name = 
REMARK  5 active torsions:
REMARK  status: ('A' for Active; 'I' for Inactive)
REMARK    1  A    between atoms: C_1  and  C_5
REMARK    2  A    between atoms: N_7  and  C_13
REMARK    3  A    between atoms: C_17  and  O_24
REMARK    4  A    between atoms: C_19  and  C_22
REMARK    5  A    between atoms: C_22  and  O_23
REMARK                            x       y       z     vdW  Elec       q    Type
REMARK                         _______ _______ _______ _____ _____    ______ ____
ROOT
ATOM      1  C   UNL     1       8.723  -3.005  23.392  0.00  0.00    +0.260 C 
ATOM      2  O   UNL     1       7.384  -3.532  23.494  0.00  0.00    -0.345 OA
ATOM      3  C   UNL     1       7.358  -4.516  24.555  0.00  0.00    +0.178 C 
ATOM      4  C   UNL     1       8.766  -4.596  25.147  0.00  0.00    +0.184 C 
ATOM      5  C   UNL     1       9.398  -3.285  24.737  0.00  0.00    +0.246 C 
ATOM      6  F   UNL     1       9.073  -2.322  25.642  0.00  0.00    -0.238 F 
ENDROOT
BRANCH   1  15
ATOM      7  C   UNL     1       6.365   1.382  23.032  0.00  0.00    +0.051 C 
ATOM      8  C   UNL     1       7.544   0.487  22.829  0.00  0.00    +0.030 A 
ATOM      9  C   UNL     1       8.746   1.068  22.189  0.00  0.00    +0.257 A 
ATOM     10  O   UNL     1       8.792   2.246  21.846  0.00  0.00    -0.267 OA
ATOM     11  N   UNL     1       9.789   0.212  21.994  0.00  0.00    -0.275 N 
ATOM     12  H   UNL     1      10.610   0.588  21.546  0.00  0.00    +0.173 HD
ATOM     13  C   UNL     1       9.831  -1.107  22.358  0.00  0.00    +0.331 A 
ATOM     14  O   UNL     1      10.827  -1.785  22.114  0.00  0.00    -0.246 OA
ATOM     15  N   UNL     1       8.700  -1.595  22.995  0.00  0.00    -0.271 N 
ATOM     16  C   UNL     1       7.585  -0.802  23.189  0.00  0.00    +0.102 A 
ENDBRANCH   1  15
BRANCH   4  17
ATOM     17  O   UNL     1       9.474  -5.686  24.535  0.00  0.00    -0.386 OA
ATOM     18  H   UNL     1       9.795  -6.269  25.247  0.00  0.00    +0.210 HD
ENDBRANCH   4  17
BRANCH   3  19
ATOM     19  C   UNL     1       6.277  -4.110  25.562  0.00  0.00    +0.190 C 
BRANCH  19  20
ATOM     20  O   UNL     1       6.731  -4.171  26.908  0.00  0.00    -0.392 OA
ATOM     21  H   UNL     1       6.243  -3.495  27.414  0.00  0.00    +0.210 HD
ENDBRANCH  19  20
ENDBRANCH   3  19
TORSDOF 4
ENDMDL
