MODEL 1
REMARK VINA RESULT:      -6.0      0.000      0.000
REMARK  Name = 
REMARK  18 active torsions:
REMARK  status: ('A' for Active; 'I' for Inactive)
REMARK    1  A    between atoms: C_1  and  C_2
REMARK    2  A    between atoms: C_2  and  C_3
REMARK    3  A    between atoms: C_3  and  C_4
REMARK    4  A    between atoms: C_4  and  C_5
REMARK    5  A    between atoms: C_4  and  N_13
REMARK    6  A    between atoms: C_5  and  C_7
REMARK    7  A    between atoms: N_9  and  C_10
REMARK    8  A    between atoms: C_14  and  C_16
REMARK    9  A    between atoms: C_26  and  C_28
REMARK   10  A    between atoms: C_28  and  C_29
REMARK   11  A    between atoms: C_28  and  N_33
REMARK   12  A    between atoms: C_29  and  C_30
REMARK   13  A    between atoms: C_29  and  C_31
REMARK   14  A    between atoms: C_29  and  C_32
REMARK   15  A    between atoms: C_34  and  C_36
REMARK   16  A    between atoms: C_36  and  C_37
REMARK   17  A    between atoms: C_36  and  N_43
REMARK   18  A    between atoms: C_44  and  C_46
REMARK                            x       y       z     vdW  Elec       q    Type
REMARK                         _______ _______ _______ _____ _____    ______ ____
ROOT
ATOM      1  C   UNL     1       5.770   1.885  24.702  0.00  0.00    +0.165 C 
ATOM      2  N   UNL     1       6.141   1.866  23.224  0.00  0.00    -0.288 N 
ATOM      3  C   UNL     1       7.364   1.756  22.536  0.00  0.00    +0.237 C 
ATOM      4  O   UNL     1       7.504   2.416  21.491  0.00  0.00    -0.274 OA
ATOM      5  C   UNL     1       5.157   2.657  22.464  0.00  0.00    +0.112 C 
ATOM      6  C   UNL     1       4.171   3.275  23.423  0.00  0.00    +0.012 C 
ATOM      7  C   UNL     1       4.463   4.721  23.845  0.00  0.00    +0.005 C 
ATOM      8  C   UNL     1       4.463   4.734  25.369  0.00  0.00    +0.001 C 
ATOM      9  C   UNL     1       3.913   3.378  25.792  0.00  0.00    +0.006 C 
ATOM     10  C   UNL     1       4.290   2.420  24.666  0.00  0.00    +0.023 C 
ENDROOT
BRANCH   1  13
ATOM     11  N   UNL     1       5.352   0.866  27.041  0.00  0.00    -0.304 N 
ATOM     12  H   UNL     1       5.045   1.809  27.274  0.00  0.00    +0.149 HD
ATOM     13  C   UNL     1       5.720   0.654  25.728  0.00  0.00    +0.234 C 
ATOM     14  O   UNL     1       5.930  -0.506  25.356  0.00  0.00    -0.274 OA
BRANCH  11  15
ATOM     15  C   UNL     1       5.143  -0.262  28.019  0.00  0.00    +0.149 C 
BRANCH  15  16
ATOM     16  C   UNL     1       3.797  -1.002  27.894  0.00  0.00    +0.237 C 
ATOM     17  O   UNL     1       2.847  -0.539  27.270  0.00  0.00    -0.285 OA
BRANCH  16  18
ATOM     18  C   UNL     1       3.503  -2.233  28.759  0.00  0.00    +0.282 C 
ATOM     19  N   UNL     1       4.073  -3.391  28.226  0.00  0.00    -0.306 N 
ATOM     20  H   UNL     1       4.593  -3.279  27.369  0.00  0.00    +0.149 HD
ATOM     21  O   UNL     1       2.842  -2.168  29.779  0.00  0.00    -0.267 OA
BRANCH  19  22
ATOM     22  C   UNL     1       4.058  -4.685  28.853  0.00  0.00    +0.073 C 
ATOM     23  C   UNL     1       5.317  -5.271  29.449  0.00  0.00    +0.024 C 
ATOM     24  C   UNL     1       4.759  -5.861  28.189  0.00  0.00    +0.024 C 
ENDBRANCH  19  22
ENDBRANCH  16  18
ENDBRANCH  15  16
BRANCH  15  25
ATOM     25  C   UNL     1       5.135   0.350  29.444  0.00  0.00    +0.030 C 
BRANCH  25  27
ATOM     26  C   UNL     1       5.223   2.784  30.142  0.00  0.00    +0.004 C 
ATOM     27  C   UNL     1       4.365   1.677  29.547  0.00  0.00    -0.001 C 
ENDBRANCH  25  27
ENDBRANCH  15  25
ENDBRANCH  11  15
ENDBRANCH   1  13
BRANCH   3  28
ATOM     28  C   UNL     1       8.561   0.796  22.927  0.00  0.00    +0.164 C 
BRANCH  28  29
ATOM     29  N   UNL     1       8.110  -0.525  23.403  0.00  0.00    -0.302 N 
ATOM     30  H   UNL     1       7.732  -0.624  24.338  0.00  0.00    +0.150 HD
ATOM     31  C   UNL     1       8.617  -1.648  22.841  0.00  0.00    +0.234 C 
ATOM     32  O   UNL     1       9.341  -1.545  21.858  0.00  0.00    -0.274 OA
BRANCH  31  33
ATOM     33  C   UNL     1       8.218  -3.015  23.420  0.00  0.00    +0.162 C 
BRANCH  33  34
ATOM     34  C   UNL     1       9.074  -3.192  24.717  0.00  0.00    +0.018 C 
ATOM     35  C   UNL     1       9.818  -4.517  24.874  0.00  0.00    +0.006 C 
ATOM     36  C   UNL     1       8.982  -5.642  25.470  0.00  0.00    +0.000 C 
ATOM     37  C   UNL     1       8.252  -5.225  26.735  0.00  0.00    +0.000 C 
ATOM     38  C   UNL     1       7.448  -3.966  26.530  0.00  0.00    +0.000 C 
ATOM     39  C   UNL     1       8.324  -2.840  26.015  0.00  0.00    +0.006 C 
ENDBRANCH  33  34
BRANCH  33  40
ATOM     40  N   UNL     1       6.766  -3.074  23.584  0.00  0.00    -0.298 N 
ATOM     41  H   UNL     1       6.288  -2.377  24.149  0.00  0.00    +0.150 HD
ATOM     42  C   UNL     1       6.014  -4.171  23.208  0.00  0.00    +0.264 C 
ATOM     43  O   UNL     1       6.469  -5.109  22.565  0.00  0.00    -0.268 OA
BRANCH  42  44
ATOM     44  C   UNL     1       4.588  -4.171  23.663  0.00  0.00    +0.143 A 
ATOM     45  C   UNL     1       4.208  -3.370  24.735  0.00  0.00    +0.143 A 
ATOM     46  N   UNL     1       2.929  -3.322  25.192  0.00  0.00    -0.259 NA
ATOM     47  C   UNL     1       2.048  -4.102  24.526  0.00  0.00    +0.130 A 
ATOM     48  C   UNL     1       2.423  -4.891  23.447  0.00  0.00    +0.131 A 
ATOM     49  N   UNL     1       3.700  -4.954  22.985  0.00  0.00    -0.247 NA
ENDBRANCH  42  44
ENDBRANCH  33  40
ENDBRANCH  31  33
ENDBRANCH  28  29
BRANCH  28  50
ATOM     50  C   UNL     1       9.416   1.446  24.106  0.00  0.00    -0.011 C 
ATOM     51  C   UNL     1      10.924   1.314  23.801  0.00  0.00    +0.013 C 
ATOM     52  C   UNL     1       9.153   0.701  25.440  0.00  0.00    +0.013 C 
ATOM     53  C   UNL     1       9.058   2.945  24.348  0.00  0.00    +0.013 C 
ENDBRANCH  28  50
ENDBRANCH   3  28
TORSDOF 14
ENDMDL
MODEL 2
REMARK VINA RESULT:      -5.9      2.692      6.917
REMARK  Name = 
REMARK  18 active torsions:
REMARK  status: ('A' for Active; 'I' for Inactive)
REMARK    1  A    between atoms: C_1  and  C_2
REMARK    2  A    between atoms: C_2  and  C_3
REMARK    3  A    between atoms: C_3  and  C_4
REMARK    4  A    between atoms: C_4  and  C_5
REMARK    5  A    between atoms: C_4  and  N_13
REMARK    6  A    between atoms: C_5  and  C_7
REMARK    7  A    between atoms: N_9  and  C_10
REMARK    8  A    between atoms: C_14  and  C_16
REMARK    9  A    between atoms: C_26  and  C_28
REMARK   10  A    between atoms: C_28  and  C_29
REMARK   11  A    between atoms: C_28  and  N_33
REMARK   12  A    between atoms: C_29  and  C_30
REMARK   13  A    between atoms: C_29  and  C_31
REMARK   14  A    between atoms: C_29  and  C_32
REMARK   15  A    between atoms: C_34  and  C_36
REMARK   16  A    between atoms: C_36  and  C_37
REMARK   17  A    between atoms: C_36  and  N_43
REMARK   18  A    between atoms: C_44  and  C_46
REMARK                            x       y       z     vdW  Elec       q    Type
REMARK                         _______ _______ _______ _____ _____    ______ ____
ROOT
ATOM      1  C   UNL     1       6.250  -4.372  24.676  0.00  0.00    +0.165 C 
ATOM      2  N   UNL     1       7.097  -3.597  23.673  0.00  0.00    -0.288 N 
ATOM      3  C   UNL     1       7.313  -2.225  23.446  0.00  0.00    +0.237 C 
ATOM      4  O   UNL     1       7.441  -1.844  22.269  0.00  0.00    -0.274 OA
ATOM      5  C   UNL     1       7.221  -4.381  22.431  0.00  0.00    +0.112 C 
ATOM      6  C   UNL     1       6.402  -5.641  22.556  0.00  0.00    +0.012 C 
ATOM      7  C   UNL     1       4.993  -5.587  21.950  0.00  0.00    +0.005 C 
ATOM      8  C   UNL     1       4.032  -6.019  23.052  0.00  0.00    +0.001 C 
ATOM      9  C   UNL     1       4.908  -6.565  24.172  0.00  0.00    +0.006 C 
ATOM     10  C   UNL     1       6.233  -5.815  24.051  0.00  0.00    +0.023 C 
ENDROOT
BRANCH   1  13
ATOM     11  N   UNL     1       5.485  -4.683  27.126  0.00  0.00    -0.304 N 
ATOM     12  H   UNL     1       4.551  -4.649  26.721  0.00  0.00    +0.149 HD
ATOM     13  C   UNL     1       6.537  -4.619  26.234  0.00  0.00    +0.234 C 
ATOM     14  O   UNL     1       7.678  -4.832  26.655  0.00  0.00    -0.274 OA
BRANCH  11  15
ATOM     15  C   UNL     1       5.669  -5.057  28.574  0.00  0.00    +0.149 C 
BRANCH  15  16
ATOM     16  C   UNL     1       5.396  -6.535  28.914  0.00  0.00    +0.237 C 
ATOM     17  O   UNL     1       6.292  -7.371  28.985  0.00  0.00    -0.285 OA
BRANCH  16  18
ATOM     18  C   UNL     1       3.962  -7.078  28.927  0.00  0.00    +0.282 C 
ATOM     19  N   UNL     1       3.364  -7.000  27.668  0.00  0.00    -0.306 N 
ATOM     20  H   UNL     1       3.931  -6.611  26.929  0.00  0.00    +0.149 HD
ATOM     21  O   UNL     1       3.441  -7.514  29.938  0.00  0.00    -0.267 OA
BRANCH  19  22
ATOM     22  C   UNL     1       2.065  -7.516  27.335  0.00  0.00    +0.073 C 
ATOM     23  C   UNL     1       1.587  -7.544  25.901  0.00  0.00    +0.024 C 
ATOM     24  C   UNL     1       0.969  -6.572  26.861  0.00  0.00    +0.024 C 
ENDBRANCH  19  22
ENDBRANCH  16  18
ENDBRANCH  15  16
BRANCH  15  25
ATOM     25  C   UNL     1       4.630  -4.255  29.400  0.00  0.00    +0.030 C 
BRANCH  25  27
ATOM     26  C   UNL     1       2.357  -3.501  28.570  0.00  0.00    +0.004 C 
ATOM     27  C   UNL     1       3.852  -3.213  28.579  0.00  0.00    -0.001 C 
ENDBRANCH  25  27
ENDBRANCH  15  25
ENDBRANCH  11  15
ENDBRANCH   1  13
BRANCH   3  28
ATOM     28  C   UNL     1       7.493  -1.121  24.566  0.00  0.00    +0.164 C 
BRANCH  28  29
ATOM     29  N   UNL     1       7.290   0.251  24.064  0.00  0.00    -0.302 N 
ATOM     30  H   UNL     1       8.083   0.797  23.749  0.00  0.00    +0.150 HD
ATOM     31  C   UNL     1       6.197   0.951  24.451  0.00  0.00    +0.234 C 
ATOM     32  O   UNL     1       5.331   0.385  25.106  0.00  0.00    -0.274 OA
BRANCH  31  33
ATOM     33  C   UNL     1       6.056   2.415  24.004  0.00  0.00    +0.162 C 
BRANCH  33  34
ATOM     34  C   UNL     1       7.434   2.801  23.374  0.00  0.00    +0.018 C 
ATOM     35  C   UNL     1       8.449   3.473  24.297  0.00  0.00    +0.006 C 
ATOM     36  C   UNL     1       8.275   4.980  24.435  0.00  0.00    +0.000 C 
ATOM     37  C   UNL     1       8.148   5.681  23.094  0.00  0.00    +0.000 C 
ATOM     38  C   UNL     1       7.075   5.062  22.235  0.00  0.00    +0.000 C 
ATOM     39  C   UNL     1       7.320   3.576  22.048  0.00  0.00    +0.006 C 
ENDBRANCH  33  34
BRANCH  33  40
ATOM     40  N   UNL     1       4.882   2.555  23.143  0.00  0.00    -0.298 N 
ATOM     41  H   UNL     1       4.974   2.456  22.136  0.00  0.00    +0.150 HD
ATOM     42  C   UNL     1       3.675   3.054  23.597  0.00  0.00    +0.264 C 
ATOM     43  O   UNL     1       3.439   3.267  24.780  0.00  0.00    -0.268 OA
BRANCH  42  44
ATOM     44  C   UNL     1       2.658   3.358  22.542  0.00  0.00    +0.143 A 
ATOM     45  C   UNL     1       2.906   4.366  21.617  0.00  0.00    +0.143 A 
ATOM     46  N   UNL     1       2.025   4.686  20.634  0.00  0.00    -0.259 NA
ATOM     47  C   UNL     1       0.892   3.950  20.611  0.00  0.00    +0.130 A 
ATOM     48  C   UNL     1       0.649   2.934  21.525  0.00  0.00    +0.131 A 
ATOM     49  N   UNL     1       1.517   2.608  22.519  0.00  0.00    -0.247 NA
ENDBRANCH  42  44
ENDBRANCH  33  40
ENDBRANCH  31  33
ENDBRANCH  28  29
BRANCH  28  50
ATOM     50  C   UNL     1       8.972  -1.183  25.159  0.00  0.00    -0.011 C 
ATOM     51  C   UNL     1       8.922  -1.345  26.693  0.00  0.00    +0.013 C 
ATOM     52  C   UNL     1       9.730   0.137  24.863  0.00  0.00    +0.013 C 
ATOM     53  C   UNL     1       9.818  -2.336  24.535  0.00  0.00    +0.013 C 
ENDBRANCH  28  50
ENDBRANCH   3  28
TORSDOF 14
ENDMDL
MODEL 3
REMARK VINA RESULT:      -5.9      2.639      7.725
REMARK  Name = 
REMARK  18 active torsions:
REMARK  status: ('A' for Active; 'I' for Inactive)
REMARK    1  A    between atoms: C_1  and  C_2
REMARK    2  A    between atoms: C_2  and  C_3
REMARK    3  A    between atoms: C_3  and  C_4
REMARK    4  A    between atoms: C_4  and  C_5
REMARK    5  A    between atoms: C_4  and  N_13
REMARK    6  A    between atoms: C_5  and  C_7
REMARK    7  A    between atoms: N_9  and  C_10
REMARK    8  A    between atoms: C_14  and  C_16
REMARK    9  A    between atoms: C_26  and  C_28
REMARK   10  A    between atoms: C_28  and  C_29
REMARK   11  A    between atoms: C_28  and  N_33
REMARK   12  A    between atoms: C_29  and  C_30
REMARK   13  A    between atoms: C_29  and  C_31
REMARK   14  A    between atoms: C_29  and  C_32
REMARK   15  A    between atoms: C_34  and  C_36
REMARK   16  A    between atoms: C_36  and  C_37
REMARK   17  A    between atoms: C_36  and  N_43
REMARK   18  A    between atoms: C_44  and  C_46
REMARK                            x       y       z     vdW  Elec       q    Type
REMARK                         _______ _______ _______ _____ _____    ______ ____
ROOT
ATOM      1  C   UNL     1       5.369  -0.594  26.208  0.00  0.00    +0.165 C 
ATOM      2  N   UNL     1       4.111   0.005  26.827  0.00  0.00    -0.288 N 
ATOM      3  C   UNL     1       3.883   1.088  27.697  0.00  0.00    +0.237 C 
ATOM      4  O   UNL     1       2.987   0.969  28.551  0.00  0.00    -0.274 OA
ATOM      5  C   UNL     1       3.100  -1.054  26.998  0.00  0.00    +0.112 C 
ATOM      6  C   UNL     1       3.690  -2.376  26.575  0.00  0.00    +0.012 C 
ATOM      7  C   UNL     1       4.262  -3.245  27.703  0.00  0.00    +0.005 C 
ATOM      8  C   UNL     1       5.690  -3.591  27.299  0.00  0.00    +0.001 C 
ATOM      9  C   UNL     1       5.826  -3.149  25.847  0.00  0.00    +0.006 C 
ATOM     10  C   UNL     1       4.852  -1.985  25.686  0.00  0.00    +0.023 C 
ENDROOT
BRANCH   1  13
ATOM     11  N   UNL     1       7.530  -0.490  24.793  0.00  0.00    -0.304 N 
ATOM     12  H   UNL     1       7.826  -1.258  25.393  0.00  0.00    +0.149 HD
ATOM     13  C   UNL     1       6.249  -0.019  24.998  0.00  0.00    +0.234 C 
ATOM     14  O   UNL     1       5.782   0.786  24.185  0.00  0.00    -0.274 OA
BRANCH  11  15
ATOM     15  C   UNL     1       8.356  -0.104  23.594  0.00  0.00    +0.149 C 
BRANCH  15  16
ATOM     16  C   UNL     1       8.794  -1.273  22.690  0.00  0.00    +0.237 C 
ATOM     17  O   UNL     1       9.125  -1.112  21.519  0.00  0.00    -0.285 OA
BRANCH  16  18
ATOM     18  C   UNL     1       8.589  -2.724  23.141  0.00  0.00    +0.282 C 
ATOM     19  N   UNL     1       7.608  -3.370  22.386  0.00  0.00    -0.306 N 
ATOM     20  H   UNL     1       7.171  -2.821  21.660  0.00  0.00    +0.149 HD
ATOM     21  O   UNL     1       9.223  -3.217  24.056  0.00  0.00    -0.267 OA
BRANCH  19  22
ATOM     22  C   UNL     1       7.256  -4.758  22.500  0.00  0.00    +0.073 C 
ATOM     23  C   UNL     1       6.584  -5.483  21.356  0.00  0.00    +0.024 C 
ATOM     24  C   UNL     1       5.793  -5.168  22.590  0.00  0.00    +0.024 C 
ENDBRANCH  19  22
ENDBRANCH  16  18
ENDBRANCH  15  16
BRANCH  15  25
ATOM     25  C   UNL     1       9.678   0.517  24.116  0.00  0.00    +0.030 C 
BRANCH  25  27
ATOM     26  C   UNL     1      10.341   2.857  23.401  0.00  0.00    +0.004 C 
ATOM     27  C   UNL     1       9.580   2.022  24.422  0.00  0.00    -0.001 C 
ENDBRANCH  25  27
ENDBRANCH  15  25
ENDBRANCH  11  15
ENDBRANCH   1  13
BRANCH   3  28
ATOM     28  C   UNL     1       4.614   2.491  27.635  0.00  0.00    +0.164 C 
BRANCH  28  29
ATOM     29  N   UNL     1       4.889   2.940  26.257  0.00  0.00    -0.302 N 
ATOM     30  H   UNL     1       5.629   2.503  25.721  0.00  0.00    +0.150 HD
ATOM     31  C   UNL     1       4.531   4.189  25.876  0.00  0.00    +0.234 C 
ATOM     32  O   UNL     1       3.868   4.877  26.642  0.00  0.00    -0.274 OA
BRANCH  31  33
ATOM     33  C   UNL     1       4.920   4.677  24.471  0.00  0.00    +0.162 C 
BRANCH  33  34
ATOM     34  C   UNL     1       6.413   4.255  24.274  0.00  0.00    +0.018 C 
ATOM     35  C   UNL     1       7.462   5.055  25.045  0.00  0.00    +0.006 C 
ATOM     36  C   UNL     1       7.906   6.339  24.358  0.00  0.00    +0.000 C 
ATOM     37  C   UNL     1       8.285   6.126  22.903  0.00  0.00    +0.000 C 
ATOM     38  C   UNL     1       7.195   5.419  22.137  0.00  0.00    +0.000 C 
ATOM     39  C   UNL     1       6.832   4.104  22.799  0.00  0.00    +0.006 C 
ENDBRANCH  33  34
BRANCH  33  40
ATOM     40  N   UNL     1       3.963   4.167  23.491  0.00  0.00    -0.298 N 
ATOM     41  H   UNL     1       3.886   3.167  23.326  0.00  0.00    +0.150 HD
ATOM     42  C   UNL     1       3.309   4.984  22.587  0.00  0.00    +0.264 C 
ATOM     43  O   UNL     1       3.351   6.207  22.634  0.00  0.00    -0.268 OA
BRANCH  42  44
ATOM     44  C   UNL     1       2.555   4.282  21.501  0.00  0.00    +0.143 A 
ATOM     45  C   UNL     1       2.290   2.921  21.616  0.00  0.00    +0.143 A 
ATOM     46  N   UNL     1       1.606   2.229  20.667  0.00  0.00    -0.259 NA
ATOM     47  C   UNL     1       1.193   2.957  19.606  0.00  0.00    +0.130 A 
ATOM     48  C   UNL     1       1.445   4.318  19.497  0.00  0.00    +0.131 A 
ATOM     49  N   UNL     1       2.134   5.021  20.433  0.00  0.00    -0.247 NA
ENDBRANCH  42  44
ENDBRANCH  33  40
ENDBRANCH  31  33
ENDBRANCH  28  29
BRANCH  28  50
ATOM     50  C   UNL     1       6.019   2.407  28.383  0.00  0.00    -0.011 C 
ATOM     51  C   UNL     1       6.281   3.711  29.167  0.00  0.00    +0.013 C 
ATOM     52  C   UNL     1       7.171   2.252  27.357  0.00  0.00    +0.013 C 
ATOM     53  C   UNL     1       6.110   1.185  29.349  0.00  0.00    +0.013 C 
ENDBRANCH  28  50
ENDBRANCH   3  28
TORSDOF 14
ENDMDL
MODEL 4
REMARK VINA RESULT:      -5.8      2.949      7.199
REMARK  Name = 
REMARK  18 active torsions:
REMARK  status: ('A' for Active; 'I' for Inactive)
REMARK    1  A    between atoms: C_1  and  C_2
REMARK    2  A    between atoms: C_2  and  C_3
REMARK    3  A    between atoms: C_3  and  C_4
REMARK    4  A    between atoms: C_4  and  C_5
REMARK    5  A    between atoms: C_4  and  N_13
REMARK    6  A    between atoms: C_5  and  C_7
REMARK    7  A    between atoms: N_9  and  C_10
REMARK    8  A    between atoms: C_14  and  C_16
REMARK    9  A    between atoms: C_26  and  C_28
REMARK   10  A    between atoms: C_28  and  C_29
REMARK   11  A    between atoms: C_28  and  N_33
REMARK   12  A    between atoms: C_29  and  C_30
REMARK   13  A    between atoms: C_29  and  C_31
REMARK   14  A    between atoms: C_29  and  C_32
REMARK   15  A    between atoms: C_34  and  C_36
REMARK   16  A    between atoms: C_36  and  C_37
REMARK   17  A    between atoms: C_36  and  N_43
REMARK   18  A    between atoms: C_44  and  C_46
REMARK                            x       y       z     vdW  Elec       q    Type
REMARK                         _______ _______ _______ _____ _____    ______ ____
ROOT
ATOM      1  C   UNL     1       6.008   4.158  27.716  0.00  0.00    +0.165 C 
ATOM      2  N   UNL     1       6.787   3.320  28.725  0.00  0.00    -0.288 N 
ATOM      3  C   UNL     1       6.648   2.002  29.197  0.00  0.00    +0.237 C 
ATOM      4  O   UNL     1       6.898   1.785  30.396  0.00  0.00    -0.274 OA
ATOM      5  C   UNL     1       7.373   4.207  29.746  0.00  0.00    +0.112 C 
ATOM      6  C   UNL     1       6.933   5.625  29.482  0.00  0.00    +0.012 C 
ATOM      7  C   UNL     1       5.718   6.110  30.284  0.00  0.00    +0.005 C 
ATOM      8  C   UNL     1       4.717   6.647  29.268  0.00  0.00    +0.001 C 
ATOM      9  C   UNL     1       5.468   6.712  27.944  0.00  0.00    +0.006 C 
ATOM     10  C   UNL     1       6.524   5.612  28.024  0.00  0.00    +0.023 C 
ENDROOT
BRANCH   1  13
ATOM     11  N   UNL     1       6.455   5.140  25.367  0.00  0.00    -0.304 N 
ATOM     12  H   UNL     1       6.812   5.937  25.891  0.00  0.00    +0.149 HD
ATOM     13  C   UNL     1       6.034   4.060  26.116  0.00  0.00    +0.234 C 
ATOM     14  O   UNL     1       5.759   3.008  25.529  0.00  0.00    -0.274 OA
BRANCH  11  15
ATOM     15  C   UNL     1       6.644   5.069  23.873  0.00  0.00    +0.149 C 
BRANCH  15  16
ATOM     16  C   UNL     1       7.842   5.866  23.322  0.00  0.00    +0.237 C 
ATOM     17  O   UNL     1       7.836   6.375  22.204  0.00  0.00    -0.285 OA
BRANCH  16  18
ATOM     18  C   UNL     1       9.193   5.842  24.046  0.00  0.00    +0.282 C 
ATOM     19  N   UNL     1      10.260   5.723  23.152  0.00  0.00    -0.306 N 
ATOM     20  H   UNL     1      10.018   5.673  22.174  0.00  0.00    +0.149 HD
ATOM     21  O   UNL     1       9.283   5.914  25.258  0.00  0.00    -0.267 OA
BRANCH  19  22
ATOM     22  C   UNL     1      11.650   5.769  23.513  0.00  0.00    +0.073 C 
ATOM     23  C   UNL     1      12.727   5.661  22.457  0.00  0.00    +0.024 C 
ATOM     24  C   UNL     1      12.507   4.517  23.402  0.00  0.00    +0.024 C 
ENDBRANCH  19  22
ENDBRANCH  16  18
ENDBRANCH  15  16
BRANCH  15  25
ATOM     25  C   UNL     1       5.396   5.710  23.213  0.00  0.00    +0.030 C 
BRANCH  25  27
ATOM     26  C   UNL     1       3.135   4.694  23.741  0.00  0.00    +0.004 C 
ATOM     27  C   UNL     1       4.323   4.691  22.790  0.00  0.00    -0.001 C 
ENDBRANCH  25  27
ENDBRANCH  15  25
ENDBRANCH  11  15
ENDBRANCH   1  13
BRANCH   3  28
ATOM     28  C   UNL     1       6.281   0.739  28.316  0.00  0.00    +0.164 C 
BRANCH  28  29
ATOM     29  N   UNL     1       6.705   0.872  26.910  0.00  0.00    -0.302 N 
ATOM     30  H   UNL     1       6.198   1.487  26.285  0.00  0.00    +0.150 HD
ATOM     31  C   UNL     1       7.412  -0.125  26.326  0.00  0.00    +0.234 C 
ATOM     32  O   UNL     1       7.798  -1.062  27.016  0.00  0.00    -0.274 OA
BRANCH  31  33
ATOM     33  C   UNL     1       7.753  -0.018  24.831  0.00  0.00    +0.162 C 
BRANCH  33  34
ATOM     34  C   UNL     1       9.150   0.680  24.764  0.00  0.00    +0.018 C 
ATOM     35  C   UNL     1       9.161   2.163  24.395  0.00  0.00    +0.006 C 
ATOM     36  C   UNL     1       9.133   2.440  22.898  0.00  0.00    +0.000 C 
ATOM     37  C   UNL     1      10.171   1.638  22.133  0.00  0.00    +0.000 C 
ATOM     38  C   UNL     1      10.080   0.165  22.439  0.00  0.00    +0.000 C 
ATOM     39  C   UNL     1      10.194  -0.087  23.931  0.00  0.00    +0.006 C 
ENDBRANCH  33  34
BRANCH  33  40
ATOM     40  N   UNL     1       7.652  -1.338  24.209  0.00  0.00    -0.298 N 
ATOM     41  H   UNL     1       8.469  -1.762  23.779  0.00  0.00    +0.150 HD
ATOM     42  C   UNL     1       6.441  -1.956  23.955  0.00  0.00    +0.264 C 
ATOM     43  O   UNL     1       5.370  -1.530  24.369  0.00  0.00    -0.268 OA
BRANCH  42  44
ATOM     44  C   UNL     1       6.503  -3.182  23.100  0.00  0.00    +0.143 A 
ATOM     45  C   UNL     1       5.741  -3.250  21.938  0.00  0.00    +0.143 A 
ATOM     46  N   UNL     1       5.757  -4.334  21.118  0.00  0.00    -0.259 NA
ATOM     47  C   UNL     1       6.573  -5.340  21.505  0.00  0.00    +0.130 A 
ATOM     48  C   UNL     1       7.345  -5.267  22.657  0.00  0.00    +0.131 A 
ATOM     49  N   UNL     1       7.333  -4.193  23.491  0.00  0.00    -0.247 NA
ENDBRANCH  42  44
ENDBRANCH  33  40
ENDBRANCH  31  33
ENDBRANCH  28  29
BRANCH  28  50
ATOM     50  C   UNL     1       4.701   0.523  28.305  0.00  0.00    -0.011 C 
ATOM     51  C   UNL     1       4.029   1.479  29.314  0.00  0.00    +0.013 C 
ATOM     52  C   UNL     1       4.349  -0.922  28.741  0.00  0.00    +0.013 C 
ATOM     53  C   UNL     1       4.080   0.730  26.888  0.00  0.00    +0.013 C 
ENDBRANCH  28  50
ENDBRANCH   3  28
TORSDOF 14
ENDMDL
MODEL 5
REMARK VINA RESULT:      -5.7      2.558      7.608
REMARK  Name = 
REMARK  18 active torsions:
REMARK  status: ('A' for Active; 'I' for Inactive)
REMARK    1  A    between atoms: C_1  and  C_2
REMARK    2  A    between atoms: C_2  and  C_3
REMARK    3  A    between atoms: C_3  and  C_4
REMARK    4  A    between atoms: C_4  and  C_5
REMARK    5  A    between atoms: C_4  and  N_13
REMARK    6  A    between atoms: C_5  and  C_7
REMARK    7  A    between atoms: N_9  and  C_10
REMARK    8  A    between atoms: C_14  and  C_16
REMARK    9  A    between atoms: C_26  and  C_28
REMARK   10  A    between atoms: C_28  and  C_29
REMARK   11  A    between atoms: C_28  and  N_33
REMARK   12  A    between atoms: C_29  and  C_30
REMARK   13  A    between atoms: C_29  and  C_31
REMARK   14  A    between atoms: C_29  and  C_32
REMARK   15  A    between atoms: C_34  and  C_36
REMARK   16  A    between atoms: C_36  and  C_37
REMARK   17  A    between atoms: C_36  and  N_43
REMARK   18  A    between atoms: C_44  and  C_46
REMARK                            x       y       z     vdW  Elec       q    Type
REMARK                         _______ _______ _______ _____ _____    ______ ____
ROOT
ATOM      1  C   UNL     1       6.504  -4.129  24.423  0.00  0.00    +0.165 C 
ATOM      2  N   UNL     1       7.396  -3.309  23.497  0.00  0.00    -0.288 N 
ATOM      3  C   UNL     1       7.541  -1.928  23.268  0.00  0.00    +0.237 C 
ATOM      4  O   UNL     1       7.764  -1.553  22.103  0.00  0.00    -0.274 OA
ATOM      5  C   UNL     1       7.699  -4.098  22.289  0.00  0.00    +0.112 C 
ATOM      6  C   UNL     1       6.958  -5.409  22.354  0.00  0.00    +0.012 C 
ATOM      7  C   UNL     1       5.618  -5.459  21.606  0.00  0.00    +0.005 C 
ATOM      8  C   UNL     1       4.581  -5.943  22.613  0.00  0.00    +0.001 C 
ATOM      9  C   UNL     1       5.372  -6.415  23.826  0.00  0.00    +0.006 C 
ATOM     10  C   UNL     1       6.648  -5.577  23.827  0.00  0.00    +0.023 C 
ENDROOT
BRANCH   1  13
ATOM     11  N   UNL     1       5.521  -4.558  26.775  0.00  0.00    -0.304 N 
ATOM     12  H   UNL     1       4.644  -4.660  26.267  0.00  0.00    +0.149 HD
ATOM     13  C   UNL     1       6.646  -4.337  26.007  0.00  0.00    +0.234 C 
ATOM     14  O   UNL     1       7.751  -4.383  26.556  0.00  0.00    -0.274 OA
BRANCH  11  15
ATOM     15  C   UNL     1       5.592  -4.907  28.239  0.00  0.00    +0.149 C 
BRANCH  15  16
ATOM     16  C   UNL     1       5.211  -6.358  28.591  0.00  0.00    +0.237 C 
ATOM     17  O   UNL     1       6.049  -7.205  28.887  0.00  0.00    -0.285 OA
BRANCH  16  18
ATOM     18  C   UNL     1       3.789  -6.873  28.339  0.00  0.00    +0.282 C 
ATOM     19  N   UNL     1       3.513  -6.990  26.975  0.00  0.00    -0.306 N 
ATOM     20  H   UNL     1       4.258  -6.733  26.345  0.00  0.00    +0.149 HD
ATOM     21  O   UNL     1       3.021  -7.133  29.247  0.00  0.00    -0.267 OA
BRANCH  19  22
ATOM     22  C   UNL     1       2.305  -7.536  26.420  0.00  0.00    +0.073 C 
ATOM     23  C   UNL     1       2.306  -8.192  25.057  0.00  0.00    +0.024 C 
ATOM     24  C   UNL     1       1.641  -6.859  25.229  0.00  0.00    +0.024 C 
ENDBRANCH  19  22
ENDBRANCH  16  18
ENDBRANCH  15  16
BRANCH  15  25
ATOM     25  C   UNL     1       4.553  -4.027  28.981  0.00  0.00    +0.030 C 
BRANCH  25  27
ATOM     26  C   UNL     1       4.273  -1.594  28.328  0.00  0.00    +0.004 C 
ATOM     27  C   UNL     1       3.823  -3.025  28.071  0.00  0.00    -0.001 C 
ENDBRANCH  25  27
ENDBRANCH  15  25
ENDBRANCH  11  15
ENDBRANCH   1  13
BRANCH   3  28
ATOM     28  C   UNL     1       7.531  -0.802  24.380  0.00  0.00    +0.164 C 
BRANCH  28  29
ATOM     29  N   UNL     1       7.288   0.547  23.834  0.00  0.00    -0.302 N 
ATOM     30  H   UNL     1       8.066   1.110  23.513  0.00  0.00    +0.150 HD
ATOM     31  C   UNL     1       6.168   1.220  24.187  0.00  0.00    +0.234 C 
ATOM     32  O   UNL     1       5.312   0.645  24.849  0.00  0.00    -0.274 OA
BRANCH  31  33
ATOM     33  C   UNL     1       5.982   2.665  23.696  0.00  0.00    +0.162 C 
BRANCH  33  34
ATOM     34  C   UNL     1       4.483   3.017  23.968  0.00  0.00    +0.018 C 
ATOM     35  C   UNL     1       3.625   3.356  22.750  0.00  0.00    +0.006 C 
ATOM     36  C   UNL     1       3.714   4.808  22.301  0.00  0.00    +0.000 C 
ATOM     37  C   UNL     1       3.523   5.790  23.444  0.00  0.00    +0.000 C 
ATOM     38  C   UNL     1       4.448   5.494  24.598  0.00  0.00    +0.000 C 
ATOM     39  C   UNL     1       4.277   4.065  25.078  0.00  0.00    +0.006 C 
ENDBRANCH  33  34
BRANCH  33  40
ATOM     40  N   UNL     1       6.980   3.530  24.325  0.00  0.00    -0.298 N 
ATOM     41  H   UNL     1       6.733   4.084  25.140  0.00  0.00    +0.150 HD
ATOM     42  C   UNL     1       8.194   3.827  23.733  0.00  0.00    +0.264 C 
ATOM     43  O   UNL     1       8.601   3.273  22.720  0.00  0.00    -0.268 OA
BRANCH  42  44
ATOM     44  C   UNL     1       8.990   4.911  24.389  0.00  0.00    +0.143 A 
ATOM     45  C   UNL     1       8.610   5.383  25.641  0.00  0.00    +0.143 A 
ATOM     46  N   UNL     1       9.294   6.361  26.290  0.00  0.00    -0.259 NA
ATOM     47  C   UNL     1      10.378   6.839  25.638  0.00  0.00    +0.130 A 
ATOM     48  C   UNL     1      10.768   6.358  24.396  0.00  0.00    +0.131 A 
ATOM     49  N   UNL     1      10.088   5.386  23.731  0.00  0.00    -0.247 NA
ENDBRANCH  42  44
ENDBRANCH  33  40
ENDBRANCH  31  33
ENDBRANCH  28  29
BRANCH  28  50
ATOM     50  C   UNL     1       8.943  -0.754  25.120  0.00  0.00    -0.011 C 
ATOM     51  C   UNL     1       9.815  -1.948  24.675  0.00  0.00    +0.013 C 
ATOM     52  C   UNL     1       8.754  -0.874  26.654  0.00  0.00    +0.013 C 
ATOM     53  C   UNL     1       9.708   0.582  24.863  0.00  0.00    +0.013 C 
ENDBRANCH  28  50
ENDBRANCH   3  28
TORSDOF 14
ENDMDL
MODEL 6
REMARK VINA RESULT:      -5.7      1.752      3.587
REMARK  Name = 
REMARK  18 active torsions:
REMARK  status: ('A' for Active; 'I' for Inactive)
REMARK    1  A    between atoms: C_1  and  C_2
REMARK    2  A    between atoms: C_2  and  C_3
REMARK    3  A    between atoms: C_3  and  C_4
REMARK    4  A    between atoms: C_4  and  C_5
REMARK    5  A    between atoms: C_4  and  N_13
REMARK    6  A    between atoms: C_5  and  C_7
REMARK    7  A    between atoms: N_9  and  C_10
REMARK    8  A    between atoms: C_14  and  C_16
REMARK    9  A    between atoms: C_26  and  C_28
REMARK   10  A    between atoms: C_28  and  C_29
REMARK   11  A    between atoms: C_28  and  N_33
REMARK   12  A    between atoms: C_29  and  C_30
REMARK   13  A    between atoms: C_29  and  C_31
REMARK   14  A    between atoms: C_29  and  C_32
REMARK   15  A    between atoms: C_34  and  C_36
REMARK   16  A    between atoms: C_36  and  C_37
REMARK   17  A    between atoms: C_36  and  N_43
REMARK   18  A    between atoms: C_44  and  C_46
REMARK                            x       y       z     vdW  Elec       q    Type
REMARK                         _______ _______ _______ _____ _____    ______ ____
ROOT
ATOM      1  C   UNL     1       5.956   2.411  24.387  0.00  0.00    +0.165 C 
ATOM      2  N   UNL     1       6.523   2.103  23.006  0.00  0.00    -0.288 N 
ATOM      3  C   UNL     1       7.757   1.594  22.559  0.00  0.00    +0.237 C 
ATOM      4  O   UNL     1       8.226   2.053  21.503  0.00  0.00    -0.274 OA
ATOM      5  C   UNL     1       5.919   3.014  22.017  0.00  0.00    +0.112 C 
ATOM      6  C   UNL     1       5.009   3.985  22.728  0.00  0.00    +0.012 C 
ATOM      7  C   UNL     1       5.622   5.350  23.069  0.00  0.00    +0.005 C 
ATOM      8  C   UNL     1       5.399   5.562  24.562  0.00  0.00    +0.001 C 
ATOM      9  C   UNL     1       4.441   4.460  24.996  0.00  0.00    +0.006 C 
ATOM     10  C   UNL     1       4.703   3.298  24.042  0.00  0.00    +0.023 C 
ENDROOT
BRANCH   1  13
ATOM     11  N   UNL     1       5.335   1.766  26.812  0.00  0.00    -0.304 N 
ATOM     12  H   UNL     1       5.551   2.742  27.008  0.00  0.00    +0.149 HD
ATOM     13  C   UNL     1       5.418   1.379  25.490  0.00  0.00    +0.234 C 
ATOM     14  O   UNL     1       4.998   0.260  25.178  0.00  0.00    -0.274 OA
BRANCH  11  15
ATOM     15  C   UNL     1       4.704   0.902  27.874  0.00  0.00    +0.149 C 
BRANCH  15  16
ATOM     16  C   UNL     1       3.363   1.416  28.432  0.00  0.00    +0.237 C 
ATOM     17  O   UNL     1       3.014   1.219  29.593  0.00  0.00    -0.285 OA
BRANCH  16  18
ATOM     18  C   UNL     1       2.292   1.978  27.491  0.00  0.00    +0.282 C 
ATOM     19  N   UNL     1       1.581   3.027  28.078  0.00  0.00    -0.306 N 
ATOM     20  H   UNL     1       1.853   3.279  29.017  0.00  0.00    +0.149 HD
ATOM     21  O   UNL     1       2.110   1.532  26.372  0.00  0.00    -0.267 OA
BRANCH  19  22
ATOM     22  C   UNL     1       0.582   3.821  27.418  0.00  0.00    +0.073 C 
ATOM     23  C   UNL     1       0.973   4.862  26.393  0.00  0.00    +0.024 C 
ATOM     24  C   UNL     1       0.460   5.306  27.731  0.00  0.00    +0.024 C 
ENDBRANCH  19  22
ENDBRANCH  16  18
ENDBRANCH  15  16
BRANCH  15  25
ATOM     25  C   UNL     1       5.665   0.879  29.091  0.00  0.00    +0.030 C 
BRANCH  25  27
ATOM     26  C   UNL     1       7.101   2.785  29.943  0.00  0.00    +0.004 C 
ATOM     27  C   UNL     1       6.949   1.701  28.886  0.00  0.00    -0.001 C 
ENDBRANCH  25  27
ENDBRANCH  15  25
ENDBRANCH  11  15
ENDBRANCH   1  13
BRANCH   3  28
ATOM     28  C   UNL     1       8.571   0.419  23.239  0.00  0.00    +0.164 C 
BRANCH  28  29
ATOM     29  N   UNL     1       7.720  -0.712  23.650  0.00  0.00    -0.302 N 
ATOM     30  H   UNL     1       7.407  -0.787  24.611  0.00  0.00    +0.150 HD
ATOM     31  C   UNL     1       7.747  -1.864  22.938  0.00  0.00    +0.234 C 
ATOM     32  O   UNL     1       8.379  -1.899  21.889  0.00  0.00    -0.274 OA
BRANCH  31  33
ATOM     33  C   UNL     1       6.935  -3.068  23.441  0.00  0.00    +0.162 C 
BRANCH  33  34
ATOM     34  C   UNL     1       7.989  -4.149  23.848  0.00  0.00    +0.018 C 
ATOM     35  C   UNL     1       7.445  -5.472  24.386  0.00  0.00    +0.006 C 
ATOM     36  C   UNL     1       7.122  -5.462  25.874  0.00  0.00    +0.000 C 
ATOM     37  C   UNL     1       8.257  -4.909  26.718  0.00  0.00    +0.000 C 
ATOM     38  C   UNL     1       8.715  -3.559  26.228  0.00  0.00    +0.000 C 
ATOM     39  C   UNL     1       9.108  -3.619  24.764  0.00  0.00    +0.006 C 
ENDBRANCH  33  34
BRANCH  33  40
ATOM     40  N   UNL     1       6.009  -2.634  24.486  0.00  0.00    -0.298 N 
ATOM     41  H   UNL     1       6.341  -2.059  25.256  0.00  0.00    +0.150 HD
ATOM     42  C   UNL     1       4.737  -3.158  24.625  0.00  0.00    +0.264 C 
ATOM     43  O   UNL     1       4.224  -3.904  23.800  0.00  0.00    -0.268 OA
BRANCH  42  44
ATOM     44  C   UNL     1       4.012  -2.787  25.881  0.00  0.00    +0.143 A 
ATOM     45  C   UNL     1       4.660  -2.896  27.107  0.00  0.00    +0.143 A 
ATOM     46  N   UNL     1       4.058  -2.570  28.281  0.00  0.00    -0.259 NA
ATOM     47  C   UNL     1       2.787  -2.122  28.174  0.00  0.00    +0.130 A 
ATOM     48  C   UNL     1       2.144  -1.999  26.950  0.00  0.00    +0.131 A 
ATOM     49  N   UNL     1       2.731  -2.329  25.769  0.00  0.00    -0.247 NA
ENDBRANCH  42  44
ENDBRANCH  33  40
ENDBRANCH  31  33
ENDBRANCH  28  29
BRANCH  28  50
ATOM     50  C   UNL     1       9.300   0.952  24.553  0.00  0.00    -0.011 C 
ATOM     51  C   UNL     1       9.245   2.494  24.602  0.00  0.00    +0.013 C 
ATOM     52  C   UNL     1      10.797   0.548  24.544  0.00  0.00    +0.013 C 
ATOM     53  C   UNL     1       8.683   0.361  25.860  0.00  0.00    +0.013 C 
ENDBRANCH  28  50
ENDBRANCH   3  28
TORSDOF 14
ENDMDL
MODEL 7
REMARK VINA RESULT:      -5.7      3.122      7.854
REMARK  Name = 
REMARK  18 active torsions:
REMARK  status: ('A' for Active; 'I' for Inactive)
REMARK    1  A    between atoms: C_1  and  C_2
REMARK    2  A    between atoms: C_2  and  C_3
REMARK    3  A    between atoms: C_3  and  C_4
REMARK    4  A    between atoms: C_4  and  C_5
REMARK    5  A    between atoms: C_4  and  N_13
REMARK    6  A    between atoms: C_5  and  C_7
REMARK    7  A    between atoms: N_9  and  C_10
REMARK    8  A    between atoms: C_14  and  C_16
REMARK    9  A    between atoms: C_26  and  C_28
REMARK   10  A    between atoms: C_28  and  C_29
REMARK   11  A    between atoms: C_28  and  N_33
REMARK   12  A    between atoms: C_29  and  C_30
REMARK   13  A    between atoms: C_29  and  C_31
REMARK   14  A    between atoms: C_29  and  C_32
REMARK   15  A    between atoms: C_34  and  C_36
REMARK   16  A    between atoms: C_36  and  C_37
REMARK   17  A    between atoms: C_36  and  N_43
REMARK   18  A    between atoms: C_44  and  C_46
REMARK                            x       y       z     vdW  Elec       q    Type
REMARK                         _______ _______ _______ _____ _____    ______ ____
ROOT
ATOM      1  C   UNL     1       8.509   0.392  24.889  0.00  0.00    +0.165 C 
ATOM      2  N   UNL     1       8.424   1.896  25.122  0.00  0.00    -0.288 N 
ATOM      3  C   UNL     1       7.350   2.787  25.304  0.00  0.00    +0.237 C 
ATOM      4  O   UNL     1       7.446   3.923  24.806  0.00  0.00    -0.274 OA
ATOM      5  C   UNL     1       9.576   2.555  24.479  0.00  0.00    +0.112 C 
ATOM      6  C   UNL     1      10.394   1.520  23.748  0.00  0.00    +0.012 C 
ATOM      7  C   UNL     1      10.105   1.375  22.247  0.00  0.00    +0.005 C 
ATOM      8  C   UNL     1       9.817  -0.102  22.005  0.00  0.00    +0.001 C 
ATOM      9  C   UNL     1      10.203  -0.814  23.294  0.00  0.00    +0.006 C 
ATOM     10  C   UNL     1       9.995   0.214  24.403  0.00  0.00    +0.023 C 
ENDROOT
BRANCH   1  13
ATOM     11  N   UNL     1       7.295  -1.718  25.758  0.00  0.00    -0.304 N 
ATOM     12  H   UNL     1       6.781  -1.646  24.882  0.00  0.00    +0.149 HD
ATOM     13  C   UNL     1       8.297  -0.789  25.952  0.00  0.00    +0.234 C 
ATOM     14  O   UNL     1       9.061  -0.941  26.910  0.00  0.00    -0.274 OA
BRANCH  11  15
ATOM     15  C   UNL     1       7.132  -2.934  26.634  0.00  0.00    +0.149 C 
BRANCH  15  16
ATOM     16  C   UNL     1       7.898  -4.188  26.170  0.00  0.00    +0.237 C 
ATOM     17  O   UNL     1       8.423  -4.968  26.959  0.00  0.00    -0.285 OA
BRANCH  16  18
ATOM     18  C   UNL     1       8.254  -4.380  24.691  0.00  0.00    +0.282 C 
ATOM     19  N   UNL     1       7.398  -5.288  24.063  0.00  0.00    -0.306 N 
ATOM     20  H   UNL     1       6.674  -5.689  24.640  0.00  0.00    +0.149 HD
ATOM     21  O   UNL     1       9.184  -3.796  24.165  0.00  0.00    -0.267 OA
BRANCH  19  22
ATOM     22  C   UNL     1       7.413  -5.605  22.662  0.00  0.00    +0.073 C 
ATOM     23  C   UNL     1       6.739  -4.700  21.656  0.00  0.00    +0.024 C 
ATOM     24  C   UNL     1       6.130  -6.035  21.965  0.00  0.00    +0.024 C 
ENDBRANCH  19  22
ENDBRANCH  16  18
ENDBRANCH  15  16
BRANCH  15  25
ATOM     25  C   UNL     1       5.636  -3.339  26.599  0.00  0.00    +0.030 C 
BRANCH  25  27
ATOM     26  C   UNL     1       4.245  -3.664  24.506  0.00  0.00    +0.004 C 
ATOM     27  C   UNL     1       4.831  -2.654  25.482  0.00  0.00    -0.001 C 
ENDBRANCH  25  27
ENDBRANCH  15  25
ENDBRANCH  11  15
ENDBRANCH   1  13
BRANCH   3  28
ATOM     28  C   UNL     1       6.051   2.504  26.163  0.00  0.00    +0.164 C 
BRANCH  28  29
ATOM     29  N   UNL     1       4.900   3.331  25.761  0.00  0.00    -0.302 N 
ATOM     30  H   UNL     1       4.498   3.993  26.415  0.00  0.00    +0.150 HD
ATOM     31  C   UNL     1       4.087   2.908  24.763  0.00  0.00    +0.234 C 
ATOM     32  O   UNL     1       4.399   1.910  24.126  0.00  0.00    -0.274 OA
BRANCH  31  33
ATOM     33  C   UNL     1       2.831   3.729  24.428  0.00  0.00    +0.162 C 
BRANCH  33  34
ATOM     34  C   UNL     1       2.851   4.952  25.404  0.00  0.00    +0.018 C 
ATOM     35  C   UNL     1       1.750   5.006  26.461  0.00  0.00    +0.006 C 
ATOM     36  C   UNL     1       0.443   5.621  25.979  0.00  0.00    +0.000 C 
ATOM     37  C   UNL     1       0.644   6.951  25.274  0.00  0.00    +0.000 C 
ATOM     38  C   UNL     1       1.666   6.852  24.170  0.00  0.00    +0.000 C 
ATOM     39  C   UNL     1       2.984   6.314  24.697  0.00  0.00    +0.006 C 
ENDBRANCH  33  34
BRANCH  33  40
ATOM     40  N   UNL     1       2.811   4.035  22.999  0.00  0.00    -0.298 N 
ATOM     41  H   UNL     1       3.363   4.808  22.635  0.00  0.00    +0.150 HD
ATOM     42  C   UNL     1       1.893   3.481  22.127  0.00  0.00    +0.264 C 
ATOM     43  O   UNL     1       1.130   2.575  22.441  0.00  0.00    -0.268 OA
BRANCH  42  44
ATOM     44  C   UNL     1       1.853   4.079  20.755  0.00  0.00    +0.143 A 
ATOM     45  C   UNL     1       1.656   3.256  19.651  0.00  0.00    +0.143 A 
ATOM     46  N   UNL     1       1.606   3.740  18.382  0.00  0.00    -0.259 NA
ATOM     47  C   UNL     1       1.751   5.078  18.267  0.00  0.00    +0.130 A 
ATOM     48  C   UNL     1       1.933   5.902  19.369  0.00  0.00    +0.131 A 
ATOM     49  N   UNL     1       1.994   5.432  20.643  0.00  0.00    -0.247 NA
ENDBRANCH  42  44
ENDBRANCH  33  40
ENDBRANCH  31  33
ENDBRANCH  28  29
BRANCH  28  50
ATOM     50  C   UNL     1       6.336   2.822  27.700  0.00  0.00    -0.011 C 
ATOM     51  C   UNL     1       5.004   3.031  28.453  0.00  0.00    +0.013 C 
ATOM     52  C   UNL     1       7.150   4.134  27.839  0.00  0.00    +0.013 C 
ATOM     53  C   UNL     1       7.166   1.701  28.399  0.00  0.00    +0.013 C 
ENDBRANCH  28  50
ENDBRANCH   3  28
TORSDOF 14
ENDMDL
MODEL 8
REMARK VINA RESULT:      -5.7      1.705      4.690
REMARK  Name = 
REMARK  18 active torsions:
REMARK  status: ('A' for Active; 'I' for Inactive)
REMARK    1  A    between atoms: C_1  and  C_2
REMARK    2  A    between atoms: C_2  and  C_3
REMARK    3  A    between atoms: C_3  and  C_4
REMARK    4  A    between atoms: C_4  and  C_5
REMARK    5  A    between atoms: C_4  and  N_13
REMARK    6  A    between atoms: C_5  and  C_7
REMARK    7  A    between atoms: N_9  and  C_10
REMARK    8  A    between atoms: C_14  and  C_16
REMARK    9  A    between atoms: C_26  and  C_28
REMARK   10  A    between atoms: C_28  and  C_29
REMARK   11  A    between atoms: C_28  and  N_33
REMARK   12  A    between atoms: C_29  and  C_30
REMARK   13  A    between atoms: C_29  and  C_31
REMARK   14  A    between atoms: C_29  and  C_32
REMARK   15  A    between atoms: C_34  and  C_36
REMARK   16  A    between atoms: C_36  and  C_37
REMARK   17  A    between atoms: C_36  and  N_43
REMARK   18  A    between atoms: C_44  and  C_46
REMARK                            x       y       z     vdW  Elec       q    Type
REMARK                         _______ _______ _______ _____ _____    ______ ____
ROOT
ATOM      1  C   UNL     1       7.154   0.950  24.359  0.00  0.00    +0.165 C 
ATOM      2  N   UNL     1       7.482   0.378  22.985  0.00  0.00    -0.288 N 
ATOM      3  C   UNL     1       8.185  -0.763  22.555  0.00  0.00    +0.237 C 
ATOM      4  O   UNL     1       8.879  -0.666  21.528  0.00  0.00    -0.274 OA
ATOM      5  C   UNL     1       7.584   1.480  22.010  0.00  0.00    +0.112 C 
ATOM      6  C   UNL     1       7.405   2.795  22.727  0.00  0.00    +0.012 C 
ATOM      7  C   UNL     1       8.697   3.518  23.130  0.00  0.00    +0.005 C 
ATOM      8  C   UNL     1       8.583   3.807  24.623  0.00  0.00    +0.001 C 
ATOM      9  C   UNL     1       7.139   3.492  24.993  0.00  0.00    +0.006 C 
ATOM     10  C   UNL     1       6.695   2.414  24.009  0.00  0.00    +0.023 C 
ENDROOT
BRANCH   1  13
ATOM     11  N   UNL     1       6.067   0.919  26.704  0.00  0.00    -0.304 N 
ATOM     12  H   UNL     1       6.736   1.661  26.901  0.00  0.00    +0.149 HD
ATOM     13  C   UNL     1       6.061   0.434  25.413  0.00  0.00    +0.234 C 
ATOM     14  O   UNL     1       5.155  -0.337  25.078  0.00  0.00    -0.274 OA
BRANCH  11  15
ATOM     15  C   UNL     1       4.985   0.590  27.701  0.00  0.00    +0.149 C 
BRANCH  15  16
ATOM     16  C   UNL     1       3.771   1.539  27.693  0.00  0.00    +0.237 C 
ATOM     17  O   UNL     1       2.698   1.239  28.209  0.00  0.00    -0.285 OA
BRANCH  16  18
ATOM     18  C   UNL     1       3.771   2.797  26.817  0.00  0.00    +0.282 C 
ATOM     19  N   UNL     1       3.086   2.595  25.616  0.00  0.00    -0.306 N 
ATOM     20  H   UNL     1       2.687   1.679  25.479  0.00  0.00    +0.149 HD
ATOM     21  O   UNL     1       4.319   3.829  27.161  0.00  0.00    -0.267 OA
BRANCH  19  22
ATOM     22  C   UNL     1       2.829   3.608  24.630  0.00  0.00    +0.073 C 
ATOM     23  C   UNL     1       1.770   3.405  23.570  0.00  0.00    +0.024 C 
ATOM     24  C   UNL     1       3.217   3.373  23.178  0.00  0.00    +0.024 C 
ENDBRANCH  19  22
ENDBRANCH  16  18
ENDBRANCH  15  16
BRANCH  15  25
ATOM     25  C   UNL     1       5.596   0.731  29.119  0.00  0.00    +0.030 C 
BRANCH  25  27
ATOM     26  C   UNL     1       6.638   2.944  29.783  0.00  0.00    +0.004 C 
ATOM     27  C   UNL     1       6.881   1.575  29.162  0.00  0.00    -0.001 C 
ENDBRANCH  25  27
ENDBRANCH  15  25
ENDBRANCH  11  15
ENDBRANCH   1  13
BRANCH   3  28
ATOM     28  C   UNL     1       8.107  -2.199  23.218  0.00  0.00    +0.164 C 
BRANCH  28  29
ATOM     29  N   UNL     1       6.761  -2.532  23.720  0.00  0.00    -0.302 N 
ATOM     30  H   UNL     1       6.551  -2.438  24.706  0.00  0.00    +0.150 HD
ATOM     31  C   UNL     1       5.979  -3.388  23.020  0.00  0.00    +0.234 C 
ATOM     32  O   UNL     1       6.353  -3.768  21.917  0.00  0.00    -0.274 OA
BRANCH  31  33
ATOM     33  C   UNL     1       4.623  -3.808  23.611  0.00  0.00    +0.162 C 
BRANCH  33  34
ATOM     34  C   UNL     1       4.379  -5.271  23.116  0.00  0.00    +0.018 C 
ATOM     35  C   UNL     1       2.925  -5.719  22.985  0.00  0.00    +0.006 C 
ATOM     36  C   UNL     1       2.304  -6.228  24.279  0.00  0.00    +0.000 C 
ATOM     37  C   UNL     1       3.172  -7.255  24.984  0.00  0.00    +0.000 C 
ATOM     38  C   UNL     1       4.580  -6.754  25.188  0.00  0.00    +0.000 C 
ATOM     39  C   UNL     1       5.202  -6.332  23.870  0.00  0.00    +0.006 C 
ENDBRANCH  33  34
BRANCH  33  40
ATOM     40  N   UNL     1       4.633  -3.602  25.059  0.00  0.00    -0.298 N 
ATOM     41  H   UNL     1       5.429  -3.909  25.612  0.00  0.00    +0.150 HD
ATOM     42  C   UNL     1       3.510  -3.222  25.769  0.00  0.00    +0.264 C 
ATOM     43  O   UNL     1       2.464  -2.872  25.236  0.00  0.00    -0.268 OA
BRANCH  42  44
ATOM     44  C   UNL     1       3.627  -3.291  27.259  0.00  0.00    +0.143 A 
ATOM     45  C   UNL     1       2.889  -2.416  28.050  0.00  0.00    +0.143 A 
ATOM     46  N   UNL     1       2.949  -2.433  29.407  0.00  0.00    -0.259 NA
ATOM     47  C   UNL     1       3.769  -3.367  29.938  0.00  0.00    +0.130 A 
ATOM     48  C   UNL     1       4.495  -4.251  29.151  0.00  0.00    +0.131 A 
ATOM     49  N   UNL     1       4.452  -4.240  27.792  0.00  0.00    -0.247 NA
ENDBRANCH  42  44
ENDBRANCH  33  40
ENDBRANCH  31  33
ENDBRANCH  28  29
BRANCH  28  50
ATOM     50  C   UNL     1       9.098  -2.277  24.465  0.00  0.00    -0.011 C 
ATOM     51  C   UNL     1       9.819  -3.642  24.485  0.00  0.00    +0.013 C 
ATOM     52  C   UNL     1       8.308  -2.158  25.793  0.00  0.00    +0.013 C 
ATOM     53  C   UNL     1      10.152  -1.126  24.464  0.00  0.00    +0.013 C 
ENDBRANCH  28  50
ENDBRANCH   3  28
TORSDOF 14
ENDMDL
MODEL 9
REMARK VINA RESULT:      -5.6      2.184      5.587
REMARK  Name = 
REMARK  18 active torsions:
REMARK  status: ('A' for Active; 'I' for Inactive)
REMARK    1  A    between atoms: C_1  and  C_2
REMARK    2  A    between atoms: C_2  and  C_3
REMARK    3  A    between atoms: C_3  and  C_4
REMARK    4  A    between atoms: C_4  and  C_5
REMARK    5  A    between atoms: C_4  and  N_13
REMARK    6  A    between atoms: C_5  and  C_7
REMARK    7  A    between atoms: N_9  and  C_10
REMARK    8  A    between atoms: C_14  and  C_16
REMARK    9  A    between atoms: C_26  and  C_28
REMARK   10  A    between atoms: C_28  and  C_29
REMARK   11  A    between atoms: C_28  and  N_33
REMARK   12  A    between atoms: C_29  and  C_30
REMARK   13  A    between atoms: C_29  and  C_31
REMARK   14  A    between atoms: C_29  and  C_32
REMARK   15  A    between atoms: C_34  and  C_36
REMARK   16  A    between atoms: C_36  and  C_37
REMARK   17  A    between atoms: C_36  and  N_43
REMARK   18  A    between atoms: C_44  and  C_46
REMARK                            x       y       z     vdW  Elec       q    Type
REMARK                         _______ _______ _______ _____ _____    ______ ____
ROOT
ATOM      1  C   UNL     1       4.057   3.425  23.669  0.00  0.00    +0.165 C 
ATOM      2  N   UNL     1       3.395   3.245  25.031  0.00  0.00    -0.288 N 
ATOM      3  C   UNL     1       3.602   2.349  26.096  0.00  0.00    +0.237 C 
ATOM      4  O   UNL     1       2.604   1.949  26.721  0.00  0.00    -0.274 OA
ATOM      5  C   UNL     1       1.988   3.679  24.949  0.00  0.00    +0.112 C 
ATOM      6  C   UNL     1       1.673   4.076  23.529  0.00  0.00    +0.012 C 
ATOM      7  C   UNL     1       1.009   2.996  22.664  0.00  0.00    +0.005 C 
ATOM      8  C   UNL     1       1.859   2.869  21.405  0.00  0.00    +0.001 C 
ATOM      9  C   UNL     1       2.827   4.044  21.440  0.00  0.00    +0.006 C 
ATOM     10  C   UNL     1       3.032   4.354  22.921  0.00  0.00    +0.023 C 
ENDROOT
BRANCH   1  13
ATOM     11  N   UNL     1       6.639   3.462  23.802  0.00  0.00    -0.304 N 
ATOM     12  H   UNL     1       6.515   2.567  24.273  0.00  0.00    +0.149 HD
ATOM     13  C   UNL     1       5.488   4.069  23.341  0.00  0.00    +0.234 C 
ATOM     14  O   UNL     1       5.598   5.061  22.613  0.00  0.00    -0.274 OA
BRANCH  11  15
ATOM     15  C   UNL     1       8.017   3.928  23.410  0.00  0.00    +0.149 C 
BRANCH  15  16
ATOM     16  C   UNL     1       9.128   2.865  23.519  0.00  0.00    +0.237 C 
ATOM     17  O   UNL     1      10.234   3.014  23.006  0.00  0.00    -0.285 OA
BRANCH  16  18
ATOM     18  C   UNL     1       8.815   1.464  24.057  0.00  0.00    +0.282 C 
ATOM     19  N   UNL     1       8.818   0.505  23.042  0.00  0.00    -0.306 N 
ATOM     20  H   UNL     1       9.021   0.840  22.112  0.00  0.00    +0.149 HD
ATOM     21  O   UNL     1       8.592   1.254  25.235  0.00  0.00    -0.267 OA
BRANCH  19  22
ATOM     22  C   UNL     1       8.656  -0.909  23.240  0.00  0.00    +0.073 C 
ATOM     23  C   UNL     1       9.836  -1.780  23.607  0.00  0.00    +0.024 C 
ATOM     24  C   UNL     1       9.243  -1.891  22.235  0.00  0.00    +0.024 C 
ENDBRANCH  19  22
ENDBRANCH  16  18
ENDBRANCH  15  16
BRANCH  15  25
ATOM     25  C   UNL     1       8.433   5.047  24.399  0.00  0.00    +0.030 C 
BRANCH  25  27
ATOM     26  C   UNL     1       8.163   6.046  26.713  0.00  0.00    +0.004 C 
ATOM     27  C   UNL     1       7.943   4.819  25.839  0.00  0.00    -0.001 C 
ENDBRANCH  25  27
ENDBRANCH  15  25
ENDBRANCH  11  15
ENDBRANCH   1  13
BRANCH   3  28
ATOM     28  C   UNL     1       5.010   1.861  26.632  0.00  0.00    +0.164 C 
BRANCH  28  29
ATOM     29  N   UNL     1       5.082   0.401  26.822  0.00  0.00    -0.302 N 
ATOM     30  H   UNL     1       5.233   0.018  27.748  0.00  0.00    +0.150 HD
ATOM     31  C   UNL     1       5.429  -0.394  25.782  0.00  0.00    +0.234 C 
ATOM     32  O   UNL     1       5.549   0.104  24.669  0.00  0.00    -0.274 OA
BRANCH  31  33
ATOM     33  C   UNL     1       5.604  -1.902  26.024  0.00  0.00    +0.162 C 
BRANCH  33  34
ATOM     34  C   UNL     1       4.365  -2.341  26.872  0.00  0.00    +0.018 C 
ATOM     35  C   UNL     1       4.599  -3.431  27.917  0.00  0.00    +0.006 C 
ATOM     36  C   UNL     1       4.524  -4.851  27.373  0.00  0.00    +0.000 C 
ATOM     37  C   UNL     1       3.279  -5.097  26.539  0.00  0.00    +0.000 C 
ATOM     38  C   UNL     1       3.119  -4.063  25.452  0.00  0.00    +0.000 C 
ATOM     39  C   UNL     1       3.114  -2.662  26.033  0.00  0.00    +0.006 C 
ENDBRANCH  33  34
BRANCH  33  40
ATOM     40  N   UNL     1       5.795  -2.586  24.746  0.00  0.00    -0.298 N 
ATOM     41  H   UNL     1       5.130  -2.448  23.990  0.00  0.00    +0.150 HD
ATOM     42  C   UNL     1       6.709  -3.609  24.573  0.00  0.00    +0.264 C 
ATOM     43  O   UNL     1       7.539  -3.918  25.419  0.00  0.00    -0.268 OA
BRANCH  42  44
ATOM     44  C   UNL     1       6.609  -4.360  23.283  0.00  0.00    +0.143 A 
ATOM     45  C   UNL     1       5.820  -3.858  22.253  0.00  0.00    +0.143 A 
ATOM     46  N   UNL     1       5.693  -4.491  21.057  0.00  0.00    -0.259 NA
ATOM     47  C   UNL     1       6.395  -5.640  20.934  0.00  0.00    +0.130 A 
ATOM     48  C   UNL     1       7.194  -6.134  21.955  0.00  0.00    +0.131 A 
ATOM     49  N   UNL     1       7.324  -5.517  23.159  0.00  0.00    -0.247 NA
ENDBRANCH  42  44
ENDBRANCH  33  40
ENDBRANCH  31  33
ENDBRANCH  28  29
BRANCH  28  50
ATOM     50  C   UNL     1       5.313   2.528  28.048  0.00  0.00    -0.011 C 
ATOM     51  C   UNL     1       6.815   2.403  28.382  0.00  0.00    +0.013 C 
ATOM     52  C   UNL     1       4.533   1.796  29.170  0.00  0.00    +0.013 C 
ATOM     53  C   UNL     1       4.884   4.028  28.107  0.00  0.00    +0.013 C 
ENDBRANCH  28  50
ENDBRANCH   3  28
TORSDOF 14
ENDMDL
