MODEL 1
REMARK VINA RESULT:      -7.1      0.000      0.000
REMARK  Name = 
REMARK  16 active torsions:
REMARK  status: ('A' for Active; 'I' for Inactive)
REMARK    1  A    between atoms: C_1  and  C_2
REMARK    2  A    between atoms: C_2  and  C_4
REMARK    3  A    between atoms: C_2  and  N_10
REMARK    4  A    between atoms: C_4  and  O_6
REMARK    5  A    between atoms: O_6  and  C_7
REMARK    6  A    between atoms: C_7  and  C_8
REMARK    7  A    between atoms: C_7  and  C_9
REMARK    8  A    between atoms: N_10  and  P_11
REMARK    9  A    between atoms: P_11  and  O_13
REMARK   10  A    between atoms: P_11  and  O_34
REMARK   11  A    between atoms: O_13  and  C_14
REMARK   12  A    between atoms: C_14  and  C_15
REMARK   13  A    between atoms: C_17  and  O_33
REMARK   14  A    between atoms: C_19  and  C_31
REMARK   15  A    between atoms: C_20  and  N_23
REMARK   16  A    between atoms: O_34  and  C_35
REMARK                            x       y       z     vdW  Elec       q    Type
REMARK                         _______ _______ _______ _____ _____    ______ ____
ROOT
ATOM      1  O   UNL     1       7.578  -1.134  22.458  0.00  0.00    -0.284 OA
ENDROOT
BRANCH   1   2
ATOM      2  P   UNL     1       8.600   0.175  22.601  0.00  0.00    +0.462 P 
ATOM      3  O   UNL     1       9.520   0.159  21.376  0.00  0.00    -0.228 OA
BRANCH   2   4
ATOM      4  N   UNL     1       9.771  -0.857  23.454  0.00  0.00    -0.199 NA
ATOM      5  H   UNL     1       9.401  -1.797  23.503  0.00  0.00    +0.135 HD
BRANCH   4   7
ATOM      6  C   UNL     1      10.489   1.158  24.633  0.00  0.00    +0.036 C 
ATOM      7  C   UNL     1      10.190  -0.334  24.764  0.00  0.00    +0.171 C 
BRANCH   7   8
ATOM      8  C   UNL     1       9.112  -0.532  25.851  0.00  0.00    +0.325 C 
ATOM      9  O   UNL     1       8.891  -1.596  26.415  0.00  0.00    -0.249 OA
BRANCH   8  10
ATOM     10  O   UNL     1       8.351   0.597  26.023  0.00  0.00    -0.461 OA
BRANCH  10  11
ATOM     11  C   UNL     1       6.978   0.377  26.437  0.00  0.00    +0.170 C 
ATOM     12  C   UNL     1       6.053   1.209  25.557  0.00  0.00    +0.052 C 
ATOM     13  C   UNL     1       6.842   0.761  27.905  0.00  0.00    +0.052 C 
ENDBRANCH  10  11
ENDBRANCH   8  10
ENDBRANCH   7   8
ENDBRANCH   4   7
ENDBRANCH   2   4
BRANCH   2  14
ATOM     14  O   UNL     1       7.461   1.180  21.773  0.00  0.00    -0.413 OA
BRANCH  14  15
ATOM     15  C   UNL     1       7.127   2.417  22.243  0.00  0.00    +0.131 A 
ATOM     16  C   UNL     1       5.835   2.930  22.230  0.00  0.00    +0.046 A 
ATOM     17  C   UNL     1       5.603   4.222  22.710  0.00  0.00    +0.004 A 
ATOM     18  C   UNL     1       6.654   4.988  23.215  0.00  0.00    +0.000 A 
ATOM     19  C   UNL     1       7.949   4.475  23.213  0.00  0.00    +0.004 A 
ATOM     20  C   UNL     1       8.186   3.195  22.716  0.00  0.00    +0.046 A 
ENDBRANCH  14  15
ENDBRANCH   2  14
ENDBRANCH   1   2
BRANCH   1  21
ATOM     21  C   UNL     1       8.082  -2.376  22.919  0.00  0.00    +0.206 C 
BRANCH  21  22
ATOM     22  C   UNL     1       7.440  -3.588  22.234  0.00  0.00    +0.178 C 
ATOM     23  O   UNL     1       7.579  -4.733  23.110  0.00  0.00    -0.347 OA
ATOM     24  C   UNL     1       6.274  -5.053  23.643  0.00  0.00    +0.249 C 
ATOM     25  C   UNL     1       5.290  -3.941  23.230  0.00  0.00    +0.179 C 
ATOM     26  C   UNL     1       5.048  -2.788  24.191  0.00  0.00    +0.054 C 
ATOM     27  F   UNL     1       4.061  -4.485  22.973  0.00  0.00    -0.235 F 
ATOM     28  C   UNL     1       5.945  -3.488  21.921  0.00  0.00    +0.186 C 
BRANCH  24  29
ATOM     29  N   UNL     1       6.400  -5.445  25.047  0.00  0.00    -0.256 N 
ATOM     30  C   UNL     1       5.505  -6.292  25.667  0.00  0.00    +0.310 C 
ATOM     31  O   UNL     1       4.555  -6.855  25.126  0.00  0.00    -0.252 OA
ATOM     32  N   UNL     1       5.703  -6.472  27.012  0.00  0.00    -0.240 N 
ATOM     33  H   UNL     1       5.024  -7.060  27.476  0.00  0.00    +0.159 HD
ATOM     34  C   UNL     1       6.515  -5.742  27.836  0.00  0.00    +0.222 C 
ATOM     35  O   UNL     1       6.466  -5.870  29.057  0.00  0.00    -0.275 OA
ATOM     36  C   UNL     1       7.384  -4.721  27.170  0.00  0.00    +0.115 C 
ATOM     37  C   UNL     1       7.644  -5.127  25.735  0.00  0.00    +0.121 C 
ENDBRANCH  24  29
BRANCH  28  38
ATOM     38  O   UNL     1       5.632  -4.455  20.891  0.00  0.00    -0.386 OA
ATOM     39  H   UNL     1       5.803  -4.042  20.026  0.00  0.00    +0.210 HD
ENDBRANCH  28  38
ENDBRANCH  21  22
ENDBRANCH   1  21
TORSDOF 12
ENDMDL
MODEL 2
REMARK VINA RESULT:      -7.1      2.977      7.394
REMARK  Name = 
REMARK  16 active torsions:
REMARK  status: ('A' for Active; 'I' for Inactive)
REMARK    1  A    between atoms: C_1  and  C_2
REMARK    2  A    between atoms: C_2  and  C_4
REMARK    3  A    between atoms: C_2  and  N_10
REMARK    4  A    between atoms: C_4  and  O_6
REMARK    5  A    between atoms: O_6  and  C_7
REMARK    6  A    between atoms: C_7  and  C_8
REMARK    7  A    between atoms: C_7  and  C_9
REMARK    8  A    between atoms: N_10  and  P_11
REMARK    9  A    between atoms: P_11  and  O_13
REMARK   10  A    between atoms: P_11  and  O_34
REMARK   11  A    between atoms: O_13  and  C_14
REMARK   12  A    between atoms: C_14  and  C_15
REMARK   13  A    between atoms: C_17  and  O_33
REMARK   14  A    between atoms: C_19  and  C_31
REMARK   15  A    between atoms: C_20  and  N_23
REMARK   16  A    between atoms: O_34  and  C_35
REMARK                            x       y       z     vdW  Elec       q    Type
REMARK                         _______ _______ _______ _____ _____    ______ ____
ROOT
ATOM      1  O   UNL     1       7.878  -1.818  23.584  0.00  0.00    -0.284 OA
ENDROOT
BRANCH   1   2
ATOM      2  P   UNL     1       7.913  -3.433  23.997  0.00  0.00    +0.462 P 
ATOM      3  O   UNL     1       9.387  -3.835  24.100  0.00  0.00    -0.228 OA
BRANCH   2   4
ATOM      4  N   UNL     1       7.952  -3.853  22.268  0.00  0.00    -0.199 NA
ATOM      5  H   UNL     1       7.911  -3.001  21.726  0.00  0.00    +0.135 HD
BRANCH   4   7
ATOM      6  C   UNL     1       7.123  -6.110  22.697  0.00  0.00    +0.036 C 
ATOM      7  C   UNL     1       6.938  -4.841  21.868  0.00  0.00    +0.171 C 
BRANCH   7   8
ATOM      8  C   UNL     1       5.498  -4.323  22.068  0.00  0.00    +0.325 C 
ATOM      9  O   UNL     1       5.176  -3.144  22.001  0.00  0.00    -0.249 OA
BRANCH   8  10
ATOM     10  O   UNL     1       4.644  -5.329  22.446  0.00  0.00    -0.461 OA
BRANCH  10  11
ATOM     11  C   UNL     1       3.647  -4.971  23.439  0.00  0.00    +0.170 C 
ATOM     12  C   UNL     1       4.135  -5.408  24.814  0.00  0.00    +0.052 C 
ATOM     13  C   UNL     1       2.331  -5.647  23.076  0.00  0.00    +0.052 C 
ENDBRANCH  10  11
ENDBRANCH   8  10
ENDBRANCH   7   8
ENDBRANCH   4   7
ENDBRANCH   2   4
BRANCH   2  14
ATOM     14  O   UNL     1       7.874  -3.025  25.678  0.00  0.00    -0.413 OA
BRANCH  14  15
ATOM     15  C   UNL     1       7.030  -3.654  26.545  0.00  0.00    +0.131 A 
ATOM     16  C   UNL     1       5.882  -3.074  27.073  0.00  0.00    +0.046 A 
ATOM     17  C   UNL     1       5.099  -3.795  27.978  0.00  0.00    +0.004 A 
ATOM     18  C   UNL     1       5.453  -5.096  28.339  0.00  0.00    +0.000 A 
ATOM     19  C   UNL     1       6.611  -5.669  27.819  0.00  0.00    +0.004 A 
ATOM     20  C   UNL     1       7.404  -4.943  26.931  0.00  0.00    +0.046 A 
ENDBRANCH  14  15
ENDBRANCH   2  14
ENDBRANCH   1   2
BRANCH   1  21
ATOM     21  C   UNL     1       8.951  -1.352  22.785  0.00  0.00    +0.206 C 
BRANCH  21  22
ATOM     22  C   UNL     1       8.755   0.080  22.274  0.00  0.00    +0.178 C 
ATOM     23  O   UNL     1       7.754   0.725  23.098  0.00  0.00    -0.347 OA
ATOM     24  C   UNL     1       8.416   1.711  23.922  0.00  0.00    +0.249 C 
ATOM     25  C   UNL     1       9.939   1.553  23.745  0.00  0.00    +0.179 C 
ATOM     26  C   UNL     1      10.702   0.683  24.731  0.00  0.00    +0.054 C 
ATOM     27  F   UNL     1      10.537   2.783  23.785  0.00  0.00    -0.235 F 
ATOM     28  C   UNL     1       9.978   0.999  22.317  0.00  0.00    +0.186 C 
BRANCH  24  29
ATOM     29  N   UNL     1       7.823   1.711  25.260  0.00  0.00    -0.256 N 
ATOM     30  C   UNL     1       7.715   2.852  26.027  0.00  0.00    +0.310 C 
ATOM     31  O   UNL     1       8.037   3.986  25.677  0.00  0.00    -0.252 OA
ATOM     32  N   UNL     1       7.237   2.662  27.298  0.00  0.00    -0.240 N 
ATOM     33  H   UNL     1       7.196   3.491  27.875  0.00  0.00    +0.159 HD
ATOM     34  C   UNL     1       7.084   1.473  27.958  0.00  0.00    +0.222 C 
ATOM     35  O   UNL     1       6.828   1.438  29.159  0.00  0.00    -0.275 OA
ATOM     36  C   UNL     1       7.342   0.236  27.155  0.00  0.00    +0.115 C 
ATOM     37  C   UNL     1       7.103   0.519  25.687  0.00  0.00    +0.121 C 
ENDBRANCH  24  29
BRANCH  28  38
ATOM     38  O   UNL     1       9.759   2.090  21.393  0.00  0.00    -0.386 OA
ATOM     39  H   UNL     1       9.536   1.711  20.525  0.00  0.00    +0.210 HD
ENDBRANCH  28  38
ENDBRANCH  21  22
ENDBRANCH   1  21
TORSDOF 12
ENDMDL
MODEL 3
REMARK VINA RESULT:      -7.0      2.899      4.991
REMARK  Name = 
REMARK  16 active torsions:
REMARK  status: ('A' for Active; 'I' for Inactive)
REMARK    1  A    between atoms: C_1  and  C_2
REMARK    2  A    between atoms: C_2  and  C_4
REMARK    3  A    between atoms: C_2  and  N_10
REMARK    4  A    between atoms: C_4  and  O_6
REMARK    5  A    between atoms: O_6  and  C_7
REMARK    6  A    between atoms: C_7  and  C_8
REMARK    7  A    between atoms: C_7  and  C_9
REMARK    8  A    between atoms: N_10  and  P_11
REMARK    9  A    between atoms: P_11  and  O_13
REMARK   10  A    between atoms: P_11  and  O_34
REMARK   11  A    between atoms: O_13  and  C_14
REMARK   12  A    between atoms: C_14  and  C_15
REMARK   13  A    between atoms: C_17  and  O_33
REMARK   14  A    between atoms: C_19  and  C_31
REMARK   15  A    between atoms: C_20  and  N_23
REMARK   16  A    between atoms: O_34  and  C_35
REMARK                            x       y       z     vdW  Elec       q    Type
REMARK                         _______ _______ _______ _____ _____    ______ ____
ROOT
ATOM      1  O   UNL     1       7.205   0.920  23.356  0.00  0.00    -0.284 OA
ENDROOT
BRANCH   1   2
ATOM      2  P   UNL     1       6.854   2.473  23.850  0.00  0.00    +0.462 P 
ATOM      3  O   UNL     1       6.122   2.360  25.191  0.00  0.00    -0.228 OA
BRANCH   2   4
ATOM      4  N   UNL     1       5.284   2.360  23.020  0.00  0.00    -0.199 NA
ATOM      5  H   UNL     1       5.447   2.277  22.026  0.00  0.00    +0.135 HD
BRANCH   4   7
ATOM      6  C   UNL     1       4.940   4.776  22.919  0.00  0.00    +0.036 C 
ATOM      7  C   UNL     1       4.346   3.441  23.361  0.00  0.00    +0.171 C 
BRANCH   7   8
ATOM      8  C   UNL     1       2.969   3.262  22.688  0.00  0.00    +0.325 C 
ATOM      9  O   UNL     1       1.962   2.877  23.270  0.00  0.00    -0.249 OA
BRANCH   8  10
ATOM     10  O   UNL     1       3.035   3.471  21.333  0.00  0.00    -0.461 OA
BRANCH  10  11
ATOM     11  C   UNL     1       1.839   4.016  20.718  0.00  0.00    +0.170 C 
ATOM     12  C   UNL     1       1.759   3.537  19.274  0.00  0.00    +0.052 C 
ATOM     13  C   UNL     1       1.898   5.536  20.796  0.00  0.00    +0.052 C 
ENDBRANCH  10  11
ENDBRANCH   8  10
ENDBRANCH   7   8
ENDBRANCH   4   7
ENDBRANCH   2   4
BRANCH   2  14
ATOM     14  O   UNL     1       8.381   2.584  24.656  0.00  0.00    -0.413 OA
BRANCH  14  15
ATOM     15  C   UNL     1       9.336   3.471  24.255  0.00  0.00    +0.131 A 
ATOM     16  C   UNL     1      10.536   3.105  23.658  0.00  0.00    +0.046 A 
ATOM     17  C   UNL     1      11.462   4.093  23.310  0.00  0.00    +0.004 A 
ATOM     18  C   UNL     1      11.181   5.440  23.544  0.00  0.00    +0.000 A 
ATOM     19  C   UNL     1       9.983   5.801  24.156  0.00  0.00    +0.004 A 
ATOM     20  C   UNL     1       9.067   4.816  24.522  0.00  0.00    +0.046 A 
ENDBRANCH  14  15
ENDBRANCH   2  14
ENDBRANCH   1   2
BRANCH   1  21
ATOM     21  C   UNL     1       8.016   0.153  24.228  0.00  0.00    +0.206 C 
BRANCH  21  22
ATOM     22  C   UNL     1       9.056  -0.706  23.498  0.00  0.00    +0.178 C 
ATOM     23  O   UNL     1       9.535  -1.719  24.415  0.00  0.00    -0.347 OA
ATOM     24  C   UNL     1       9.010  -2.996  23.990  0.00  0.00    +0.249 C 
ATOM     25  C   UNL     1       7.995  -2.754  22.854  0.00  0.00    +0.179 C 
ATOM     26  C   UNL     1       6.522  -2.625  23.208  0.00  0.00    +0.054 C 
ATOM     27  F   UNL     1       8.077  -3.768  21.939  0.00  0.00    -0.235 F 
ATOM     28  C   UNL     1       8.573  -1.465  22.261  0.00  0.00    +0.186 C 
BRANCH  24  29
ATOM     29  N   UNL     1       8.633  -3.787  25.161  0.00  0.00    -0.256 N 
ATOM     30  C   UNL     1       8.936  -5.127  25.284  0.00  0.00    +0.310 C 
ATOM     31  O   UNL     1       9.588  -5.793  24.482  0.00  0.00    -0.252 OA
ATOM     32  N   UNL     1       8.417  -5.747  26.392  0.00  0.00    -0.240 N 
ATOM     33  H   UNL     1       8.603  -6.738  26.462  0.00  0.00    +0.159 HD
ATOM     34  C   UNL     1       7.461  -5.263  27.243  0.00  0.00    +0.222 C 
ATOM     35  O   UNL     1       6.936  -5.982  28.088  0.00  0.00    -0.275 OA
ATOM     36  C   UNL     1       7.031  -3.847  27.014  0.00  0.00    +0.115 C 
ATOM     37  C   UNL     1       8.145  -3.077  26.336  0.00  0.00    +0.121 C 
ENDBRANCH  24  29
BRANCH  28  38
ATOM     38  O   UNL     1       9.727  -1.806  21.457  0.00  0.00    -0.386 OA
ATOM     39  H   UNL     1       9.716  -2.767  21.304  0.00  0.00    +0.210 HD
ENDBRANCH  28  38
ENDBRANCH  21  22
ENDBRANCH   1  21
TORSDOF 12
ENDMDL
MODEL 4
REMARK VINA RESULT:      -6.9      2.327      3.614
REMARK  Name = 
REMARK  16 active torsions:
REMARK  status: ('A' for Active; 'I' for Inactive)
REMARK    1  A    between atoms: C_1  and  C_2
REMARK    2  A    between atoms: C_2  and  C_4
REMARK    3  A    between atoms: C_2  and  N_10
REMARK    4  A    between atoms: C_4  and  O_6
REMARK    5  A    between atoms: O_6  and  C_7
REMARK    6  A    between atoms: C_7  and  C_8
REMARK    7  A    between atoms: C_7  and  C_9
REMARK    8  A    between atoms: N_10  and  P_11
REMARK    9  A    between atoms: P_11  and  O_13
REMARK   10  A    between atoms: P_11  and  O_34
REMARK   11  A    between atoms: O_13  and  C_14
REMARK   12  A    between atoms: C_14  and  C_15
REMARK   13  A    between atoms: C_17  and  O_33
REMARK   14  A    between atoms: C_19  and  C_31
REMARK   15  A    between atoms: C_20  and  N_23
REMARK   16  A    between atoms: O_34  and  C_35
REMARK                            x       y       z     vdW  Elec       q    Type
REMARK                         _______ _______ _______ _____ _____    ______ ____
ROOT
ATOM      1  O   UNL     1       6.835   0.675  23.260  0.00  0.00    -0.284 OA
ENDROOT
BRANCH   1   2
ATOM      2  P   UNL     1       6.391   2.257  23.540  0.00  0.00    +0.462 P 
ATOM      3  O   UNL     1       6.849   2.604  24.959  0.00  0.00    -0.228 OA
BRANCH   2   4
ATOM      4  N   UNL     1       4.847   1.684  24.213  0.00  0.00    -0.199 NA
ATOM      5  H   UNL     1       4.090   2.155  23.737  0.00  0.00    +0.135 HD
BRANCH   4   7
ATOM      6  C   UNL     1       3.457   2.492  26.052  0.00  0.00    +0.036 C 
ATOM      7  C   UNL     1       4.757   1.783  25.677  0.00  0.00    +0.171 C 
BRANCH   7   8
ATOM      8  C   UNL     1       4.785   0.401  26.365  0.00  0.00    +0.325 C 
ATOM      9  O   UNL     1       4.570  -0.658  25.790  0.00  0.00    -0.249 OA
BRANCH   8  10
ATOM     10  O   UNL     1       4.961   0.513  27.722  0.00  0.00    -0.461 OA
BRANCH  10  11
ATOM     11  C   UNL     1       6.161   1.211  28.148  0.00  0.00    +0.170 C 
ATOM     12  C   UNL     1       7.375   0.339  27.853  0.00  0.00    +0.052 C 
ATOM     13  C   UNL     1       6.046   1.518  29.635  0.00  0.00    +0.052 C 
ENDBRANCH  10  11
ENDBRANCH   8  10
ENDBRANCH   7   8
ENDBRANCH   4   7
ENDBRANCH   2   4
BRANCH   2  14
ATOM     14  O   UNL     1       7.892   2.815  22.884  0.00  0.00    -0.413 OA
BRANCH  14  15
ATOM     15  C   UNL     1       8.373   4.061  23.164  0.00  0.00    +0.131 A 
ATOM     16  C   UNL     1       9.513   4.302  23.921  0.00  0.00    +0.046 A 
ATOM     17  C   UNL     1       9.906   5.620  24.174  0.00  0.00    +0.004 A 
ATOM     18  C   UNL     1       9.171   6.688  23.658  0.00  0.00    +0.000 A 
ATOM     19  C   UNL     1       8.021   6.442  22.912  0.00  0.00    +0.004 A 
ATOM     20  C   UNL     1       7.617   5.129  22.676  0.00  0.00    +0.046 A 
ENDBRANCH  14  15
ENDBRANCH   2  14
ENDBRANCH   1   2
BRANCH   1  21
ATOM     21  C   UNL     1       7.796   0.126  24.145  0.00  0.00    +0.206 C 
BRANCH  21  22
ATOM     22  C   UNL     1       8.882  -0.692  23.437  0.00  0.00    +0.178 C 
ATOM     23  O   UNL     1       9.398  -1.669  24.374  0.00  0.00    -0.347 OA
ATOM     24  C   UNL     1       8.938  -2.975  23.961  0.00  0.00    +0.249 C 
ATOM     25  C   UNL     1       7.925  -2.797  22.813  0.00  0.00    +0.179 C 
ATOM     26  C   UNL     1       6.443  -2.732  23.150  0.00  0.00    +0.054 C 
ATOM     27  F   UNL     1       8.064  -3.818  21.913  0.00  0.00    -0.235 F 
ATOM     28  C   UNL     1       8.447  -1.490  22.207  0.00  0.00    +0.186 C 
BRANCH  24  29
ATOM     29  N   UNL     1       8.586  -3.767  25.140  0.00  0.00    -0.256 N 
ATOM     30  C   UNL     1       8.906  -5.103  25.262  0.00  0.00    +0.310 C 
ATOM     31  O   UNL     1       9.554  -5.764  24.453  0.00  0.00    -0.252 OA
ATOM     32  N   UNL     1       8.409  -5.726  26.379  0.00  0.00    -0.240 N 
ATOM     33  H   UNL     1       8.608  -6.714  26.450  0.00  0.00    +0.159 HD
ATOM     34  C   UNL     1       7.460  -5.249  27.242  0.00  0.00    +0.222 C 
ATOM     35  O   UNL     1       6.955  -5.972  28.097  0.00  0.00    -0.275 OA
ATOM     36  C   UNL     1       7.012  -3.838  27.015  0.00  0.00    +0.115 C 
ATOM     37  C   UNL     1       8.108  -3.058  26.320  0.00  0.00    +0.121 C 
ENDBRANCH  24  29
BRANCH  28  38
ATOM     38  O   UNL     1       9.625  -1.787  21.419  0.00  0.00    -0.386 OA
ATOM     39  H   UNL     1      10.080  -2.543  21.830  0.00  0.00    +0.210 HD
ENDBRANCH  28  38
ENDBRANCH  21  22
ENDBRANCH   1  21
TORSDOF 12
ENDMDL
MODEL 5
REMARK VINA RESULT:      -6.9      2.140      4.190
REMARK  Name = 
REMARK  16 active torsions:
REMARK  status: ('A' for Active; 'I' for Inactive)
REMARK    1  A    between atoms: C_1  and  C_2
REMARK    2  A    between atoms: C_2  and  C_4
REMARK    3  A    between atoms: C_2  and  N_10
REMARK    4  A    between atoms: C_4  and  O_6
REMARK    5  A    between atoms: O_6  and  C_7
REMARK    6  A    between atoms: C_7  and  C_8
REMARK    7  A    between atoms: C_7  and  C_9
REMARK    8  A    between atoms: N_10  and  P_11
REMARK    9  A    between atoms: P_11  and  O_13
REMARK   10  A    between atoms: P_11  and  O_34
REMARK   11  A    between atoms: O_13  and  C_14
REMARK   12  A    between atoms: C_14  and  C_15
REMARK   13  A    between atoms: C_17  and  O_33
REMARK   14  A    between atoms: C_19  and  C_31
REMARK   15  A    between atoms: C_20  and  N_23
REMARK   16  A    between atoms: O_34  and  C_35
REMARK                            x       y       z     vdW  Elec       q    Type
REMARK                         _______ _______ _______ _____ _____    ______ ____
ROOT
ATOM      1  O   UNL     1       5.786  -1.079  25.497  0.00  0.00    -0.284 OA
ENDROOT
BRANCH   1   2
ATOM      2  P   UNL     1       7.004  -0.402  24.582  0.00  0.00    +0.462 P 
ATOM      3  O   UNL     1       6.558  -0.480  23.118  0.00  0.00    -0.228 OA
BRANCH   2   4
ATOM      4  N   UNL     1       7.741  -2.012  24.410  0.00  0.00    -0.199 NA
ATOM      5  H   UNL     1       7.458  -2.585  25.193  0.00  0.00    +0.135 HD
BRANCH   4   7
ATOM      6  C   UNL     1       9.766  -3.376  24.496  0.00  0.00    +0.036 C 
ATOM      7  C   UNL     1       9.199  -1.986  24.212  0.00  0.00    +0.171 C 
BRANCH   7   8
ATOM      8  C   UNL     1       9.593  -1.573  22.778  0.00  0.00    +0.325 C 
ATOM      9  O   UNL     1       9.173  -2.118  21.765  0.00  0.00    -0.249 OA
BRANCH   8  10
ATOM     10  O   UNL     1      10.561  -0.601  22.778  0.00  0.00    -0.461 OA
BRANCH  10  11
ATOM     11  C   UNL     1      10.130   0.721  23.196  0.00  0.00    +0.170 C 
ATOM     12  C   UNL     1      10.071   1.634  21.978  0.00  0.00    +0.052 C 
ATOM     13  C   UNL     1      11.109   1.248  24.238  0.00  0.00    +0.052 C 
ENDBRANCH  10  11
ENDBRANCH   8  10
ENDBRANCH   7   8
ENDBRANCH   4   7
ENDBRANCH   2   4
BRANCH   2  14
ATOM     14  O   UNL     1       6.288   1.164  24.750  0.00  0.00    -0.413 OA
BRANCH  14  15
ATOM     15  C   UNL     1       6.940   2.293  24.348  0.00  0.00    +0.131 A 
ATOM     16  C   UNL     1       6.732   2.917  23.124  0.00  0.00    +0.046 A 
ATOM     17  C   UNL     1       7.474   4.055  22.796  0.00  0.00    +0.004 A 
ATOM     18  C   UNL     1       8.405   4.576  23.697  0.00  0.00    +0.000 A 
ATOM     19  C   UNL     1       8.620   3.939  24.917  0.00  0.00    +0.004 A 
ATOM     20  C   UNL     1       7.895   2.792  25.236  0.00  0.00    +0.046 A 
ENDBRANCH  14  15
ENDBRANCH   2  14
ENDBRANCH   1   2
BRANCH   1  21
ATOM     21  C   UNL     1       6.193  -1.941  26.545  0.00  0.00    +0.206 C 
BRANCH  21  22
ATOM     22  C   UNL     1       5.094  -2.903  27.007  0.00  0.00    +0.178 C 
ATOM     23  O   UNL     1       4.396  -3.393  25.837  0.00  0.00    -0.347 OA
ATOM     24  C   UNL     1       4.750  -4.782  25.651  0.00  0.00    +0.249 C 
ATOM     25  C   UNL     1       5.873  -5.138  26.645  0.00  0.00    +0.179 C 
ATOM     26  C   UNL     1       7.318  -5.038  26.179  0.00  0.00    +0.054 C 
ATOM     27  F   UNL     1       5.707  -6.422  27.088  0.00  0.00    -0.235 F 
ATOM     28  C   UNL     1       5.548  -4.150  27.769  0.00  0.00    +0.186 C 
BRANCH  24  29
ATOM     29  N   UNL     1       4.910  -5.061  24.223  0.00  0.00    -0.256 N 
ATOM     30  C   UNL     1       4.816  -6.333  23.698  0.00  0.00    +0.310 C 
ATOM     31  O   UNL     1       4.537  -7.352  24.327  0.00  0.00    -0.252 OA
ATOM     32  N   UNL     1       5.099  -6.438  22.360  0.00  0.00    -0.240 N 
ATOM     33  H   UNL     1       5.070  -7.375  21.982  0.00  0.00    +0.159 HD
ATOM     34  C   UNL     1       5.681  -5.494  21.559  0.00  0.00    +0.222 C 
ATOM     35  O   UNL     1       6.061  -5.767  20.423  0.00  0.00    -0.275 OA
ATOM     36  C   UNL     1       5.912  -4.152  22.182  0.00  0.00    +0.115 C 
ATOM     37  C   UNL     1       4.921  -3.931  23.305  0.00  0.00    +0.121 C 
ENDBRANCH  24  29
BRANCH  28  38
ATOM     38  O   UNL     1       4.420  -4.661  28.518  0.00  0.00    -0.386 OA
ATOM     39  H   UNL     1       3.823  -3.916  28.711  0.00  0.00    +0.210 HD
ENDBRANCH  28  38
ENDBRANCH  21  22
ENDBRANCH   1  21
TORSDOF 12
ENDMDL
MODEL 6
REMARK VINA RESULT:      -6.8      2.641      4.156
REMARK  Name = 
REMARK  16 active torsions:
REMARK  status: ('A' for Active; 'I' for Inactive)
REMARK    1  A    between atoms: C_1  and  C_2
REMARK    2  A    between atoms: C_2  and  C_4
REMARK    3  A    between atoms: C_2  and  N_10
REMARK    4  A    between atoms: C_4  and  O_6
REMARK    5  A    between atoms: O_6  and  C_7
REMARK    6  A    between atoms: C_7  and  C_8
REMARK    7  A    between atoms: C_7  and  C_9
REMARK    8  A    between atoms: N_10  and  P_11
REMARK    9  A    between atoms: P_11  and  O_13
REMARK   10  A    between atoms: P_11  and  O_34
REMARK   11  A    between atoms: O_13  and  C_14
REMARK   12  A    between atoms: C_14  and  C_15
REMARK   13  A    between atoms: C_17  and  O_33
REMARK   14  A    between atoms: C_19  and  C_31
REMARK   15  A    between atoms: C_20  and  N_23
REMARK   16  A    between atoms: O_34  and  C_35
REMARK                            x       y       z     vdW  Elec       q    Type
REMARK                         _______ _______ _______ _____ _____    ______ ____
ROOT
ATOM      1  O   UNL     1       9.117   1.710  24.282  0.00  0.00    -0.284 OA
ENDROOT
BRANCH   1   2
ATOM      2  P   UNL     1       8.183   2.708  23.328  0.00  0.00    +0.462 P 
ATOM      3  O   UNL     1       8.332   2.214  21.886  0.00  0.00    -0.228 OA
BRANCH   2   4
ATOM      4  N   UNL     1       9.596   3.761  23.080  0.00  0.00    -0.199 NA
ATOM      5  H   UNL     1      10.436   3.207  23.185  0.00  0.00    +0.135 HD
BRANCH   4   7
ATOM      6  C   UNL     1      10.952   5.664  23.790  0.00  0.00    +0.036 C 
ATOM      7  C   UNL     1       9.596   4.972  23.914  0.00  0.00    +0.171 C 
BRANCH   7   8
ATOM      8  C   UNL     1       8.490   5.969  23.507  0.00  0.00    +0.325 C 
ATOM      9  O   UNL     1       8.190   6.228  22.349  0.00  0.00    -0.249 OA
BRANCH   8  10
ATOM     10  O   UNL     1       7.967   6.619  24.597  0.00  0.00    -0.461 OA
BRANCH  10  11
ATOM     11  C   UNL     1       7.706   5.791  25.761  0.00  0.00    +0.170 C 
ATOM     12  C   UNL     1       6.223   5.445  25.803  0.00  0.00    +0.052 C 
ATOM     13  C   UNL     1       8.134   6.553  27.008  0.00  0.00    +0.052 C 
ENDBRANCH  10  11
ENDBRANCH   8  10
ENDBRANCH   7   8
ENDBRANCH   4   7
ENDBRANCH   2   4
BRANCH   2  14
ATOM     14  O   UNL     1       6.808   1.686  23.570  0.00  0.00    -0.413 OA
BRANCH  14  15
ATOM     15  C   UNL     1       5.604   2.192  23.967  0.00  0.00    +0.131 A 
ATOM     16  C   UNL     1       5.035   1.958  25.213  0.00  0.00    +0.046 A 
ATOM     17  C   UNL     1       3.781   2.499  25.510  0.00  0.00    +0.004 A 
ATOM     18  C   UNL     1       3.110   3.286  24.572  0.00  0.00    +0.000 A 
ATOM     19  C   UNL     1       3.678   3.506  23.320  0.00  0.00    +0.004 A 
ATOM     20  C   UNL     1       4.919   2.949  23.014  0.00  0.00    +0.046 A 
ENDBRANCH  14  15
ENDBRANCH   2  14
ENDBRANCH   1   2
BRANCH   1  21
ATOM     21  C   UNL     1       8.692   0.363  24.386  0.00  0.00    +0.206 C 
BRANCH  21  22
ATOM     22  C   UNL     1       9.526  -0.608  23.543  0.00  0.00    +0.178 C 
ATOM     23  O   UNL     1       9.894  -1.734  24.376  0.00  0.00    -0.347 OA
ATOM     24  C   UNL     1       9.140  -2.886  23.935  0.00  0.00    +0.249 C 
ATOM     25  C   UNL     1       8.105  -2.422  22.891  0.00  0.00    +0.179 C 
ATOM     26  C   UNL     1       6.699  -2.080  23.359  0.00  0.00    +0.054 C 
ATOM     27  F   UNL     1       7.960  -3.383  21.928  0.00  0.00    -0.235 F 
ATOM     28  C   UNL     1       8.844  -1.211  22.313  0.00  0.00    +0.186 C 
BRANCH  24  29
ATOM     29  N   UNL     1       8.718  -3.671  25.095  0.00  0.00    -0.256 N 
ATOM     30  C   UNL     1       8.949  -5.027  25.201  0.00  0.00    +0.310 C 
ATOM     31  O   UNL     1       9.566  -5.716  24.392  0.00  0.00    -0.252 OA
ATOM     32  N   UNL     1       8.394  -5.632  26.300  0.00  0.00    -0.240 N 
ATOM     33  H   UNL     1       8.527  -6.632  26.358  0.00  0.00    +0.159 HD
ATOM     34  C   UNL     1       7.463  -5.108  27.155  0.00  0.00    +0.222 C 
ATOM     35  O   UNL     1       6.898  -5.809  27.990  0.00  0.00    -0.275 OA
ATOM     36  C   UNL     1       7.111  -3.668  26.944  0.00  0.00    +0.115 C 
ATOM     37  C   UNL     1       8.267  -2.950  26.278  0.00  0.00    +0.121 C 
ENDBRANCH  24  29
BRANCH  28  38
ATOM     38  O   UNL     1       9.871  -1.686  21.412  0.00  0.00    -0.386 OA
ATOM     39  H   UNL     1       9.476  -1.783  20.527  0.00  0.00    +0.210 HD
ENDBRANCH  28  38
ENDBRANCH  21  22
ENDBRANCH   1  21
TORSDOF 12
ENDMDL
MODEL 7
REMARK VINA RESULT:      -6.8      2.055      3.263
REMARK  Name = 
REMARK  16 active torsions:
REMARK  status: ('A' for Active; 'I' for Inactive)
REMARK    1  A    between atoms: C_1  and  C_2
REMARK    2  A    between atoms: C_2  and  C_4
REMARK    3  A    between atoms: C_2  and  N_10
REMARK    4  A    between atoms: C_4  and  O_6
REMARK    5  A    between atoms: O_6  and  C_7
REMARK    6  A    between atoms: C_7  and  C_8
REMARK    7  A    between atoms: C_7  and  C_9
REMARK    8  A    between atoms: N_10  and  P_11
REMARK    9  A    between atoms: P_11  and  O_13
REMARK   10  A    between atoms: P_11  and  O_34
REMARK   11  A    between atoms: O_13  and  C_14
REMARK   12  A    between atoms: C_14  and  C_15
REMARK   13  A    between atoms: C_17  and  O_33
REMARK   14  A    between atoms: C_19  and  C_31
REMARK   15  A    between atoms: C_20  and  N_23
REMARK   16  A    between atoms: O_34  and  C_35
REMARK                            x       y       z     vdW  Elec       q    Type
REMARK                         _______ _______ _______ _____ _____    ______ ____
ROOT
ATOM      1  O   UNL     1       7.983  -3.064  24.672  0.00  0.00    -0.284 OA
ENDROOT
BRANCH   1   2
ATOM      2  P   UNL     1       8.170  -1.605  25.457  0.00  0.00    +0.462 P 
ATOM      3  O   UNL     1       8.938  -1.891  26.751  0.00  0.00    -0.228 OA
BRANCH   2   4
ATOM      4  N   UNL     1       6.649  -1.904  26.331  0.00  0.00    -0.199 NA
ATOM      5  H   UNL     1       6.391  -2.875  26.211  0.00  0.00    +0.135 HD
BRANCH   4   7
ATOM      6  C   UNL     1       4.247  -1.510  26.540  0.00  0.00    +0.036 C 
ATOM      7  C   UNL     1       5.565  -0.973  25.984  0.00  0.00    +0.171 C 
BRANCH   7   8
ATOM      8  C   UNL     1       5.801   0.444  26.548  0.00  0.00    +0.325 C 
ATOM      9  O   UNL     1       6.045   0.685  27.723  0.00  0.00    -0.249 OA
BRANCH   8  10
ATOM     10  O   UNL     1       5.585   1.411  25.598  0.00  0.00    -0.461 OA
BRANCH  10  11
ATOM     11  C   UNL     1       6.749   1.812  24.829  0.00  0.00    +0.170 C 
ATOM     12  C   UNL     1       7.102   3.254  25.175  0.00  0.00    +0.052 C 
ATOM     13  C   UNL     1       6.434   1.657  23.347  0.00  0.00    +0.052 C 
ENDBRANCH  10  11
ENDBRANCH   8  10
ENDBRANCH   7   8
ENDBRANCH   4   7
ENDBRANCH   2   4
BRANCH   2  14
ATOM     14  O   UNL     1       9.648  -1.314  24.607  0.00  0.00    -0.413 OA
BRANCH  14  15
ATOM     15  C   UNL     1       9.828  -0.191  23.853  0.00  0.00    +0.131 A 
ATOM     16  C   UNL     1       9.609  -0.132  22.482  0.00  0.00    +0.046 A 
ATOM     17  C   UNL     1       9.851   1.062  21.796  0.00  0.00    +0.004 A 
ATOM     18  C   UNL     1      10.292   2.194  22.483  0.00  0.00    +0.000 A 
ATOM     19  C   UNL     1      10.524   2.127  23.855  0.00  0.00    +0.004 A 
ATOM     20  C   UNL     1      10.303   0.931  24.536  0.00  0.00    +0.046 A 
ENDBRANCH  14  15
ENDBRANCH   2  14
ENDBRANCH   1   2
BRANCH   1  21
ATOM     21  C   UNL     1       7.326  -3.022  23.417  0.00  0.00    +0.206 C 
BRANCH  21  22
ATOM     22  C   UNL     1       7.178  -4.398  22.758  0.00  0.00    +0.178 C 
ATOM     23  O   UNL     1       7.178  -5.405  23.799  0.00  0.00    -0.347 OA
ATOM     24  C   UNL     1       5.840  -5.939  23.907  0.00  0.00    +0.249 C 
ATOM     25  C   UNL     1       4.903  -5.098  23.017  0.00  0.00    +0.179 C 
ATOM     26  C   UNL     1       4.147  -3.938  23.646  0.00  0.00    +0.054 C 
ATOM     27  F   UNL     1       3.954  -5.906  22.453  0.00  0.00    -0.235 F 
ATOM     28  C   UNL     1       5.902  -4.640  21.950  0.00  0.00    +0.186 C 
BRANCH  24  29
ATOM     29  N   UNL     1       5.513  -6.167  25.315  0.00  0.00    -0.256 N 
ATOM     30  C   UNL     1       4.531  -7.046  25.719  0.00  0.00    +0.310 C 
ATOM     31  O   UNL     1       3.865  -7.769  24.980  0.00  0.00    -0.252 OA
ATOM     32  N   UNL     1       4.276  -7.062  27.067  0.00  0.00    -0.240 N 
ATOM     33  H   UNL     1       3.528  -7.676  27.360  0.00  0.00    +0.159 HD
ATOM     34  C   UNL     1       4.703  -6.160  28.003  0.00  0.00    +0.222 C 
ATOM     35  O   UNL     1       4.256  -6.168  29.146  0.00  0.00    -0.275 OA
ATOM     36  C   UNL     1       5.664  -5.118  27.523  0.00  0.00    +0.115 C 
ATOM     37  C   UNL     1       6.424  -5.636  26.320  0.00  0.00    +0.121 C 
ENDBRANCH  24  29
BRANCH  28  38
ATOM     38  O   UNL     1       6.141  -5.740  21.041  0.00  0.00    -0.386 OA
ATOM     39  H   UNL     1       5.345  -6.300  21.028  0.00  0.00    +0.210 HD
ENDBRANCH  28  38
ENDBRANCH  21  22
ENDBRANCH   1  21
TORSDOF 12
ENDMDL
MODEL 8
REMARK VINA RESULT:      -6.8      3.181      5.806
REMARK  Name = 
REMARK  16 active torsions:
REMARK  status: ('A' for Active; 'I' for Inactive)
REMARK    1  A    between atoms: C_1  and  C_2
REMARK    2  A    between atoms: C_2  and  C_4
REMARK    3  A    between atoms: C_2  and  N_10
REMARK    4  A    between atoms: C_4  and  O_6
REMARK    5  A    between atoms: O_6  and  C_7
REMARK    6  A    between atoms: C_7  and  C_8
REMARK    7  A    between atoms: C_7  and  C_9
REMARK    8  A    between atoms: N_10  and  P_11
REMARK    9  A    between atoms: P_11  and  O_13
REMARK   10  A    between atoms: P_11  and  O_34
REMARK   11  A    between atoms: O_13  and  C_14
REMARK   12  A    between atoms: C_14  and  C_15
REMARK   13  A    between atoms: C_17  and  O_33
REMARK   14  A    between atoms: C_19  and  C_31
REMARK   15  A    between atoms: C_20  and  N_23
REMARK   16  A    between atoms: O_34  and  C_35
REMARK                            x       y       z     vdW  Elec       q    Type
REMARK                         _______ _______ _______ _____ _____    ______ ____
ROOT
ATOM      1  O   UNL     1       7.682   2.064  22.361  0.00  0.00    -0.284 OA
ENDROOT
BRANCH   1   2
ATOM      2  P   UNL     1       7.480   3.529  23.131  0.00  0.00    +0.462 P 
ATOM      3  O   UNL     1       6.626   3.265  24.375  0.00  0.00    -0.228 OA
BRANCH   2   4
ATOM      4  N   UNL     1       5.986   3.789  22.199  0.00  0.00    -0.199 NA
ATOM      5  H   UNL     1       6.189   4.406  21.425  0.00  0.00    +0.135 HD
BRANCH   4   7
ATOM      6  C   UNL     1       4.550   5.703  22.691  0.00  0.00    +0.036 C 
ATOM      7  C   UNL     1       4.844   4.239  23.011  0.00  0.00    +0.171 C 
BRANCH   7   8
ATOM      8  C   UNL     1       3.570   3.408  22.749  0.00  0.00    +0.325 C 
ATOM      9  O   UNL     1       2.978   2.767  23.608  0.00  0.00    -0.249 OA
BRANCH   8  10
ATOM     10  O   UNL     1       3.250   3.376  21.415  0.00  0.00    -0.461 OA
BRANCH  10  11
ATOM     11  C   UNL     1       1.853   3.607  21.095  0.00  0.00    +0.170 C 
ATOM     12  C   UNL     1       1.312   2.406  20.329  0.00  0.00    +0.052 C 
ATOM     13  C   UNL     1       1.744   4.885  20.273  0.00  0.00    +0.052 C 
ENDBRANCH  10  11
ENDBRANCH   8  10
ENDBRANCH   7   8
ENDBRANCH   4   7
ENDBRANCH   2   4
BRANCH   2  14
ATOM     14  O   UNL     1       8.933   3.277  24.035  0.00  0.00    -0.413 OA
BRANCH  14  15
ATOM     15  C   UNL     1      10.013   4.097  23.892  0.00  0.00    +0.131 A 
ATOM     16  C   UNL     1      11.234   3.691  23.367  0.00  0.00    +0.046 A 
ATOM     17  C   UNL     1      12.290   4.604  23.290  0.00  0.00    +0.004 A 
ATOM     18  C   UNL     1      12.117   5.921  23.720  0.00  0.00    +0.000 A 
ATOM     19  C   UNL     1      10.897   6.320  24.259  0.00  0.00    +0.004 A 
ATOM     20  C   UNL     1       9.850   5.405  24.355  0.00  0.00    +0.046 A 
ENDBRANCH  14  15
ENDBRANCH   2  14
ENDBRANCH   1   2
BRANCH   1  21
ATOM     21  C   UNL     1       7.029   0.951  22.948  0.00  0.00    +0.206 C 
BRANCH  21  22
ATOM     22  C   UNL     1       7.832   0.298  24.078  0.00  0.00    +0.178 C 
ATOM     23  O   UNL     1       7.260  -1.004  24.350  0.00  0.00    -0.347 OA
ATOM     24  C   UNL     1       8.183  -2.009  23.875  0.00  0.00    +0.249 C 
ATOM     25  C   UNL     1       9.313  -1.307  23.095  0.00  0.00    +0.179 C 
ATOM     26  C   UNL     1       9.182  -1.171  21.586  0.00  0.00    +0.054 C 
ATOM     27  F   UNL     1      10.497  -1.956  23.315  0.00  0.00    -0.235 F 
ATOM     28  C   UNL     1       9.318   0.048  23.810  0.00  0.00    +0.186 C 
BRANCH  24  29
ATOM     29  N   UNL     1       7.439  -3.111  23.265  0.00  0.00    -0.256 N 
ATOM     30  C   UNL     1       7.847  -4.426  23.355  0.00  0.00    +0.310 C 
ATOM     31  O   UNL     1       8.820  -4.835  23.985  0.00  0.00    -0.252 OA
ATOM     32  N   UNL     1       7.098  -5.323  22.637  0.00  0.00    -0.240 N 
ATOM     33  H   UNL     1       7.420  -6.281  22.669  0.00  0.00    +0.159 HD
ATOM     34  C   UNL     1       6.164  -5.044  21.677  0.00  0.00    +0.222 C 
ATOM     35  O   UNL     1       5.696  -5.930  20.966  0.00  0.00    -0.275 OA
ATOM     36  C   UNL     1       5.828  -3.598  21.485  0.00  0.00    +0.115 C 
ATOM     37  C   UNL     1       6.099  -2.835  22.764  0.00  0.00    +0.121 C 
ENDBRANCH  24  29
BRANCH  28  38
ATOM     38  O   UNL     1       9.989  -0.106  25.082  0.00  0.00    -0.386 OA
ATOM     39  H   UNL     1      10.508  -0.929  25.053  0.00  0.00    +0.210 HD
ENDBRANCH  28  38
ENDBRANCH  21  22
ENDBRANCH   1  21
TORSDOF 12
ENDMDL
MODEL 9
REMARK VINA RESULT:      -6.7      2.769      4.657
REMARK  Name = 
REMARK  16 active torsions:
REMARK  status: ('A' for Active; 'I' for Inactive)
REMARK    1  A    between atoms: C_1  and  C_2
REMARK    2  A    between atoms: C_2  and  C_4
REMARK    3  A    between atoms: C_2  and  N_10
REMARK    4  A    between atoms: C_4  and  O_6
REMARK    5  A    between atoms: O_6  and  C_7
REMARK    6  A    between atoms: C_7  and  C_8
REMARK    7  A    between atoms: C_7  and  C_9
REMARK    8  A    between atoms: N_10  and  P_11
REMARK    9  A    between atoms: P_11  and  O_13
REMARK   10  A    between atoms: P_11  and  O_34
REMARK   11  A    between atoms: O_13  and  C_14
REMARK   12  A    between atoms: C_14  and  C_15
REMARK   13  A    between atoms: C_17  and  O_33
REMARK   14  A    between atoms: C_19  and  C_31
REMARK   15  A    between atoms: C_20  and  N_23
REMARK   16  A    between atoms: O_34  and  C_35
REMARK                            x       y       z     vdW  Elec       q    Type
REMARK                         _______ _______ _______ _____ _____    ______ ____
ROOT
ATOM      1  O   UNL     1       8.657   1.876  23.869  0.00  0.00    -0.284 OA
ENDROOT
BRANCH   1   2
ATOM      2  P   UNL     1       7.249   2.564  23.300  0.00  0.00    +0.462 P 
ATOM      3  O   UNL     1       6.932   1.889  21.962  0.00  0.00    -0.228 OA
BRANCH   2   4
ATOM      4  N   UNL     1       8.218   3.773  22.424  0.00  0.00    -0.199 NA
ATOM      5  H   UNL     1       9.157   3.416  22.310  0.00  0.00    +0.135 HD
BRANCH   4   7
ATOM      6  C   UNL     1       6.896   5.269  23.832  0.00  0.00    +0.036 C 
ATOM      7  C   UNL     1       8.181   5.117  23.020  0.00  0.00    +0.171 C 
BRANCH   7   8
ATOM      8  C   UNL     1       9.387   5.386  23.945  0.00  0.00    +0.325 C 
ATOM      9  O   UNL     1       9.339   5.343  25.168  0.00  0.00    -0.249 OA
BRANCH   8  10
ATOM     10  O   UNL     1      10.489   5.795  23.237  0.00  0.00    -0.461 OA
BRANCH  10  11
ATOM     11  C   UNL     1      11.731   5.112  23.549  0.00  0.00    +0.170 C 
ATOM     12  C   UNL     1      12.831   5.634  22.633  0.00  0.00    +0.052 C 
ATOM     13  C   UNL     1      11.524   3.614  23.370  0.00  0.00    +0.052 C 
ENDBRANCH  10  11
ENDBRANCH   8  10
ENDBRANCH   7   8
ENDBRANCH   4   7
ENDBRANCH   2   4
BRANCH   2  14
ATOM     14  O   UNL     1       6.307   1.390  24.152  0.00  0.00    -0.413 OA
BRANCH  14  15
ATOM     15  C   UNL     1       5.174   1.738  24.828  0.00  0.00    +0.131 A 
ATOM     16  C   UNL     1       4.304   2.742  24.421  0.00  0.00    +0.046 A 
ATOM     17  C   UNL     1       3.184   3.041  25.203  0.00  0.00    +0.004 A 
ATOM     18  C   UNL     1       2.929   2.328  26.375  0.00  0.00    +0.000 A 
ATOM     19  C   UNL     1       3.812   1.332  26.787  0.00  0.00    +0.004 A 
ATOM     20  C   UNL     1       4.940   1.047  26.019  0.00  0.00    +0.046 A 
ENDBRANCH  14  15
ENDBRANCH   2  14
ENDBRANCH   1   2
BRANCH   1  21
ATOM     21  C   UNL     1       8.570   0.528  24.294  0.00  0.00    +0.206 C 
BRANCH  21  22
ATOM     22  C   UNL     1       9.475  -0.423  23.503  0.00  0.00    +0.178 C 
ATOM     23  O   UNL     1       9.886  -1.498  24.381  0.00  0.00    -0.347 OA
ATOM     24  C   UNL     1       9.207  -2.704  23.965  0.00  0.00    +0.249 C 
ATOM     25  C   UNL     1       8.171  -2.334  22.884  0.00  0.00    +0.179 C 
ATOM     26  C   UNL     1       6.739  -2.056  23.311  0.00  0.00    +0.054 C 
ATOM     27  F   UNL     1       8.101  -3.333  21.952  0.00  0.00    -0.235 F 
ATOM     28  C   UNL     1       8.855  -1.103  22.280  0.00  0.00    +0.186 C 
BRANCH  24  29
ATOM     29  N   UNL     1       8.803  -3.473  25.142  0.00  0.00    -0.256 N 
ATOM     30  C   UNL     1       9.340  -4.706  25.447  0.00  0.00    +0.310 C 
ATOM     31  O   UNL     1      10.236  -5.273  24.826  0.00  0.00    -0.252 OA
ATOM     32  N   UNL     1       8.775  -5.342  26.524  0.00  0.00    -0.240 N 
ATOM     33  H   UNL     1       9.140  -6.263  26.723  0.00  0.00    +0.159 HD
ATOM     34  C   UNL     1       7.614  -5.012  27.167  0.00  0.00    +0.222 C 
ATOM     35  O   UNL     1       7.107  -5.765  27.994  0.00  0.00    -0.275 OA
ATOM     36  C   UNL     1       6.957  -3.739  26.730  0.00  0.00    +0.115 C 
ATOM     37  C   UNL     1       7.994  -2.800  26.151  0.00  0.00    +0.121 C 
ENDBRANCH  24  29
BRANCH  28  38
ATOM     38  O   UNL     1       9.927  -1.549  21.417  0.00  0.00    -0.386 OA
ATOM     39  H   UNL     1      10.653  -0.904  21.477  0.00  0.00    +0.210 HD
ENDBRANCH  28  38
ENDBRANCH  21  22
ENDBRANCH   1  21
TORSDOF 12
ENDMDL
