MODEL 1
REMARK VINA RESULT:      -7.4      0.000      0.000
REMARK  Name = 
REMARK  7 active torsions:
REMARK  status: ('A' for Active; 'I' for Inactive)
REMARK    1  A    between atoms: C_1  and  N_2
REMARK    2  A    between atoms: C_3  and  C_8
REMARK    3  A    between atoms: C_8  and  N_9
REMARK    4  A    between atoms: C_12  and  C_26
REMARK    5  A    between atoms: C_13  and  O_16
REMARK    6  A    between atoms: O_16  and  C_17
REMARK    7  A    between atoms: C_21  and  C_23
REMARK                            x       y       z     vdW  Elec       q    Type
REMARK                         _______ _______ _______ _____ _____    ______ ____
ROOT
ATOM      1  N   UNL     1       6.755  -1.468  23.292  0.00  0.00    -0.305 N 
ATOM      2  C   UNL     1       5.688  -2.281  23.668  0.00  0.00    +0.295 A 
ATOM      3  O   UNL     1       4.901  -1.974  24.562  0.00  0.00    -0.264 OA
ATOM      4  C   UNL     1       5.536  -3.572  22.899  0.00  0.00    +0.204 A 
ATOM      5  C   UNL     1       6.657  -4.086  22.345  0.00  0.00    +0.104 A 
ATOM      6  C   UNL     1       7.863  -3.276  22.254  0.00  0.00    +0.034 A 
ATOM      7  C   UNL     1       7.851  -1.996  22.640  0.00  0.00    +0.090 A 
ENDROOT
BRANCH   5   8
ATOM      8  C   UNL     1       6.700  -5.466  21.757  0.00  0.00    +0.421 C 
ATOM      9  F   UNL     1       6.528  -6.435  22.692  0.00  0.00    -0.166 F 
ATOM     10  F   UNL     1       7.883  -5.714  21.137  0.00  0.00    -0.166 F 
ATOM     11  F   UNL     1       5.736  -5.668  20.817  0.00  0.00    -0.166 F 
ENDBRANCH   5   8
BRANCH   1  12
ATOM     12  C   UNL     1       6.779  -0.074  23.752  0.00  0.00    +0.201 C 
BRANCH  12  20
ATOM     13  C   UNL     1       8.740   1.863  22.197  0.00  0.00    +0.155 C 
ATOM     14  N   UNL     1       8.969   1.166  23.441  0.00  0.00    -0.281 N 
ATOM     15  C   UNL     1      10.096   1.390  24.197  0.00  0.00    +0.344 A 
ATOM     16  O   UNL     1      11.051   2.099  23.938  0.00  0.00    -0.245 OA
ATOM     17  N   UNL     1       9.898   0.671  25.366  0.00  0.00    -0.227 N 
ATOM     18  H   UNL     1      10.507   0.688  26.174  0.00  0.00    +0.194 HD
ATOM     19  N   UNL     1       8.678   0.053  25.353  0.00  0.00    -0.155 NA
ATOM     20  C   UNL     1       8.172   0.369  24.186  0.00  0.00    +0.154 A 
ENDBRANCH  12  20
ENDBRANCH   1  12
BRANCH   4  21
ATOM     21  O   UNL     1       4.342  -4.290  22.871  0.00  0.00    -0.450 OA
BRANCH  21  22
ATOM     22  C   UNL     1       4.012  -5.290  23.766  0.00  0.00    +0.131 A 
ATOM     23  C   UNL     1       4.503  -5.475  25.060  0.00  0.00    +0.065 A 
ATOM     24  C   UNL     1       4.178  -6.622  25.802  0.00  0.00    +0.057 A 
ATOM     25  C   UNL     1       3.261  -7.542  25.294  0.00  0.00    +0.039 A 
ATOM     26  C   UNL     1       2.693  -7.313  24.045  0.00  0.00    +0.046 A 
ATOM     27 CL   UNL     1       1.521  -8.414  23.434  0.00  0.00    -0.083 Cl
ATOM     28  C   UNL     1       3.074  -6.206  23.278  0.00  0.00    +0.066 A 
BRANCH  24  29
ATOM     29  C   UNL     1       4.828  -6.863  27.062  0.00  0.00    +0.099 C 
ATOM     30  N   UNL     1       5.344  -7.084  28.074  0.00  0.00    -0.191 NA
ENDBRANCH  24  29
ENDBRANCH  21  22
ENDBRANCH   4  21
TORSDOF 6
ENDMDL
MODEL 2
REMARK VINA RESULT:      -7.3      3.229      4.626
REMARK  Name = 
REMARK  7 active torsions:
REMARK  status: ('A' for Active; 'I' for Inactive)
REMARK    1  A    between atoms: C_1  and  N_2
REMARK    2  A    between atoms: C_3  and  C_8
REMARK    3  A    between atoms: C_8  and  N_9
REMARK    4  A    between atoms: C_12  and  C_26
REMARK    5  A    between atoms: C_13  and  O_16
REMARK    6  A    between atoms: O_16  and  C_17
REMARK    7  A    between atoms: C_21  and  C_23
REMARK                            x       y       z     vdW  Elec       q    Type
REMARK                         _______ _______ _______ _____ _____    ______ ____
ROOT
ATOM      1  N   UNL     1       8.746   2.011  24.430  0.00  0.00    -0.305 N 
ATOM      2  C   UNL     1       7.787   1.007  24.310  0.00  0.00    +0.295 A 
ATOM      3  O   UNL     1       6.701   1.055  24.884  0.00  0.00    -0.264 OA
ATOM      4  C   UNL     1       8.151  -0.152  23.412  0.00  0.00    +0.204 A 
ATOM      5  C   UNL     1       9.469  -0.409  23.255  0.00  0.00    +0.104 A 
ATOM      6  C   UNL     1      10.460   0.565  23.688  0.00  0.00    +0.034 A 
ATOM      7  C   UNL     1      10.077   1.752  24.170  0.00  0.00    +0.090 A 
ENDROOT
BRANCH   5   8
ATOM      8  C   UNL     1       9.967  -1.657  22.587  0.00  0.00    +0.421 C 
ATOM      9  F   UNL     1       9.314  -1.923  21.427  0.00  0.00    -0.166 F 
ATOM     10  F   UNL     1       9.826  -2.748  23.384  0.00  0.00    -0.166 F 
ATOM     11  F   UNL     1      11.291  -1.593  22.273  0.00  0.00    -0.166 F 
ENDBRANCH   5   8
BRANCH   1  12
ATOM     12  C   UNL     1       8.351   3.303  25.005  0.00  0.00    +0.201 C 
BRANCH  12  20
ATOM     13  C   UNL     1       6.137   4.102  22.890  0.00  0.00    +0.155 C 
ATOM     14  N   UNL     1       7.444   4.685  23.083  0.00  0.00    -0.281 N 
ATOM     15  C   UNL     1       7.839   5.813  22.402  0.00  0.00    +0.344 A 
ATOM     16  O   UNL     1       7.237   6.425  21.538  0.00  0.00    -0.245 OA
ATOM     17  N   UNL     1       9.067   6.155  22.947  0.00  0.00    -0.227 N 
ATOM     18  H   UNL     1       9.595   6.990  22.725  0.00  0.00    +0.194 HD
ATOM     19  N   UNL     1       9.407   5.294  23.953  0.00  0.00    -0.155 NA
ATOM     20  C   UNL     1       8.418   4.435  23.987  0.00  0.00    +0.154 A 
ENDBRANCH  12  20
ENDBRANCH   1  12
BRANCH   4  21
ATOM     21  O   UNL     1       7.195  -1.016  22.882  0.00  0.00    -0.450 OA
BRANCH  21  22
ATOM     22  C   UNL     1       6.880  -2.251  23.412  0.00  0.00    +0.131 A 
ATOM     23  C   UNL     1       6.864  -2.625  24.758  0.00  0.00    +0.065 A 
ATOM     24  C   UNL     1       6.659  -3.962  25.137  0.00  0.00    +0.057 A 
ATOM     25  C   UNL     1       6.353  -4.919  24.171  0.00  0.00    +0.039 A 
ATOM     26  C   UNL     1       6.270  -4.533  22.836  0.00  0.00    +0.046 A 
ATOM     27 CL   UNL     1       5.840  -5.697  21.645  0.00  0.00    -0.083 Cl
ATOM     28  C   UNL     1       6.546  -3.216  22.455  0.00  0.00    +0.066 A 
BRANCH  24  29
ATOM     29  C   UNL     1       6.811  -4.342  26.515  0.00  0.00    +0.099 C 
ATOM     30  N   UNL     1       6.951  -4.669  27.617  0.00  0.00    -0.191 NA
ENDBRANCH  24  29
ENDBRANCH  21  22
ENDBRANCH   4  21
TORSDOF 6
ENDMDL
MODEL 3
REMARK VINA RESULT:      -7.2      4.309      7.070
REMARK  Name = 
REMARK  7 active torsions:
REMARK  status: ('A' for Active; 'I' for Inactive)
REMARK    1  A    between atoms: C_1  and  N_2
REMARK    2  A    between atoms: C_3  and  C_8
REMARK    3  A    between atoms: C_8  and  N_9
REMARK    4  A    between atoms: C_12  and  C_26
REMARK    5  A    between atoms: C_13  and  O_16
REMARK    6  A    between atoms: O_16  and  C_17
REMARK    7  A    between atoms: C_21  and  C_23
REMARK                            x       y       z     vdW  Elec       q    Type
REMARK                         _______ _______ _______ _____ _____    ______ ____
ROOT
ATOM      1  N   UNL     1       8.392  -2.421  22.788  0.00  0.00    -0.305 N 
ATOM      2  C   UNL     1       7.305  -1.552  22.737  0.00  0.00    +0.295 A 
ATOM      3  O   UNL     1       6.148  -1.944  22.601  0.00  0.00    -0.264 OA
ATOM      4  C   UNL     1       7.625  -0.082  22.876  0.00  0.00    +0.204 A 
ATOM      5  C   UNL     1       8.862   0.309  22.498  0.00  0.00    +0.104 A 
ATOM      6  C   UNL     1       9.901  -0.683  22.261  0.00  0.00    +0.034 A 
ATOM      7  C   UNL     1       9.666  -1.978  22.492  0.00  0.00    +0.090 A 
ENDROOT
BRANCH   5   8
ATOM      8  C   UNL     1       9.238   1.756  22.363  0.00  0.00    +0.421 C 
ATOM      9  F   UNL     1       8.313   2.472  21.676  0.00  0.00    -0.166 F 
ATOM     10  F   UNL     1      10.424   1.912  21.718  0.00  0.00    -0.166 F 
ATOM     11  F   UNL     1       9.384   2.377  23.566  0.00  0.00    -0.166 F 
ENDBRANCH   5   8
BRANCH   1  12
ATOM     12  C   UNL     1       8.146  -3.854  22.990  0.00  0.00    +0.201 C 
BRANCH  12  20
ATOM     13  C   UNL     1       6.099  -4.163  25.383  0.00  0.00    +0.155 C 
ATOM     14  N   UNL     1       7.529  -4.364  25.395  0.00  0.00    -0.281 N 
ATOM     15  C   UNL     1       8.177  -4.872  26.498  0.00  0.00    +0.344 A 
ATOM     16  O   UNL     1       7.711  -5.149  27.587  0.00  0.00    -0.245 OA
ATOM     17  N   UNL     1       9.490  -5.061  26.092  0.00  0.00    -0.227 N 
ATOM     18  H   UNL     1      10.215  -5.501  26.642  0.00  0.00    +0.194 HD
ATOM     19  N   UNL     1       9.644  -4.717  24.777  0.00  0.00    -0.155 NA
ATOM     20  C   UNL     1       8.456  -4.301  24.414  0.00  0.00    +0.154 A 
ENDBRANCH  12  20
ENDBRANCH   1  12
BRANCH   4  21
ATOM     21  O   UNL     1       6.664   0.862  23.233  0.00  0.00    -0.450 OA
BRANCH  21  22
ATOM     22  C   UNL     1       6.332   1.184  24.534  0.00  0.00    +0.131 A 
ATOM     23  C   UNL     1       6.689   2.329  25.249  0.00  0.00    +0.065 A 
ATOM     24  C   UNL     1       6.394   2.452  26.616  0.00  0.00    +0.057 A 
ATOM     25  C   UNL     1       5.632   1.474  27.254  0.00  0.00    +0.039 A 
ATOM     26  C   UNL     1       5.189   0.376  26.522  0.00  0.00    +0.046 A 
ATOM     27 CL   UNL     1       4.204  -0.809  27.287  0.00  0.00    -0.083 Cl
ATOM     28  C   UNL     1       5.547   0.221  25.179  0.00  0.00    +0.066 A 
BRANCH  24  29
ATOM     29  C   UNL     1       6.916   3.566  27.360  0.00  0.00    +0.099 C 
ATOM     30  N   UNL     1       7.339   4.446  27.982  0.00  0.00    -0.191 NA
ENDBRANCH  24  29
ENDBRANCH  21  22
ENDBRANCH   4  21
TORSDOF 6
ENDMDL
MODEL 4
REMARK VINA RESULT:      -7.2      2.628      3.044
REMARK  Name = 
REMARK  7 active torsions:
REMARK  status: ('A' for Active; 'I' for Inactive)
REMARK    1  A    between atoms: C_1  and  N_2
REMARK    2  A    between atoms: C_3  and  C_8
REMARK    3  A    between atoms: C_8  and  N_9
REMARK    4  A    between atoms: C_12  and  C_26
REMARK    5  A    between atoms: C_13  and  O_16
REMARK    6  A    between atoms: O_16  and  C_17
REMARK    7  A    between atoms: C_21  and  C_23
REMARK                            x       y       z     vdW  Elec       q    Type
REMARK                         _______ _______ _______ _____ _____    ______ ____
ROOT
ATOM      1  N   UNL     1       8.622  -2.065  23.541  0.00  0.00    -0.305 N 
ATOM      2  C   UNL     1       8.665  -3.236  24.293  0.00  0.00    +0.295 A 
ATOM      3  O   UNL     1       9.441  -3.394  25.234  0.00  0.00    -0.264 OA
ATOM      4  C   UNL     1       7.683  -4.314  23.898  0.00  0.00    +0.204 A 
ATOM      5  C   UNL     1       7.263  -4.313  22.613  0.00  0.00    +0.104 A 
ATOM      6  C   UNL     1       7.521  -3.160  21.762  0.00  0.00    +0.034 A 
ATOM      7  C   UNL     1       8.100  -2.064  22.263  0.00  0.00    +0.090 A 
ENDROOT
BRANCH   5   8
ATOM      8  C   UNL     1       6.478  -5.448  22.026  0.00  0.00    +0.421 C 
ATOM      9  F   UNL     1       7.143  -6.630  22.091  0.00  0.00    -0.166 F 
ATOM     10  F   UNL     1       6.175  -5.231  20.719  0.00  0.00    -0.166 F 
ATOM     11  F   UNL     1       5.287  -5.646  22.657  0.00  0.00    -0.166 F 
ENDBRANCH   5   8
BRANCH   1  12
ATOM     12  C   UNL     1       9.298  -0.867  24.055  0.00  0.00    +0.201 C 
BRANCH  12  20
ATOM     13  C   UNL     1       6.956   1.260  24.014  0.00  0.00    +0.155 C 
ATOM     14  N   UNL     1       8.098   1.167  23.134  0.00  0.00    -0.281 N 
ATOM     15  C   UNL     1       8.371   2.140  22.200  0.00  0.00    +0.344 A 
ATOM     16  O   UNL     1       7.716   3.128  21.925  0.00  0.00    -0.245 OA
ATOM     17  N   UNL     1       9.599   1.789  21.660  0.00  0.00    -0.227 N 
ATOM     18  H   UNL     1      10.128   2.344  21.000  0.00  0.00    +0.194 HD
ATOM     19  N   UNL     1      10.087   0.662  22.260  0.00  0.00    -0.155 NA
ATOM     20  C   UNL     1       9.156   0.326  23.118  0.00  0.00    +0.154 A 
ENDBRANCH  12  20
ENDBRANCH   1  12
BRANCH   4  21
ATOM     21  O   UNL     1       7.326  -5.353  24.756  0.00  0.00    -0.450 OA
BRANCH  21  22
ATOM     22  C   UNL     1       6.574  -5.193  25.903  0.00  0.00    +0.131 A 
ATOM     23  C   UNL     1       6.855  -5.675  27.184  0.00  0.00    +0.065 A 
ATOM     24  C   UNL     1       5.921  -5.552  28.226  0.00  0.00    +0.057 A 
ATOM     25  C   UNL     1       4.741  -4.839  28.021  0.00  0.00    +0.039 A 
ATOM     26  C   UNL     1       4.499  -4.272  26.774  0.00  0.00    +0.046 A 
ATOM     27 CL   UNL     1       3.071  -3.345  26.528  0.00  0.00    -0.083 Cl
ATOM     28  C   UNL     1       5.398  -4.458  25.718  0.00  0.00    +0.066 A 
BRANCH  24  29
ATOM     29  C   UNL     1       6.170  -6.201  29.485  0.00  0.00    +0.099 C 
ATOM     30  N   UNL     1       6.375  -6.747  30.485  0.00  0.00    -0.191 NA
ENDBRANCH  24  29
ENDBRANCH  21  22
ENDBRANCH   4  21
TORSDOF 6
ENDMDL
MODEL 5
REMARK VINA RESULT:      -7.2      5.010      8.045
REMARK  Name = 
REMARK  7 active torsions:
REMARK  status: ('A' for Active; 'I' for Inactive)
REMARK    1  A    between atoms: C_1  and  N_2
REMARK    2  A    between atoms: C_3  and  C_8
REMARK    3  A    between atoms: C_8  and  N_9
REMARK    4  A    between atoms: C_12  and  C_26
REMARK    5  A    between atoms: C_13  and  O_16
REMARK    6  A    between atoms: O_16  and  C_17
REMARK    7  A    between atoms: C_21  and  C_23
REMARK                            x       y       z     vdW  Elec       q    Type
REMARK                         _______ _______ _______ _____ _____    ______ ____
ROOT
ATOM      1  N   UNL     1       8.291  -2.239  22.960  0.00  0.00    -0.305 N 
ATOM      2  C   UNL     1       7.786  -1.286  23.841  0.00  0.00    +0.295 A 
ATOM      3  O   UNL     1       6.806  -1.494  24.554  0.00  0.00    -0.264 OA
ATOM      4  C   UNL     1       8.526   0.030  23.888  0.00  0.00    +0.204 A 
ATOM      5  C   UNL     1       9.207   0.385  22.775  0.00  0.00    +0.104 A 
ATOM      6  C   UNL     1       9.446  -0.593  21.723  0.00  0.00    +0.034 A 
ATOM      7  C   UNL     1       9.068  -1.865  21.882  0.00  0.00    +0.090 A 
ENDROOT
BRANCH   5   8
ATOM      8  C   UNL     1       9.789   1.756  22.595  0.00  0.00    +0.421 C 
ATOM      9  F   UNL     1      10.568   2.132  23.641  0.00  0.00    -0.166 F 
ATOM     10  F   UNL     1       8.824   2.701  22.456  0.00  0.00    -0.166 F 
ATOM     11  F   UNL     1      10.570   1.854  21.484  0.00  0.00    -0.166 F 
ENDBRANCH   5   8
BRANCH   1  12
ATOM     12  C   UNL     1       7.844  -3.632  23.090  0.00  0.00    +0.201 C 
BRANCH  12  20
ATOM     13  C   UNL     1       6.027  -4.773  25.416  0.00  0.00    +0.155 C 
ATOM     14  N   UNL     1       7.469  -4.695  25.361  0.00  0.00    -0.281 N 
ATOM     15  C   UNL     1       8.261  -5.268  26.330  0.00  0.00    +0.344 A 
ATOM     16  O   UNL     1       7.915  -5.830  27.353  0.00  0.00    -0.245 OA
ATOM     17  N   UNL     1       9.560  -5.121  25.869  0.00  0.00    -0.227 N 
ATOM     18  H   UNL     1      10.385  -5.510  26.309  0.00  0.00    +0.194 HD
ATOM     19  N   UNL     1       9.574  -4.513  24.645  0.00  0.00    -0.155 NA
ATOM     20  C   UNL     1       8.311  -4.271  24.393  0.00  0.00    +0.154 A 
ENDBRANCH  12  20
ENDBRANCH   1  12
BRANCH   4  21
ATOM     21  O   UNL     1       8.407   0.918  24.955  0.00  0.00    -0.450 OA
BRANCH  21  22
ATOM     22  C   UNL     1       7.468   1.928  25.028  0.00  0.00    +0.131 A 
ATOM     23  C   UNL     1       6.141   1.896  24.593  0.00  0.00    +0.065 A 
ATOM     24  C   UNL     1       5.345   3.053  24.607  0.00  0.00    +0.057 A 
ATOM     25  C   UNL     1       5.839   4.230  25.167  0.00  0.00    +0.039 A 
ATOM     26  C   UNL     1       7.128   4.242  25.692  0.00  0.00    +0.046 A 
ATOM     27 CL   UNL     1       7.726   5.675  26.433  0.00  0.00    -0.083 Cl
ATOM     28  C   UNL     1       7.943   3.108  25.611  0.00  0.00    +0.066 A 
BRANCH  24  29
ATOM     29  C   UNL     1       4.041   3.027  24.002  0.00  0.00    +0.099 C 
ATOM     30  N   UNL     1       2.985   2.983  23.530  0.00  0.00    -0.191 NA
ENDBRANCH  24  29
ENDBRANCH  21  22
ENDBRANCH   4  21
TORSDOF 6
ENDMDL
MODEL 6
REMARK VINA RESULT:      -7.2      4.978      8.568
REMARK  Name = 
REMARK  7 active torsions:
REMARK  status: ('A' for Active; 'I' for Inactive)
REMARK    1  A    between atoms: C_1  and  N_2
REMARK    2  A    between atoms: C_3  and  C_8
REMARK    3  A    between atoms: C_8  and  N_9
REMARK    4  A    between atoms: C_12  and  C_26
REMARK    5  A    between atoms: C_13  and  O_16
REMARK    6  A    between atoms: O_16  and  C_17
REMARK    7  A    between atoms: C_21  and  C_23
REMARK                            x       y       z     vdW  Elec       q    Type
REMARK                         _______ _______ _______ _____ _____    ______ ____
ROOT
ATOM      1  N   UNL     1       8.552  -1.314  25.382  0.00  0.00    -0.305 N 
ATOM      2  C   UNL     1       7.699  -0.264  25.051  0.00  0.00    +0.295 A 
ATOM      3  O   UNL     1       6.682  -0.007  25.691  0.00  0.00    -0.264 OA
ATOM      4  C   UNL     1       8.104   0.566  23.855  0.00  0.00    +0.204 A 
ATOM      5  C   UNL     1       8.872  -0.043  22.924  0.00  0.00    +0.104 A 
ATOM      6  C   UNL     1       9.507  -1.320  23.222  0.00  0.00    +0.034 A 
ATOM      7  C   UNL     1       9.402  -1.860  24.441  0.00  0.00    +0.090 A 
ENDROOT
BRANCH   5   8
ATOM      8  C   UNL     1       9.154   0.576  21.587  0.00  0.00    +0.421 C 
ATOM      9  F   UNL     1       8.116   1.323  21.131  0.00  0.00    -0.166 F 
ATOM     10  F   UNL     1       9.418  -0.361  20.640  0.00  0.00    -0.166 F 
ATOM     11  F   UNL     1      10.237   1.402  21.607  0.00  0.00    -0.166 F 
ENDBRANCH   5   8
BRANCH   1  12
ATOM     12  C   UNL     1       8.414  -1.950  26.699  0.00  0.00    +0.201 C 
BRANCH  12  20
ATOM     13  C   UNL     1       5.689  -3.301  25.824  0.00  0.00    +0.155 C 
ATOM     14  N   UNL     1       6.910  -3.942  26.254  0.00  0.00    -0.281 N 
ATOM     15  C   UNL     1       7.065  -5.308  26.201  0.00  0.00    +0.344 A 
ATOM     16  O   UNL     1       6.247  -6.150  25.879  0.00  0.00    -0.245 OA
ATOM     17  N   UNL     1       8.389  -5.537  26.544  0.00  0.00    -0.227 N 
ATOM     18  H   UNL     1       8.854  -6.435  26.521  0.00  0.00    +0.194 HD
ATOM     19  N   UNL     1       9.042  -4.356  26.767  0.00  0.00    -0.155 NA
ATOM     20  C   UNL     1       8.119  -3.442  26.593  0.00  0.00    +0.154 A 
ENDBRANCH  12  20
ENDBRANCH   1  12
BRANCH   4  21
ATOM     21  O   UNL     1       7.603   1.846  23.628  0.00  0.00    -0.450 OA
BRANCH  21  22
ATOM     22  C   UNL     1       7.991   2.971  24.329  0.00  0.00    +0.131 A 
ATOM     23  C   UNL     1       7.463   3.457  25.527  0.00  0.00    +0.065 A 
ATOM     24  C   UNL     1       7.869   4.696  26.049  0.00  0.00    +0.057 A 
ATOM     25  C   UNL     1       8.898   5.406  25.432  0.00  0.00    +0.039 A 
ATOM     26  C   UNL     1       9.498   4.879  24.292  0.00  0.00    +0.046 A 
ATOM     27 CL   UNL     1      10.804   5.722  23.556  0.00  0.00    -0.083 Cl
ATOM     28  C   UNL     1       9.041   3.680  23.734  0.00  0.00    +0.066 A 
BRANCH  24  29
ATOM     29  C   UNL     1       7.190   5.244  27.192  0.00  0.00    +0.099 C 
ATOM     30  N   UNL     1       6.661   5.671  28.128  0.00  0.00    -0.191 NA
ENDBRANCH  24  29
ENDBRANCH  21  22
ENDBRANCH   4  21
TORSDOF 6
ENDMDL
MODEL 7
REMARK VINA RESULT:      -7.1      4.918      8.195
REMARK  Name = 
REMARK  7 active torsions:
REMARK  status: ('A' for Active; 'I' for Inactive)
REMARK    1  A    between atoms: C_1  and  N_2
REMARK    2  A    between atoms: C_3  and  C_8
REMARK    3  A    between atoms: C_8  and  N_9
REMARK    4  A    between atoms: C_12  and  C_26
REMARK    5  A    between atoms: C_13  and  O_16
REMARK    6  A    between atoms: O_16  and  C_17
REMARK    7  A    between atoms: C_21  and  C_23
REMARK                            x       y       z     vdW  Elec       q    Type
REMARK                         _______ _______ _______ _____ _____    ______ ____
ROOT
ATOM      1  N   UNL     1       7.542  -2.202  24.442  0.00  0.00    -0.305 N 
ATOM      2  C   UNL     1       7.495  -1.442  23.275  0.00  0.00    +0.295 A 
ATOM      3  O   UNL     1       6.886  -1.806  22.271  0.00  0.00    -0.264 OA
ATOM      4  C   UNL     1       8.228  -0.122  23.313  0.00  0.00    +0.204 A 
ATOM      5  C   UNL     1       9.261  -0.025  24.179  0.00  0.00    +0.104 A 
ATOM      6  C   UNL     1       9.446  -1.036  25.211  0.00  0.00    +0.034 A 
ATOM      7  C   UNL     1       8.554  -2.020  25.363  0.00  0.00    +0.090 A 
ENDROOT
BRANCH   5   8
ATOM      8  C   UNL     1      10.216   1.132  24.161  0.00  0.00    +0.421 C 
ATOM      9  F   UNL     1      11.374   0.861  24.815  0.00  0.00    -0.166 F 
ATOM     10  F   UNL     1       9.681   2.239  24.739  0.00  0.00    -0.166 F 
ATOM     11  F   UNL     1      10.569   1.503  22.899  0.00  0.00    -0.166 F 
ENDBRANCH   5   8
BRANCH   1  12
ATOM     12  C   UNL     1       6.602  -3.318  24.600  0.00  0.00    +0.201 C 
BRANCH  12  20
ATOM     13  C   UNL     1       5.292  -3.664  27.459  0.00  0.00    +0.155 C 
ATOM     14  N   UNL     1       6.445  -4.342  26.914  0.00  0.00    -0.281 N 
ATOM     15  C   UNL     1       7.059  -5.375  27.584  0.00  0.00    +0.344 A 
ATOM     16  O   UNL     1       6.806  -5.814  28.691  0.00  0.00    -0.245 OA
ATOM     17  N   UNL     1       8.012  -5.863  26.703  0.00  0.00    -0.227 N 
ATOM     18  H   UNL     1       8.585  -6.683  26.855  0.00  0.00    +0.194 HD
ATOM     19  N   UNL     1       7.967  -5.184  25.517  0.00  0.00    -0.155 NA
ATOM     20  C   UNL     1       7.030  -4.286  25.697  0.00  0.00    +0.154 A 
ENDBRANCH  12  20
ENDBRANCH   1  12
BRANCH   4  21
ATOM     21  O   UNL     1       7.965   0.906  22.410  0.00  0.00    -0.450 OA
BRANCH  21  22
ATOM     22  C   UNL     1       7.129   1.975  22.666  0.00  0.00    +0.131 A 
ATOM     23  C   UNL     1       5.882   1.954  23.295  0.00  0.00    +0.065 A 
ATOM     24  C   UNL     1       5.083   3.107  23.359  0.00  0.00    +0.057 A 
ATOM     25  C   UNL     1       5.580   4.324  22.894  0.00  0.00    +0.039 A 
ATOM     26  C   UNL     1       6.862   4.371  22.356  0.00  0.00    +0.046 A 
ATOM     27 CL   UNL     1       7.503   5.878  21.829  0.00  0.00    -0.083 Cl
ATOM     28  C   UNL     1       7.627   3.207  22.227  0.00  0.00    +0.066 A 
BRANCH  24  29
ATOM     29  C   UNL     1       3.740   3.015  23.865  0.00  0.00    +0.099 C 
ATOM     30  N   UNL     1       2.661   2.968  24.281  0.00  0.00    -0.191 NA
ENDBRANCH  24  29
ENDBRANCH  21  22
ENDBRANCH   4  21
TORSDOF 6
ENDMDL
MODEL 8
REMARK VINA RESULT:      -7.1      2.437      2.930
REMARK  Name = 
REMARK  7 active torsions:
REMARK  status: ('A' for Active; 'I' for Inactive)
REMARK    1  A    between atoms: C_1  and  N_2
REMARK    2  A    between atoms: C_3  and  C_8
REMARK    3  A    between atoms: C_8  and  N_9
REMARK    4  A    between atoms: C_12  and  C_26
REMARK    5  A    between atoms: C_13  and  O_16
REMARK    6  A    between atoms: O_16  and  C_17
REMARK    7  A    between atoms: C_21  and  C_23
REMARK                            x       y       z     vdW  Elec       q    Type
REMARK                         _______ _______ _______ _____ _____    ______ ____
ROOT
ATOM      1  N   UNL     1       7.677  -1.816  24.424  0.00  0.00    -0.305 N 
ATOM      2  C   UNL     1       7.972  -2.952  25.174  0.00  0.00    +0.295 A 
ATOM      3  O   UNL     1       8.525  -2.899  26.270  0.00  0.00    -0.264 OA
ATOM      4  C   UNL     1       7.556  -4.272  24.567  0.00  0.00    +0.204 A 
ATOM      5  C   UNL     1       7.459  -4.318  23.220  0.00  0.00    +0.104 A 
ATOM      6  C   UNL     1       7.465  -3.086  22.444  0.00  0.00    +0.034 A 
ATOM      7  C   UNL     1       7.485  -1.899  23.059  0.00  0.00    +0.090 A 
ENDROOT
BRANCH   5   8
ATOM      8  C   UNL     1       7.285  -5.608  22.473  0.00  0.00    +0.421 C 
ATOM      9  F   UNL     1       8.277  -6.497  22.732  0.00  0.00    -0.166 F 
ATOM     10  F   UNL     1       7.262  -5.415  21.128  0.00  0.00    -0.166 F 
ATOM     11  F   UNL     1       6.118  -6.240  22.779  0.00  0.00    -0.166 F 
ENDBRANCH   5   8
BRANCH   1  12
ATOM     12  C   UNL     1       7.745  -0.501  25.074  0.00  0.00    +0.201 C 
BRANCH  12  20
ATOM     13  C   UNL     1       7.905   2.263  23.540  0.00  0.00    +0.155 C 
ATOM     14  N   UNL     1       8.991   1.426  23.996  0.00  0.00    -0.281 N 
ATOM     15  C   UNL     1      10.302   1.838  23.917  0.00  0.00    +0.344 A 
ATOM     16  O   UNL     1      10.744   2.860  23.427  0.00  0.00    -0.245 OA
ATOM     17  N   UNL     1      11.030   0.858  24.573  0.00  0.00    -0.227 N 
ATOM     18  H   UNL     1      12.022   0.897  24.768  0.00  0.00    +0.194 HD
ATOM     19  N   UNL     1      10.201  -0.109  25.072  0.00  0.00    -0.155 NA
ATOM     20  C   UNL     1       9.005   0.269  24.694  0.00  0.00    +0.154 A 
ENDBRANCH  12  20
ENDBRANCH   1  12
BRANCH   4  21
ATOM     21  O   UNL     1       7.418  -5.433  25.325  0.00  0.00    -0.450 OA
BRANCH  21  22
ATOM     22  C   UNL     1       6.306  -5.742  26.083  0.00  0.00    +0.131 A 
ATOM     23  C   UNL     1       5.079  -6.240  25.637  0.00  0.00    +0.065 A 
ATOM     24  C   UNL     1       3.989  -6.374  26.512  0.00  0.00    +0.057 A 
ATOM     25  C   UNL     1       4.155  -6.119  27.873  0.00  0.00    +0.039 A 
ATOM     26  C   UNL     1       5.403  -5.716  28.340  0.00  0.00    +0.046 A 
ATOM     27 CL   UNL     1       5.631  -5.451  30.025  0.00  0.00    -0.083 Cl
ATOM     28  C   UNL     1       6.467  -5.514  27.454  0.00  0.00    +0.066 A 
BRANCH  24  29
ATOM     29  C   UNL     1       2.697  -6.732  25.992  0.00  0.00    +0.099 C 
ATOM     30  N   UNL     1       1.663  -7.047  25.578  0.00  0.00    -0.191 NA
ENDBRANCH  24  29
ENDBRANCH  21  22
ENDBRANCH   4  21
TORSDOF 6
ENDMDL
MODEL 9
REMARK VINA RESULT:      -7.0      4.868      7.151
REMARK  Name = 
REMARK  7 active torsions:
REMARK  status: ('A' for Active; 'I' for Inactive)
REMARK    1  A    between atoms: C_1  and  N_2
REMARK    2  A    between atoms: C_3  and  C_8
REMARK    3  A    between atoms: C_8  and  N_9
REMARK    4  A    between atoms: C_12  and  C_26
REMARK    5  A    between atoms: C_13  and  O_16
REMARK    6  A    between atoms: O_16  and  C_17
REMARK    7  A    between atoms: C_21  and  C_23
REMARK                            x       y       z     vdW  Elec       q    Type
REMARK                         _______ _______ _______ _____ _____    ______ ____
ROOT
ATOM      1  N   UNL     1       8.402  -2.316  22.811  0.00  0.00    -0.305 N 
ATOM      2  C   UNL     1       7.350  -1.409  22.917  0.00  0.00    +0.295 A 
ATOM      3  O   UNL     1       6.171  -1.754  22.898  0.00  0.00    -0.264 OA
ATOM      4  C   UNL     1       7.741   0.042  23.075  0.00  0.00    +0.204 A 
ATOM      5  C   UNL     1       8.943   0.406  22.575  0.00  0.00    +0.104 A 
ATOM      6  C   UNL     1       9.909  -0.611  22.184  0.00  0.00    +0.034 A 
ATOM      7  C   UNL     1       9.651  -1.906  22.390  0.00  0.00    +0.090 A 
ENDROOT
BRANCH   5   8
ATOM      8  C   UNL     1       9.358   1.843  22.453  0.00  0.00    +0.421 C 
ATOM      9  F   UNL     1       8.388   2.620  21.910  0.00  0.00    -0.166 F 
ATOM     10  F   UNL     1      10.465   1.985  21.678  0.00  0.00    -0.166 F 
ATOM     11  F   UNL     1       9.670   2.404  23.654  0.00  0.00    -0.166 F 
ENDBRANCH   5   8
BRANCH   1  12
ATOM     12  C   UNL     1       8.123  -3.748  22.985  0.00  0.00    +0.201 C 
BRANCH  12  20
ATOM     13  C   UNL     1       6.120  -4.244  25.384  0.00  0.00    +0.155 C 
ATOM     14  N   UNL     1       7.557  -4.384  25.373  0.00  0.00    -0.281 N 
ATOM     15  C   UNL     1       8.240  -4.909  26.446  0.00  0.00    +0.344 A 
ATOM     16  O   UNL     1       7.799  -5.251  27.528  0.00  0.00    -0.245 OA
ATOM     17  N   UNL     1       9.554  -5.024  26.019  0.00  0.00    -0.227 N 
ATOM     18  H   UNL     1      10.304  -5.456  26.543  0.00  0.00    +0.194 HD
ATOM     19  N   UNL     1       9.677  -4.620  24.719  0.00  0.00    -0.155 NA
ATOM     20  C   UNL     1       8.469  -4.240  24.386  0.00  0.00    +0.154 A 
ENDBRANCH  12  20
ENDBRANCH   1  12
BRANCH   4  21
ATOM     21  O   UNL     1       6.864   1.003  23.574  0.00  0.00    -0.450 OA
BRANCH  21  22
ATOM     22  C   UNL     1       6.613   1.207  24.917  0.00  0.00    +0.131 A 
ATOM     23  C   UNL     1       6.060   0.307  25.831  0.00  0.00    +0.065 A 
ATOM     24  C   UNL     1       5.735   0.708  27.137  0.00  0.00    +0.057 A 
ATOM     25  C   UNL     1       6.071   1.988  27.575  0.00  0.00    +0.039 A 
ATOM     26  C   UNL     1       6.712   2.859  26.699  0.00  0.00    +0.046 A 
ATOM     27 CL   UNL     1       7.178   4.421  27.248  0.00  0.00    -0.083 Cl
ATOM     28  C   UNL     1       6.969   2.481  25.377  0.00  0.00    +0.066 A 
BRANCH  24  29
ATOM     29  C   UNL     1       5.018  -0.191  28.000  0.00  0.00    +0.099 C 
ATOM     30  N   UNL     1       4.447  -0.936  28.677  0.00  0.00    -0.191 NA
ENDBRANCH  24  29
ENDBRANCH  21  22
ENDBRANCH   4  21
TORSDOF 6
ENDMDL
