MODEL 1
REMARK VINA RESULT:      -6.0      0.000      0.000
REMARK  Name = 
REMARK  6 active torsions:
REMARK  status: ('A' for Active; 'I' for Inactive)
REMARK    1  A    between atoms: C_3  and  C_15
REMARK    2  A    between atoms: N_5  and  C1*_6
REMARK    3  A    between atoms: C2*_7  and  O2*_14
REMARK    4  A    between atoms: C3*_8  and  O3*_13
REMARK    5  A    between atoms: C4*_9  and  C5*_11
REMARK    6  A    between atoms: C5*_11  and  O5*_12
REMARK                            x       y       z     vdW  Elec       q    Type
REMARK                         _______ _______ _______ _____ _____    ______ ____
ROOT
ATOM      1  C1* UNL     1       8.379  -1.434  23.464  0.00  0.00    +0.270 C 
ATOM      2  O4* UNL     1       8.301  -0.750  22.185  0.00  0.00    -0.344 OA
ATOM      3  C4* UNL     1       9.518   0.026  22.037  0.00  0.00    +0.177 C 
ATOM      4  C3* UNL     1      10.329  -0.164  23.334  0.00  0.00    +0.178 C 
ATOM      5  C2* UNL     1       9.873  -1.547  23.785  0.00  0.00    +0.196 C 
ENDROOT
BRANCH   1   7
ATOM      6  C   UNL     1       7.326  -3.511  24.425  0.00  0.00    +0.223 A 
ATOM      7  N   UNL     1       7.653  -2.682  23.399  0.00  0.00    -0.220 N 
ATOM      8  N   UNL     1       7.321  -3.225  22.212  0.00  0.00    -0.142 NA
ATOM      9  C   UNL     1       6.779  -4.401  22.579  0.00  0.00    +0.236 A 
ATOM     10  N   UNL     1       6.759  -4.596  23.955  0.00  0.00    -0.211 NA
BRANCH   9  11
ATOM     11  C   UNL     1       6.274  -5.417  21.636  0.00  0.00    +0.281 C 
ATOM     12  N   UNL     1       6.168  -6.672  22.183  0.00  0.00    -0.323 N 
ATOM     13  H   UNL     1       5.848  -7.433  21.604  0.00  0.00    +0.145 HD
ATOM     14  H   UNL     1       6.437  -6.822  23.147  0.00  0.00    +0.145 HD
ATOM     15  O   UNL     1       5.976  -5.217  20.463  0.00  0.00    -0.267 OA
ENDBRANCH   9  11
ENDBRANCH   1   7
BRANCH   4  16
ATOM     16  O3* UNL     1      10.026   0.769  24.371  0.00  0.00    -0.386 OA
ATOM     17  H3* UNL     1      10.254   1.678  24.076  0.00  0.00    +0.210 HD
ENDBRANCH   4  16
BRANCH   5  18
ATOM     18  O2* UNL     1      10.564  -2.553  23.031  0.00  0.00    -0.385 OA
ATOM     19  H2* UNL     1      11.522  -2.479  23.173  0.00  0.00    +0.210 HD
ENDBRANCH   5  18
BRANCH   3  20
ATOM     20  C5* UNL     1       9.137   1.464  21.698  0.00  0.00    +0.190 C 
BRANCH  20  21
ATOM     21  O5* UNL     1      10.311   2.279  21.676  0.00  0.00    -0.392 OA
ATOM     22  H5* UNL     1      11.069   1.661  21.638  0.00  0.00    +0.210 HD
ENDBRANCH  20  21
ENDBRANCH   3  20
TORSDOF 6
ENDMDL
MODEL 2
REMARK VINA RESULT:      -5.9      2.130      2.763
REMARK  Name = 
REMARK  6 active torsions:
REMARK  status: ('A' for Active; 'I' for Inactive)
REMARK    1  A    between atoms: C_3  and  C_15
REMARK    2  A    between atoms: N_5  and  C1*_6
REMARK    3  A    between atoms: C2*_7  and  O2*_14
REMARK    4  A    between atoms: C3*_8  and  O3*_13
REMARK    5  A    between atoms: C4*_9  and  C5*_11
REMARK    6  A    between atoms: C5*_11  and  O5*_12
REMARK                            x       y       z     vdW  Elec       q    Type
REMARK                         _______ _______ _______ _____ _____    ______ ____
ROOT
ATOM      1  C1* UNL     1       8.935  -0.920  23.449  0.00  0.00    +0.270 C 
ATOM      2  O4* UNL     1       7.851  -0.271  22.733  0.00  0.00    -0.344 OA
ATOM      3  C4* UNL     1       8.441   0.764  21.904  0.00  0.00    +0.177 C 
ATOM      4  C3* UNL     1       9.953   0.763  22.198  0.00  0.00    +0.178 C 
ATOM      5  C2* UNL     1      10.190  -0.688  22.602  0.00  0.00    +0.196 C 
ENDROOT
BRANCH   1   7
ATOM      6  C   UNL     1       7.610  -3.039  23.131  0.00  0.00    +0.223 A 
ATOM      7  N   UNL     1       8.596  -2.301  23.707  0.00  0.00    -0.220 N 
ATOM      8  N   UNL     1       9.195  -2.984  24.701  0.00  0.00    -0.142 NA
ATOM      9  C   UNL     1       8.531  -4.154  24.682  0.00  0.00    +0.236 A 
ATOM     10  N   UNL     1       7.546  -4.217  23.704  0.00  0.00    -0.211 NA
BRANCH   9  11
ATOM     11  C   UNL     1       8.780  -5.270  25.616  0.00  0.00    +0.281 C 
ATOM     12  N   UNL     1      10.083  -5.702  25.621  0.00  0.00    -0.323 N 
ATOM     13  H   UNL     1      10.340  -6.475  26.216  0.00  0.00    +0.145 HD
ATOM     14  H   UNL     1      10.759  -5.261  25.010  0.00  0.00    +0.145 HD
ATOM     15  O   UNL     1       7.938  -5.804  26.330  0.00  0.00    -0.267 OA
ENDBRANCH   9  11
ENDBRANCH   1   7
BRANCH   4  16
ATOM     16  O3* UNL     1      10.351   1.601  23.284  0.00  0.00    -0.386 OA
ATOM     17  H3* UNL     1      10.030   1.221  24.131  0.00  0.00    +0.210 HD
ENDBRANCH   4  16
BRANCH   5  18
ATOM     18  O2* UNL     1      10.270  -1.509  21.428  0.00  0.00    -0.385 OA
ATOM     19  H2* UNL     1       9.435  -1.467  20.934  0.00  0.00    +0.210 HD
ENDBRANCH   5  18
BRANCH   3  20
ATOM     20  C5* UNL     1       7.712   2.076  22.175  0.00  0.00    +0.190 C 
BRANCH  20  21
ATOM     21  O5* UNL     1       8.597   3.174  21.938  0.00  0.00    -0.392 OA
ATOM     22  H5* UNL     1       8.191   3.699  21.220  0.00  0.00    +0.210 HD
ENDBRANCH  20  21
ENDBRANCH   3  20
TORSDOF 6
ENDMDL
MODEL 3
REMARK VINA RESULT:      -5.6      2.385      3.441
REMARK  Name = 
REMARK  6 active torsions:
REMARK  status: ('A' for Active; 'I' for Inactive)
REMARK    1  A    between atoms: C_3  and  C_15
REMARK    2  A    between atoms: N_5  and  C1*_6
REMARK    3  A    between atoms: C2*_7  and  O2*_14
REMARK    4  A    between atoms: C3*_8  and  O3*_13
REMARK    5  A    between atoms: C4*_9  and  C5*_11
REMARK    6  A    between atoms: C5*_11  and  O5*_12
REMARK                            x       y       z     vdW  Elec       q    Type
REMARK                         _______ _______ _______ _____ _____    ______ ____
ROOT
ATOM      1  C1* UNL     1       9.096  -0.782  22.889  0.00  0.00    +0.270 C 
ATOM      2  O4* UNL     1       9.789   0.015  23.885  0.00  0.00    -0.344 OA
ATOM      3  C4* UNL     1       9.353   1.389  23.717  0.00  0.00    +0.177 C 
ATOM      4  C3* UNL     1       8.395   1.408  22.510  0.00  0.00    +0.178 C 
ATOM      5  C2* UNL     1       7.822  -0.005  22.546  0.00  0.00    +0.196 C 
ENDROOT
BRANCH   1   7
ATOM      6  C   UNL     1       8.096  -3.095  22.872  0.00  0.00    +0.223 A 
ATOM      7  N   UNL     1       8.899  -2.126  23.385  0.00  0.00    -0.220 N 
ATOM      8  N   UNL     1       9.445  -2.516  24.553  0.00  0.00    -0.142 NA
ATOM      9  C   UNL     1       8.939  -3.754  24.703  0.00  0.00    +0.236 A 
ATOM     10  N   UNL     1       8.106  -4.142  23.661  0.00  0.00    -0.211 NA
BRANCH   9  11
ATOM     11  C   UNL     1       9.202  -4.627  25.863  0.00  0.00    +0.281 C 
ATOM     12  N   UNL     1      10.192  -5.553  25.643  0.00  0.00    -0.323 N 
ATOM     13  H   UNL     1      10.424  -6.204  26.376  0.00  0.00    +0.145 HD
ATOM     14  H   UNL     1      10.653  -5.587  24.742  0.00  0.00    +0.145 HD
ATOM     15  O   UNL     1       8.612  -4.583  26.938  0.00  0.00    -0.267 OA
ENDBRANCH   9  11
ENDBRANCH   1   7
BRANCH   4  16
ATOM     16  O3* UNL     1       9.030   1.602  21.246  0.00  0.00    -0.386 OA
ATOM     17  H3* UNL     1       9.992   1.419  21.326  0.00  0.00    +0.210 HD
ENDBRANCH   4  16
BRANCH   5  18
ATOM     18  O2* UNL     1       6.796  -0.083  23.546  0.00  0.00    -0.385 OA
ATOM     19  H2* UNL     1       5.922  -0.142  23.125  0.00  0.00    +0.210 HD
ENDBRANCH   5  18
BRANCH   3  20
ATOM     20  C5* UNL     1      10.588   2.278  23.599  0.00  0.00    +0.190 C 
BRANCH  20  21
ATOM     21  O5* UNL     1      10.230   3.514  22.975  0.00  0.00    -0.392 OA
ATOM     22  H5* UNL     1       9.824   4.063  23.675  0.00  0.00    +0.210 HD
ENDBRANCH  20  21
ENDBRANCH   3  20
TORSDOF 6
ENDMDL
MODEL 4
REMARK VINA RESULT:      -5.6      2.999      5.936
REMARK  Name = 
REMARK  6 active torsions:
REMARK  status: ('A' for Active; 'I' for Inactive)
REMARK    1  A    between atoms: C_3  and  C_15
REMARK    2  A    between atoms: N_5  and  C1*_6
REMARK    3  A    between atoms: C2*_7  and  O2*_14
REMARK    4  A    between atoms: C3*_8  and  O3*_13
REMARK    5  A    between atoms: C4*_9  and  C5*_11
REMARK    6  A    between atoms: C5*_11  and  O5*_12
REMARK                            x       y       z     vdW  Elec       q    Type
REMARK                         _______ _______ _______ _____ _____    ______ ____
ROOT
ATOM      1  C1* UNL     1       8.110  -2.545  24.174  0.00  0.00    +0.270 C 
ATOM      2  O4* UNL     1       9.168  -3.363  24.742  0.00  0.00    -0.344 OA
ATOM      3  C4* UNL     1       8.590  -4.656  25.059  0.00  0.00    +0.177 C 
ATOM      4  C3* UNL     1       7.090  -4.571  24.714  0.00  0.00    +0.178 C 
ATOM      5  C2* UNL     1       7.086  -3.529  23.600  0.00  0.00    +0.196 C 
ENDROOT
BRANCH   1   7
ATOM      6  C   UNL     1       9.851  -1.689  22.567  0.00  0.00    +0.223 A 
ATOM      7  N   UNL     1       8.671  -1.600  23.236  0.00  0.00    -0.220 N 
ATOM      8  N   UNL     1       8.081  -0.407  23.024  0.00  0.00    -0.142 NA
ATOM      9  C   UNL     1       8.956   0.198  22.199  0.00  0.00    +0.236 A 
ATOM     10  N   UNL     1      10.060  -0.586  21.889  0.00  0.00    -0.211 NA
BRANCH   9  11
ATOM     11  C   UNL     1       8.799   1.571  21.680  0.00  0.00    +0.281 C 
ATOM     12  N   UNL     1       9.979   2.270  21.607  0.00  0.00    -0.323 N 
ATOM     13  H   UNL     1       9.963   3.224  21.282  0.00  0.00    +0.145 HD
ATOM     14  H   UNL     1      10.840   1.830  21.907  0.00  0.00    +0.145 HD
ATOM     15  O   UNL     1       7.740   2.091  21.345  0.00  0.00    -0.267 OA
ENDBRANCH   9  11
ENDBRANCH   1   7
BRANCH   4  16
ATOM     16  O3* UNL     1       6.260  -4.096  25.774  0.00  0.00    -0.386 OA
ATOM     17  H3* UNL     1       5.881  -4.858  26.265  0.00  0.00    +0.210 HD
ENDBRANCH   4  16
BRANCH   5  18
ATOM     18  O2* UNL     1       7.485  -4.142  22.366  0.00  0.00    -0.385 OA
ATOM     19  H2* UNL     1       8.296  -4.661  22.496  0.00  0.00    +0.210 HD
ENDBRANCH   5  18
BRANCH   3  20
ATOM     20  C5* UNL     1       8.920  -4.992  26.510  0.00  0.00    +0.190 C 
BRANCH  20  21
ATOM     21  O5* UNL     1       7.965  -5.929  27.014  0.00  0.00    -0.392 OA
ATOM     22  H5* UNL     1       8.479  -6.609  27.494  0.00  0.00    +0.210 HD
ENDBRANCH  20  21
ENDBRANCH   3  20
TORSDOF 6
ENDMDL
MODEL 5
REMARK VINA RESULT:      -5.6      2.507      5.952
REMARK  Name = 
REMARK  6 active torsions:
REMARK  status: ('A' for Active; 'I' for Inactive)
REMARK    1  A    between atoms: C_3  and  C_15
REMARK    2  A    between atoms: N_5  and  C1*_6
REMARK    3  A    between atoms: C2*_7  and  O2*_14
REMARK    4  A    between atoms: C3*_8  and  O3*_13
REMARK    5  A    between atoms: C4*_9  and  C5*_11
REMARK    6  A    between atoms: C5*_11  and  O5*_12
REMARK                            x       y       z     vdW  Elec       q    Type
REMARK                         _______ _______ _______ _____ _____    ______ ____
ROOT
ATOM      1  C1* UNL     1       8.079  -2.934  23.485  0.00  0.00    +0.270 C 
ATOM      2  O4* UNL     1       7.929  -3.619  22.213  0.00  0.00    -0.344 OA
ATOM      3  C4* UNL     1       6.731  -4.433  22.301  0.00  0.00    +0.177 C 
ATOM      4  C3* UNL     1       6.180  -4.264  23.730  0.00  0.00    +0.178 C 
ATOM      5  C2* UNL     1       6.673  -2.866  24.089  0.00  0.00    +0.196 C 
ENDROOT
BRANCH   1   7
ATOM      6  C   UNL     1       9.780  -1.146  23.990  0.00  0.00    +0.223 A 
ATOM      7  N   UNL     1       8.741  -1.665  23.284  0.00  0.00    -0.220 N 
ATOM      8  N   UNL     1       8.268  -0.775  22.391  0.00  0.00    -0.142 NA
ATOM      9  C   UNL     1       9.073   0.284  22.593  0.00  0.00    +0.236 A 
ATOM     10  N   UNL     1      10.032   0.072  23.576  0.00  0.00    -0.211 NA
BRANCH   9  11
ATOM     11  C   UNL     1       8.956   1.569  21.876  0.00  0.00    +0.281 C 
ATOM     12  N   UNL     1      10.155   2.218  21.709  0.00  0.00    -0.323 N 
ATOM     13  H   UNL     1      10.166   3.113  21.246  0.00  0.00    +0.145 HD
ATOM     14  H   UNL     1      11.003   1.803  22.075  0.00  0.00    +0.145 HD
ATOM     15  O   UNL     1       7.912   2.063  21.463  0.00  0.00    -0.267 OA
ENDBRANCH   9  11
ENDBRANCH   1   7
BRANCH   4  16
ATOM     16  O3* UNL     1       6.706  -5.184  24.686  0.00  0.00    -0.386 OA
ATOM     17  H3* UNL     1       7.465  -5.670  24.296  0.00  0.00    +0.210 HD
ENDBRANCH   4  16
BRANCH   5  18
ATOM     18  O2* UNL     1       5.819  -1.884  23.486  0.00  0.00    -0.385 OA
ATOM     19  H2* UNL     1       5.230  -2.305  22.838  0.00  0.00    +0.210 HD
ENDBRANCH   5  18
BRANCH   3  20
ATOM     20  C5* UNL     1       7.082  -5.860  21.890  0.00  0.00    +0.190 C 
BRANCH  20  21
ATOM     21  O5* UNL     1       5.975  -6.723  22.160  0.00  0.00    -0.392 OA
ATOM     22  H5* UNL     1       5.181  -6.152  22.163  0.00  0.00    +0.210 HD
ENDBRANCH  20  21
ENDBRANCH   3  20
TORSDOF 6
ENDMDL
MODEL 6
REMARK VINA RESULT:      -5.5      1.599      2.536
REMARK  Name = 
REMARK  6 active torsions:
REMARK  status: ('A' for Active; 'I' for Inactive)
REMARK    1  A    between atoms: C_3  and  C_15
REMARK    2  A    between atoms: N_5  and  C1*_6
REMARK    3  A    between atoms: C2*_7  and  O2*_14
REMARK    4  A    between atoms: C3*_8  and  O3*_13
REMARK    5  A    between atoms: C4*_9  and  C5*_11
REMARK    6  A    between atoms: C5*_11  and  O5*_12
REMARK                            x       y       z     vdW  Elec       q    Type
REMARK                         _______ _______ _______ _____ _____    ______ ____
ROOT
ATOM      1  C1* UNL     1       9.202  -0.519  22.792  0.00  0.00    +0.270 C 
ATOM      2  O4* UNL     1       9.825   0.257  23.850  0.00  0.00    -0.344 OA
ATOM      3  C4* UNL     1       9.397   1.634  23.682  0.00  0.00    +0.177 C 
ATOM      4  C3* UNL     1       8.521   1.678  22.414  0.00  0.00    +0.178 C 
ATOM      5  C2* UNL     1       7.951   0.263  22.382  0.00  0.00    +0.196 C 
ENDROOT
BRANCH   1   7
ATOM      6  C   UNL     1       9.782  -2.631  24.038  0.00  0.00    +0.223 A 
ATOM      7  N   UNL     1       8.978  -1.873  23.246  0.00  0.00    -0.220 N 
ATOM      8  N   UNL     1       7.935  -2.590  22.786  0.00  0.00    -0.142 NA
ATOM      9  C   UNL     1       8.151  -3.796  23.345  0.00  0.00    +0.236 A 
ATOM     10  N   UNL     1       9.289  -3.842  24.140  0.00  0.00    -0.211 NA
BRANCH   9  11
ATOM     11  C   UNL     1       7.296  -4.980  23.130  0.00  0.00    +0.281 C 
ATOM     12  N   UNL     1       6.441  -5.238  24.172  0.00  0.00    -0.323 N 
ATOM     13  H   UNL     1       5.833  -6.040  24.119  0.00  0.00    +0.145 HD
ATOM     14  H   UNL     1       6.452  -4.639  24.988  0.00  0.00    +0.145 HD
ATOM     15  O   UNL     1       7.318  -5.705  22.141  0.00  0.00    -0.267 OA
ENDBRANCH   9  11
ENDBRANCH   1   7
BRANCH   4  16
ATOM     16  O3* UNL     1       9.238   1.900  21.200  0.00  0.00    -0.386 OA
ATOM     17  H3* UNL     1       9.583   2.819  21.182  0.00  0.00    +0.210 HD
ENDBRANCH   4  16
BRANCH   5  18
ATOM     18  O2* UNL     1       6.861   0.161  23.310  0.00  0.00    -0.385 OA
ATOM     19  H2* UNL     1       6.963  -0.632  23.860  0.00  0.00    +0.210 HD
ENDBRANCH   5  18
BRANCH   3  20
ATOM     20  C5* UNL     1      10.633   2.528  23.666  0.00  0.00    +0.190 C 
BRANCH  20  21
ATOM     21  O5* UNL     1      10.293   3.805  23.121  0.00  0.00    -0.392 OA
ATOM     22  H5* UNL     1      10.315   3.700  22.149  0.00  0.00    +0.210 HD
ENDBRANCH  20  21
ENDBRANCH   3  20
TORSDOF 6
ENDMDL
MODEL 7
REMARK VINA RESULT:      -5.5      2.146      3.140
REMARK  Name = 
REMARK  6 active torsions:
REMARK  status: ('A' for Active; 'I' for Inactive)
REMARK    1  A    between atoms: C_3  and  C_15
REMARK    2  A    between atoms: N_5  and  C1*_6
REMARK    3  A    between atoms: C2*_7  and  O2*_14
REMARK    4  A    between atoms: C3*_8  and  O3*_13
REMARK    5  A    between atoms: C4*_9  and  C5*_11
REMARK    6  A    between atoms: C5*_11  and  O5*_12
REMARK                            x       y       z     vdW  Elec       q    Type
REMARK                         _______ _______ _______ _____ _____    ______ ____
ROOT
ATOM      1  C1* UNL     1       7.343  -1.362  23.032  0.00  0.00    +0.270 C 
ATOM      2  O4* UNL     1       8.590  -0.840  22.500  0.00  0.00    -0.344 OA
ATOM      3  C4* UNL     1       8.582   0.595  22.715  0.00  0.00    +0.177 C 
ATOM      4  C3* UNL     1       7.223   0.943  23.354  0.00  0.00    +0.178 C 
ATOM      5  C2* UNL     1       6.885  -0.351  24.087  0.00  0.00    +0.196 C 
ENDROOT
BRANCH   1   7
ATOM      6  C   UNL     1       6.698  -3.775  23.361  0.00  0.00    +0.223 A 
ATOM      7  N   UNL     1       7.539  -2.716  23.500  0.00  0.00    -0.220 N 
ATOM      8  N   UNL     1       8.594  -3.032  24.274  0.00  0.00    -0.142 NA
ATOM      9  C   UNL     1       8.346  -4.320  24.579  0.00  0.00    +0.236 A 
ATOM     10  N   UNL     1       7.177  -4.809  24.010  0.00  0.00    -0.211 NA
BRANCH   9  11
ATOM     11  C   UNL     1       9.199  -5.148  25.453  0.00  0.00    +0.281 C 
ATOM     12  N   UNL     1       8.509  -5.776  26.460  0.00  0.00    -0.323 N 
ATOM     13  H   UNL     1       9.016  -6.349  27.117  0.00  0.00    +0.145 HD
ATOM     14  H   UNL     1       7.511  -5.634  26.547  0.00  0.00    +0.145 HD
ATOM     15  O   UNL     1      10.413  -5.286  25.342  0.00  0.00    -0.267 OA
ENDBRANCH   9  11
ENDBRANCH   1   7
BRANCH   4  16
ATOM     16  O3* UNL     1       6.177   1.218  22.422  0.00  0.00    -0.386 OA
ATOM     17  H3* UNL     1       5.583   0.439  22.352  0.00  0.00    +0.210 HD
ENDBRANCH   4  16
BRANCH   5  18
ATOM     18  O2* UNL     1       7.615  -0.412  25.320  0.00  0.00    -0.385 OA
ATOM     19  H2* UNL     1       7.826   0.484  25.629  0.00  0.00    +0.210 HD
ENDBRANCH   5  18
BRANCH   3  20
ATOM     20  C5* UNL     1       8.888   1.286  21.389  0.00  0.00    +0.190 C 
BRANCH  20  21
ATOM     21  O5* UNL     1      10.001   2.168  21.554  0.00  0.00    -0.392 OA
ATOM     22  H5* UNL     1       9.626   3.069  21.613  0.00  0.00    +0.210 HD
ENDBRANCH  20  21
ENDBRANCH   3  20
TORSDOF 6
ENDMDL
MODEL 8
REMARK VINA RESULT:      -5.5      2.762      3.617
REMARK  Name = 
REMARK  6 active torsions:
REMARK  status: ('A' for Active; 'I' for Inactive)
REMARK    1  A    between atoms: C_3  and  C_15
REMARK    2  A    between atoms: N_5  and  C1*_6
REMARK    3  A    between atoms: C2*_7  and  O2*_14
REMARK    4  A    between atoms: C3*_8  and  O3*_13
REMARK    5  A    between atoms: C4*_9  and  C5*_11
REMARK    6  A    between atoms: C5*_11  and  O5*_12
REMARK                            x       y       z     vdW  Elec       q    Type
REMARK                         _______ _______ _______ _____ _____    ______ ____
ROOT
ATOM      1  C1* UNL     1       9.327  -2.908  23.930  0.00  0.00    +0.270 C 
ATOM      2  O4* UNL     1       9.437  -1.602  24.557  0.00  0.00    -0.344 OA
ATOM      3  C4* UNL     1       9.136  -0.610  23.542  0.00  0.00    +0.177 C 
ATOM      4  C3* UNL     1       8.896  -1.376  22.226  0.00  0.00    +0.178 C 
ATOM      5  C2* UNL     1       8.384  -2.719  22.738  0.00  0.00    +0.196 C 
ENDROOT
BRANCH   1   7
ATOM      6  C   UNL     1       9.467  -5.109  25.147  0.00  0.00    +0.223 A 
ATOM      7  N   UNL     1       8.917  -3.889  24.909  0.00  0.00    -0.220 N 
ATOM      8  N   UNL     1       7.797  -3.711  25.635  0.00  0.00    -0.142 NA
ATOM      9  C   UNL     1       7.714  -4.870  26.317  0.00  0.00    +0.236 A 
ATOM     10  N   UNL     1       8.752  -5.751  26.039  0.00  0.00    -0.211 NA
BRANCH   9  11
ATOM     11  C   UNL     1       6.625  -5.211  27.252  0.00  0.00    +0.281 C 
ATOM     12  N   UNL     1       5.987  -6.388  26.948  0.00  0.00    -0.323 N 
ATOM     13  H   UNL     1       5.216  -6.689  27.524  0.00  0.00    +0.145 HD
ATOM     14  H   UNL     1       6.278  -6.920  26.137  0.00  0.00    +0.145 HD
ATOM     15  O   UNL     1       6.275  -4.537  28.215  0.00  0.00    -0.267 OA
ENDBRANCH   9  11
ENDBRANCH   1   7
BRANCH   4  16
ATOM     16  O3* UNL     1      10.071  -1.611  21.449  0.00  0.00    -0.386 OA
ATOM     17  H3* UNL     1      10.584  -2.351  21.840  0.00  0.00    +0.210 HD
ENDBRANCH   4  16
BRANCH   5  18
ATOM     18  O2* UNL     1       6.999  -2.602  23.094  0.00  0.00    -0.385 OA
ATOM     19  H2* UNL     1       6.519  -2.104  22.412  0.00  0.00    +0.210 HD
ENDBRANCH   5  18
BRANCH   3  20
ATOM     20  C5* UNL     1      10.265   0.416  23.517  0.00  0.00    +0.190 C 
BRANCH  20  21
ATOM     21  O5* UNL     1      10.194   1.177  22.309  0.00  0.00    -0.392 OA
ATOM     22  H5* UNL     1       9.333   1.641  22.331  0.00  0.00    +0.210 HD
ENDBRANCH  20  21
ENDBRANCH   3  20
TORSDOF 6
ENDMDL
MODEL 9
REMARK VINA RESULT:      -5.3      2.109      2.702
REMARK  Name = 
REMARK  6 active torsions:
REMARK  status: ('A' for Active; 'I' for Inactive)
REMARK    1  A    between atoms: C_3  and  C_15
REMARK    2  A    between atoms: N_5  and  C1*_6
REMARK    3  A    between atoms: C2*_7  and  O2*_14
REMARK    4  A    between atoms: C3*_8  and  O3*_13
REMARK    5  A    between atoms: C4*_9  and  C5*_11
REMARK    6  A    between atoms: C5*_11  and  O5*_12
REMARK                            x       y       z     vdW  Elec       q    Type
REMARK                         _______ _______ _______ _____ _____    ______ ____
ROOT
ATOM      1  C1* UNL     1       7.620  -3.031  23.402  0.00  0.00    +0.270 C 
ATOM      2  O4* UNL     1       8.442  -2.600  22.285  0.00  0.00    -0.344 OA
ATOM      3  C4* UNL     1       9.702  -2.131  22.832  0.00  0.00    +0.177 C 
ATOM      4  C3* UNL     1       9.588  -2.235  24.366  0.00  0.00    +0.178 C 
ATOM      5  C2* UNL     1       8.599  -3.385  24.526  0.00  0.00    +0.196 C 
ENDROOT
BRANCH   1   7
ATOM      6  C   UNL     1       6.360  -4.410  21.712  0.00  0.00    +0.223 A 
ATOM      7  N   UNL     1       6.735  -4.093  22.980  0.00  0.00    -0.220 N 
ATOM      8  N   UNL     1       6.066  -4.833  23.884  0.00  0.00    -0.142 NA
ATOM      9  C   UNL     1       5.289  -5.604  23.100  0.00  0.00    +0.236 A 
ATOM     10  N   UNL     1       5.464  -5.367  21.742  0.00  0.00    -0.211 NA
BRANCH   9  11
ATOM     11  C   UNL     1       4.315  -6.591  23.605  0.00  0.00    +0.281 C 
ATOM     12  N   UNL     1       3.111  -6.563  22.946  0.00  0.00    -0.323 N 
ATOM     13  H   UNL     1       2.379  -7.192  23.237  0.00  0.00    +0.145 HD
ATOM     14  H   UNL     1       2.965  -5.896  22.198  0.00  0.00    +0.145 HD
ATOM     15  O   UNL     1       4.507  -7.374  24.529  0.00  0.00    -0.267 OA
ENDBRANCH   9  11
ENDBRANCH   1   7
BRANCH   4  16
ATOM     16  O3* UNL     1       9.042  -1.081  25.004  0.00  0.00    -0.386 OA
ATOM     17  H3* UNL     1       8.996  -0.338  24.363  0.00  0.00    +0.210 HD
ENDBRANCH   4  16
BRANCH   5  18
ATOM     18  O2* UNL     1       9.279  -4.635  24.345  0.00  0.00    -0.385 OA
ATOM     19  H2* UNL     1       9.991  -4.537  23.692  0.00  0.00    +0.210 HD
ENDBRANCH   5  18
BRANCH   3  20
ATOM     20  C5* UNL     1       9.981  -0.736  22.280  0.00  0.00    +0.190 C 
BRANCH  20  21
ATOM     21  O5* UNL     1       9.516  -0.653  20.931  0.00  0.00    -0.392 OA
ATOM     22  H5* UNL     1       8.617  -1.040  20.929  0.00  0.00    +0.210 HD
ENDBRANCH  20  21
ENDBRANCH   3  20
TORSDOF 6
ENDMDL
