MODEL 1
REMARK VINA RESULT:      -6.2      0.000      0.000
REMARK  Name = 
REMARK  5 active torsions:
REMARK  status: ('A' for Active; 'I' for Inactive)
REMARK    1  A    between atoms: C3*_2  and  O3*_22
REMARK    2  A    between atoms: C4*_4  and  C5*_20
REMARK    3  A    between atoms: C1*_7  and  N_9
REMARK    4  A    between atoms: C_11  and  C_17
REMARK    5  A    between atoms: C5*_20  and  O5*_21
REMARK                            x       y       z     vdW  Elec       q    Type
REMARK                         _______ _______ _______ _____ _____    ______ ____
ROOT
ATOM      1  N   UNL     1       8.396  -1.635  24.753  0.00  0.00    -0.273 N 
ATOM      2  C   UNL     1       8.545  -1.909  26.102  0.00  0.00    +0.331 A 
ATOM      3  O   UNL     1       8.978  -1.104  26.926  0.00  0.00    -0.246 OA
ATOM      4  N   UNL     1       8.185  -3.167  26.496  0.00  0.00    -0.274 N 
ATOM      5  H   UNL     1       8.264  -3.377  27.479  0.00  0.00    +0.173 HD
ATOM      6  C   UNL     1       7.758  -4.175  25.679  0.00  0.00    +0.261 A 
ATOM      7  O   UNL     1       7.462  -5.278  26.130  0.00  0.00    -0.267 OA
ATOM      8  C   UNL     1       7.688  -3.863  24.221  0.00  0.00    +0.056 A 
ATOM      9  C   UNL     1       7.990  -2.608  23.858  0.00  0.00    +0.106 A 
ENDROOT
BRANCH   1  11
ATOM     10  C2* UNL     1      10.275  -0.227  23.912  0.00  0.00    +0.088 C 
ATOM     11  C1* UNL     1       8.801  -0.305  24.301  0.00  0.00    +0.226 C 
ATOM     12  O4* UNL     1       8.009   0.114  23.172  0.00  0.00    -0.348 OA
ATOM     13  C4* UNL     1       8.894   0.414  22.069  0.00  0.00    +0.175 C 
ATOM     14  C3* UNL     1      10.240  -0.226  22.404  0.00  0.00    +0.150 C 
BRANCH  14  15
ATOM     15  O3* UNL     1      10.260  -1.578  21.931  0.00  0.00    -0.389 OA
ATOM     16  H3* UNL     1      10.761  -1.586  21.094  0.00  0.00    +0.210 HD
ENDBRANCH  14  15
BRANCH  13  17
ATOM     17  C5* UNL     1       8.961   1.936  21.903  0.00  0.00    +0.190 C 
BRANCH  17  18
ATOM     18  O5* UNL     1      10.275   2.375  21.569  0.00  0.00    -0.392 OA
ATOM     19  H5* UNL     1      10.825   1.571  21.519  0.00  0.00    +0.210 HD
ENDBRANCH  17  18
ENDBRANCH  13  17
ENDBRANCH   1  11
BRANCH   8  20
ATOM     20  C   UNL     1       7.239  -4.892  23.298  0.00  0.00    +0.022 C 
ATOM     21  C   UNL     1       6.768  -4.680  22.061  0.00  0.00    +0.052 C 
ATOM     22 BR   UNL     1       6.216  -6.036  20.921  0.00  0.00    -0.059 Br
ENDBRANCH   8  20
TORSDOF 5
ENDMDL
MODEL 2
REMARK VINA RESULT:      -6.1      2.844      3.874
REMARK  Name = 
REMARK  5 active torsions:
REMARK  status: ('A' for Active; 'I' for Inactive)
REMARK    1  A    between atoms: C3*_2  and  O3*_22
REMARK    2  A    between atoms: C4*_4  and  C5*_20
REMARK    3  A    between atoms: C1*_7  and  N_9
REMARK    4  A    between atoms: C_11  and  C_17
REMARK    5  A    between atoms: C5*_20  and  O5*_21
REMARK                            x       y       z     vdW  Elec       q    Type
REMARK                         _______ _______ _______ _____ _____    ______ ____
ROOT
ATOM      1  N   UNL     1       7.896  -4.424  24.738  0.00  0.00    -0.273 N 
ATOM      2  C   UNL     1       8.946  -4.984  25.447  0.00  0.00    +0.331 A 
ATOM      3  O   UNL     1      10.113  -4.992  25.059  0.00  0.00    -0.246 OA
ATOM      4  N   UNL     1       8.616  -5.560  26.642  0.00  0.00    -0.274 N 
ATOM      5  H   UNL     1       9.371  -5.951  27.182  0.00  0.00    +0.173 HD
ATOM      6  C   UNL     1       7.357  -5.682  27.156  0.00  0.00    +0.261 A 
ATOM      7  O   UNL     1       7.161  -6.223  28.240  0.00  0.00    -0.267 OA
ATOM      8  C   UNL     1       6.244  -5.137  26.323  0.00  0.00    +0.056 A 
ATOM      9  C   UNL     1       6.590  -4.524  25.181  0.00  0.00    +0.106 A 
ENDROOT
BRANCH   1  11
ATOM     10  C2* UNL     1       6.980  -3.430  22.642  0.00  0.00    +0.088 C 
ATOM     11  C1* UNL     1       8.218  -3.827  23.443  0.00  0.00    +0.226 C 
ATOM     12  O4* UNL     1       9.046  -2.659  23.612  0.00  0.00    -0.348 OA
ATOM     13  C4* UNL     1       8.384  -1.529  22.999  0.00  0.00    +0.175 C 
ATOM     14  C3* UNL     1       6.924  -1.932  22.803  0.00  0.00    +0.150 C 
BRANCH  14  15
ATOM     15  O3* UNL     1       6.175  -1.612  23.982  0.00  0.00    -0.389 OA
ATOM     16  H3* UNL     1       6.213  -0.644  24.097  0.00  0.00    +0.210 HD
ENDBRANCH  14  15
BRANCH  13  17
ATOM     17  C5* UNL     1       9.110  -1.194  21.691  0.00  0.00    +0.190 C 
BRANCH  17  18
ATOM     18  O5* UNL     1      10.467  -1.629  21.713  0.00  0.00    -0.392 OA
ATOM     19  H5* UNL     1      10.744  -1.698  20.780  0.00  0.00    +0.210 HD
ENDBRANCH  17  18
ENDBRANCH  13  17
ENDBRANCH   1  11
BRANCH   8  20
ATOM     20  C   UNL     1       4.879  -5.232  26.814  0.00  0.00    +0.022 C 
ATOM     21  C   UNL     1       4.056  -6.274  26.636  0.00  0.00    +0.052 C 
ATOM     22 BR   UNL     1       2.323  -6.346  27.295  0.00  0.00    -0.059 Br
ENDBRANCH   8  20
TORSDOF 5
ENDMDL
MODEL 3
REMARK VINA RESULT:      -5.7      3.638      4.954
REMARK  Name = 
REMARK  5 active torsions:
REMARK  status: ('A' for Active; 'I' for Inactive)
REMARK    1  A    between atoms: C3*_2  and  O3*_22
REMARK    2  A    between atoms: C4*_4  and  C5*_20
REMARK    3  A    between atoms: C1*_7  and  N_9
REMARK    4  A    between atoms: C_11  and  C_17
REMARK    5  A    between atoms: C5*_20  and  O5*_21
REMARK                            x       y       z     vdW  Elec       q    Type
REMARK                         _______ _______ _______ _____ _____    ______ ____
ROOT
ATOM      1  N   UNL     1       6.512  -4.810  23.290  0.00  0.00    -0.273 N 
ATOM      2  C   UNL     1       5.747  -5.448  22.327  0.00  0.00    +0.331 A 
ATOM      3  O   UNL     1       5.789  -5.182  21.127  0.00  0.00    -0.246 OA
ATOM      4  N   UNL     1       4.902  -6.418  22.786  0.00  0.00    -0.274 N 
ATOM      5  H   UNL     1       4.355  -6.909  22.097  0.00  0.00    +0.173 HD
ATOM      6  C   UNL     1       4.707  -6.762  24.094  0.00  0.00    +0.261 A 
ATOM      7  O   UNL     1       3.917  -7.648  24.408  0.00  0.00    -0.267 OA
ATOM      8  C   UNL     1       5.491  -5.996  25.107  0.00  0.00    +0.056 A 
ATOM      9  C   UNL     1       6.358  -5.087  24.636  0.00  0.00    +0.106 A 
ENDROOT
BRANCH   1  11
ATOM     10  C2* UNL     1       6.705  -2.398  22.682  0.00  0.00    +0.088 C 
ATOM     11  C1* UNL     1       7.404  -3.748  22.828  0.00  0.00    +0.226 C 
ATOM     12  O4* UNL     1       8.518  -3.589  23.728  0.00  0.00    -0.348 OA
ATOM     13  C4* UNL     1       8.543  -2.222  24.199  0.00  0.00    +0.175 C 
ATOM     14  C3* UNL     1       7.169  -1.631  23.894  0.00  0.00    +0.150 C 
BRANCH  14  15
ATOM     15  O3* UNL     1       6.279  -1.893  24.987  0.00  0.00    -0.389 OA
ATOM     16  H3* UNL     1       6.790  -2.363  25.671  0.00  0.00    +0.210 HD
ENDBRANCH  14  15
BRANCH  13  17
ATOM     17  C5* UNL     1       9.695  -1.492  23.502  0.00  0.00    +0.190 C 
BRANCH  17  18
ATOM     18  O5* UNL     1      10.605  -2.401  22.887  0.00  0.00    -0.392 OA
ATOM     19  H5* UNL     1      10.204  -3.286  22.974  0.00  0.00    +0.210 HD
ENDBRANCH  17  18
ENDBRANCH  13  17
ENDBRANCH   1  11
BRANCH   8  20
ATOM     20  C   UNL     1       5.331  -6.315  26.516  0.00  0.00    +0.022 C 
ATOM     21  C   UNL     1       4.472  -5.725  27.357  0.00  0.00    +0.052 C 
ATOM     22 BR   UNL     1       4.304  -6.181  29.149  0.00  0.00    -0.059 Br
ENDBRANCH   8  20
TORSDOF 5
ENDMDL
MODEL 4
REMARK VINA RESULT:      -5.7      3.168      6.150
REMARK  Name = 
REMARK  5 active torsions:
REMARK  status: ('A' for Active; 'I' for Inactive)
REMARK    1  A    between atoms: C3*_2  and  O3*_22
REMARK    2  A    between atoms: C4*_4  and  C5*_20
REMARK    3  A    between atoms: C1*_7  and  N_9
REMARK    4  A    between atoms: C_11  and  C_17
REMARK    5  A    between atoms: C5*_20  and  O5*_21
REMARK                            x       y       z     vdW  Elec       q    Type
REMARK                         _______ _______ _______ _____ _____    ______ ____
ROOT
ATOM      1  N   UNL     1       7.725  -3.030  24.117  0.00  0.00    -0.273 N 
ATOM      2  C   UNL     1       9.048  -3.430  24.204  0.00  0.00    +0.331 A 
ATOM      3  O   UNL     1       9.419  -4.470  24.745  0.00  0.00    -0.246 OA
ATOM      4  N   UNL     1       9.963  -2.581  23.647  0.00  0.00    -0.274 N 
ATOM      5  H   UNL     1      10.928  -2.867  23.679  0.00  0.00    +0.173 HD
ATOM      6  C   UNL     1       9.694  -1.368  23.080  0.00  0.00    +0.261 A 
ATOM      7  O   UNL     1      10.590  -0.672  22.610  0.00  0.00    -0.267 OA
ATOM      8  C   UNL     1       8.265  -0.937  23.079  0.00  0.00    +0.056 A 
ATOM      9  C   UNL     1       7.373  -1.806  23.577  0.00  0.00    +0.106 A 
ENDROOT
BRANCH   1  11
ATOM     10  C2* UNL     1       5.298  -3.400  24.560  0.00  0.00    +0.088 C 
ATOM     11  C1* UNL     1       6.728  -3.907  24.730  0.00  0.00    +0.226 C 
ATOM     12  O4* UNL     1       6.810  -5.235  24.179  0.00  0.00    -0.348 OA
ATOM     13  C4* UNL     1       5.521  -5.589  23.627  0.00  0.00    +0.175 C 
ATOM     14  C3* UNL     1       4.740  -4.286  23.475  0.00  0.00    +0.150 C 
BRANCH  14  15
ATOM     15  O3* UNL     1       5.022  -3.702  22.197  0.00  0.00    -0.389 OA
ATOM     16  H3* UNL     1       5.674  -2.991  22.340  0.00  0.00    +0.210 HD
ENDBRANCH  14  15
BRANCH  13  17
ATOM     17  C5* UNL     1       4.854  -6.601  24.565  0.00  0.00    +0.190 C 
BRANCH  17  18
ATOM     18  O5* UNL     1       4.139  -7.601  23.845  0.00  0.00    -0.392 OA
ATOM     19  H5* UNL     1       3.957  -8.316  24.483  0.00  0.00    +0.210 HD
ENDBRANCH  17  18
ENDBRANCH  13  17
ENDBRANCH   1  11
BRANCH   8  20
ATOM     20  C   UNL     1       7.911   0.343  22.488  0.00  0.00    +0.022 C 
ATOM     21  C   UNL     1       7.783   1.500  23.151  0.00  0.00    +0.052 C 
ATOM     22 BR   UNL     1       7.337   3.110  22.342  0.00  0.00    -0.059 Br
ENDBRANCH   8  20
TORSDOF 5
ENDMDL
MODEL 5
REMARK VINA RESULT:      -5.6      2.304      3.378
REMARK  Name = 
REMARK  5 active torsions:
REMARK  status: ('A' for Active; 'I' for Inactive)
REMARK    1  A    between atoms: C3*_2  and  O3*_22
REMARK    2  A    between atoms: C4*_4  and  C5*_20
REMARK    3  A    between atoms: C1*_7  and  N_9
REMARK    4  A    between atoms: C_11  and  C_17
REMARK    5  A    between atoms: C5*_20  and  O5*_21
REMARK                            x       y       z     vdW  Elec       q    Type
REMARK                         _______ _______ _______ _____ _____    ______ ____
ROOT
ATOM      1  N   UNL     1       9.196   0.371  22.937  0.00  0.00    -0.273 N 
ATOM      2  C   UNL     1      10.252   0.142  23.804  0.00  0.00    +0.331 A 
ATOM      3  O   UNL     1      11.018   1.018  24.204  0.00  0.00    -0.246 OA
ATOM      4  N   UNL     1      10.420  -1.153  24.206  0.00  0.00    -0.274 N 
ATOM      5  H   UNL     1      11.168  -1.335  24.855  0.00  0.00    +0.173 HD
ATOM      6  C   UNL     1       9.689  -2.228  23.786  0.00  0.00    +0.261 A 
ATOM      7  O   UNL     1       9.921  -3.358  24.203  0.00  0.00    -0.267 OA
ATOM      8  C   UNL     1       8.612  -1.949  22.790  0.00  0.00    +0.056 A 
ATOM      9  C   UNL     1       8.422  -0.666  22.449  0.00  0.00    +0.106 A 
ENDROOT
BRANCH   1  11
ATOM     10  C2* UNL     1       7.915   1.877  21.415  0.00  0.00    +0.088 C 
ATOM     11  C1* UNL     1       9.012   1.744  22.469  0.00  0.00    +0.226 C 
ATOM     12  O4* UNL     1       8.696   2.620  23.569  0.00  0.00    -0.348 OA
ATOM     13  C4* UNL     1       7.434   3.273  23.295  0.00  0.00    +0.175 C 
ATOM     14  C3* UNL     1       6.762   2.471  22.183  0.00  0.00    +0.150 C 
BRANCH  14  15
ATOM     15  O3* UNL     1       5.983   1.413  22.757  0.00  0.00    -0.389 OA
ATOM     16  H3* UNL     1       6.501   1.036  23.492  0.00  0.00    +0.210 HD
ENDBRANCH  14  15
BRANCH  13  17
ATOM     17  C5* UNL     1       7.717   4.731  22.917  0.00  0.00    +0.190 C 
BRANCH  17  18
ATOM     18  O5* UNL     1       6.934   5.150  21.802  0.00  0.00    -0.392 OA
ATOM     19  H5* UNL     1       6.343   4.403  21.589  0.00  0.00    +0.210 HD
ENDBRANCH  17  18
ENDBRANCH  13  17
ENDBRANCH   1  11
BRANCH   8  20
ATOM     20  C   UNL     1       7.795  -3.049  22.304  0.00  0.00    +0.022 C 
ATOM     21  C   UNL     1       6.743  -3.581  22.941  0.00  0.00    +0.052 C 
ATOM     22 BR   UNL     1       5.730  -4.983  22.268  0.00  0.00    -0.059 Br
ENDBRANCH   8  20
TORSDOF 5
ENDMDL
MODEL 6
REMARK VINA RESULT:      -5.6      3.273      5.830
REMARK  Name = 
REMARK  5 active torsions:
REMARK  status: ('A' for Active; 'I' for Inactive)
REMARK    1  A    between atoms: C3*_2  and  O3*_22
REMARK    2  A    between atoms: C4*_4  and  C5*_20
REMARK    3  A    between atoms: C1*_7  and  N_9
REMARK    4  A    between atoms: C_11  and  C_17
REMARK    5  A    between atoms: C5*_20  and  O5*_21
REMARK                            x       y       z     vdW  Elec       q    Type
REMARK                         _______ _______ _______ _____ _____    ______ ____
ROOT
ATOM      1  N   UNL     1       8.207  -2.810  23.347  0.00  0.00    -0.273 N 
ATOM      2  C   UNL     1       9.473  -2.887  23.902  0.00  0.00    +0.331 A 
ATOM      3  O   UNL     1       9.931  -3.896  24.437  0.00  0.00    -0.246 OA
ATOM      4  N   UNL     1      10.220  -1.744  23.838  0.00  0.00    -0.274 N 
ATOM      5  H   UNL     1      11.153  -1.789  24.216  0.00  0.00    +0.173 HD
ATOM      6  C   UNL     1       9.810  -0.541  23.338  0.00  0.00    +0.261 A 
ATOM      7  O   UNL     1      10.556   0.433  23.330  0.00  0.00    -0.267 OA
ATOM      8  C   UNL     1       8.410  -0.480  22.822  0.00  0.00    +0.056 A 
ATOM      9  C   UNL     1       7.710  -1.623  22.839  0.00  0.00    +0.106 A 
ENDROOT
BRANCH   1  11
ATOM     10  C2* UNL     1       6.673  -4.164  24.774  0.00  0.00    +0.088 C 
ATOM     11  C1* UNL     1       7.376  -4.010  23.427  0.00  0.00    +0.226 C 
ATOM     12  O4* UNL     1       6.378  -4.012  22.388  0.00  0.00    -0.348 OA
ATOM     13  C4* UNL     1       5.071  -4.113  23.000  0.00  0.00    +0.175 C 
ATOM     14  C3* UNL     1       5.252  -3.758  24.474  0.00  0.00    +0.150 C 
BRANCH  14  15
ATOM     15  O3* UNL     1       5.119  -2.341  24.647  0.00  0.00    -0.389 OA
ATOM     16  H3* UNL     1       4.309  -2.066  24.179  0.00  0.00    +0.210 HD
ENDBRANCH  14  15
BRANCH  13  17
ATOM     17  C5* UNL     1       4.539  -5.532  22.770  0.00  0.00    +0.190 C 
BRANCH  17  18
ATOM     18  O5* UNL     1       5.156  -6.154  21.646  0.00  0.00    -0.392 OA
ATOM     19  H5* UNL     1       5.783  -6.807  22.009  0.00  0.00    +0.210 HD
ENDBRANCH  17  18
ENDBRANCH  13  17
ENDBRANCH   1  11
BRANCH   8  20
ATOM     20  C   UNL     1       7.913   0.771  22.274  0.00  0.00    +0.022 C 
ATOM     21  C   UNL     1       7.315   1.747  22.971  0.00  0.00    +0.052 C 
ATOM     22 BR   UNL     1       6.706   3.330  22.218  0.00  0.00    -0.059 Br
ENDBRANCH   8  20
TORSDOF 5
ENDMDL
MODEL 7
REMARK VINA RESULT:      -5.6      4.018      6.623
REMARK  Name = 
REMARK  5 active torsions:
REMARK  status: ('A' for Active; 'I' for Inactive)
REMARK    1  A    between atoms: C3*_2  and  O3*_22
REMARK    2  A    between atoms: C4*_4  and  C5*_20
REMARK    3  A    between atoms: C1*_7  and  N_9
REMARK    4  A    between atoms: C_11  and  C_17
REMARK    5  A    between atoms: C5*_20  and  O5*_21
REMARK                            x       y       z     vdW  Elec       q    Type
REMARK                         _______ _______ _______ _____ _____    ______ ____
ROOT
ATOM      1  N   UNL     1       9.576   2.629  23.239  0.00  0.00    -0.273 N 
ATOM      2  C   UNL     1      10.372   3.754  23.380  0.00  0.00    +0.331 A 
ATOM      3  O   UNL     1      11.601   3.726  23.441  0.00  0.00    -0.246 OA
ATOM      4  N   UNL     1       9.708   4.945  23.462  0.00  0.00    -0.274 N 
ATOM      5  H   UNL     1      10.272   5.777  23.542  0.00  0.00    +0.173 HD
ATOM      6  C   UNL     1       8.352   5.112  23.479  0.00  0.00    +0.261 A 
ATOM      7  O   UNL     1       7.849   6.228  23.562  0.00  0.00    -0.267 OA
ATOM      8  C   UNL     1       7.530   3.868  23.405  0.00  0.00    +0.056 A 
ATOM      9  C   UNL     1       8.196   2.712  23.267  0.00  0.00    +0.106 A 
ENDROOT
BRANCH   1  11
ATOM     10  C2* UNL     1      10.872   0.920  24.512  0.00  0.00    +0.088 C 
ATOM     11  C1* UNL     1      10.261   1.339  23.176  0.00  0.00    +0.226 C 
ATOM     12  O4* UNL     1       9.359   0.303  22.742  0.00  0.00    -0.348 OA
ATOM     13  C4* UNL     1       9.328  -0.736  23.747  0.00  0.00    +0.175 C 
ATOM     14  C3* UNL     1       9.917  -0.130  25.019  0.00  0.00    +0.150 C 
BRANCH  14  15
ATOM     15  O3* UNL     1       8.877   0.504  25.776  0.00  0.00    -0.389 OA
ATOM     16  H3* UNL     1       8.250   0.893  25.138  0.00  0.00    +0.210 HD
ENDBRANCH  14  15
BRANCH  13  17
ATOM     17  C5* UNL     1      10.112  -1.943  23.220  0.00  0.00    +0.190 C 
BRANCH  17  18
ATOM     18  O5* UNL     1      10.424  -1.809  21.836  0.00  0.00    -0.392 OA
ATOM     19  H5* UNL     1      11.394  -1.725  21.784  0.00  0.00    +0.210 HD
ENDBRANCH  17  18
ENDBRANCH  13  17
ENDBRANCH   1  11
BRANCH   8  20
ATOM     20  C   UNL     1       6.081   3.976  23.415  0.00  0.00    +0.022 C 
ATOM     21  C   UNL     1       5.249   3.411  22.529  0.00  0.00    +0.052 C 
ATOM     22 BR   UNL     1       3.402   3.576  22.596  0.00  0.00    -0.059 Br
ENDBRANCH   8  20
TORSDOF 5
ENDMDL
MODEL 8
REMARK VINA RESULT:      -5.5      3.070      6.037
REMARK  Name = 
REMARK  5 active torsions:
REMARK  status: ('A' for Active; 'I' for Inactive)
REMARK    1  A    between atoms: C3*_2  and  O3*_22
REMARK    2  A    between atoms: C4*_4  and  C5*_20
REMARK    3  A    between atoms: C1*_7  and  N_9
REMARK    4  A    between atoms: C_11  and  C_17
REMARK    5  A    between atoms: C5*_20  and  O5*_21
REMARK                            x       y       z     vdW  Elec       q    Type
REMARK                         _______ _______ _______ _____ _____    ______ ____
ROOT
ATOM      1  N   UNL     1       8.412  -2.054  24.541  0.00  0.00    -0.273 N 
ATOM      2  C   UNL     1       9.480  -2.550  23.812  0.00  0.00    +0.331 A 
ATOM      3  O   UNL     1      10.169  -3.507  24.161  0.00  0.00    -0.246 OA
ATOM      4  N   UNL     1       9.755  -1.897  22.643  0.00  0.00    -0.274 N 
ATOM      5  H   UNL     1      10.514  -2.258  22.087  0.00  0.00    +0.173 HD
ATOM      6  C   UNL     1       9.118  -0.783  22.174  0.00  0.00    +0.261 A 
ATOM      7  O   UNL     1       9.444  -0.264  21.110  0.00  0.00    -0.267 OA
ATOM      8  C   UNL     1       8.025  -0.234  23.029  0.00  0.00    +0.056 A 
ATOM      9  C   UNL     1       7.730  -0.919  24.144  0.00  0.00    +0.106 A 
ENDROOT
BRANCH   1  11
ATOM     10  C2* UNL     1       6.954  -2.074  26.564  0.00  0.00    +0.088 C 
ATOM     11  C1* UNL     1       8.114  -2.717  25.809  0.00  0.00    +0.226 C 
ATOM     12  O4* UNL     1       7.806  -4.109  25.597  0.00  0.00    -0.348 OA
ATOM     13  C4* UNL     1       6.492  -4.381  26.138  0.00  0.00    +0.175 C 
ATOM     14  C3* UNL     1       5.810  -3.027  26.325  0.00  0.00    +0.150 C 
BRANCH  14  15
ATOM     15  O3* UNL     1       5.134  -2.659  25.116  0.00  0.00    -0.389 OA
ATOM     16  H3* UNL     1       5.699  -2.013  24.652  0.00  0.00    +0.210 HD
ENDBRANCH  14  15
BRANCH  13  17
ATOM     17  C5* UNL     1       6.659  -5.170  27.440  0.00  0.00    +0.190 C 
BRANCH  17  18
ATOM     18  O5* UNL     1       7.904  -5.862  27.485  0.00  0.00    -0.392 OA
ATOM     19  H5* UNL     1       8.596  -5.182  27.378  0.00  0.00    +0.210 HD
ENDBRANCH  17  18
ENDBRANCH  13  17
ENDBRANCH   1  11
BRANCH   8  20
ATOM     20  C   UNL     1       7.306   0.949  22.586  0.00  0.00    +0.022 C 
ATOM     21  C   UNL     1       7.476   2.190  23.060  0.00  0.00    +0.052 C 
ATOM     22 BR   UNL     1       6.533   3.667  22.448  0.00  0.00    -0.059 Br
ENDBRANCH   8  20
TORSDOF 5
ENDMDL
MODEL 9
REMARK VINA RESULT:      -5.5      4.484      6.722
REMARK  Name = 
REMARK  5 active torsions:
REMARK  status: ('A' for Active; 'I' for Inactive)
REMARK    1  A    between atoms: C3*_2  and  O3*_22
REMARK    2  A    between atoms: C4*_4  and  C5*_20
REMARK    3  A    between atoms: C1*_7  and  N_9
REMARK    4  A    between atoms: C_11  and  C_17
REMARK    5  A    between atoms: C5*_20  and  O5*_21
REMARK                            x       y       z     vdW  Elec       q    Type
REMARK                         _______ _______ _______ _____ _____    ______ ____
ROOT
ATOM      1  N   UNL     1       6.721  -5.444  24.880  0.00  0.00    -0.273 N 
ATOM      2  C   UNL     1       7.704  -5.045  23.989  0.00  0.00    +0.331 A 
ATOM      3  O   UNL     1       8.857  -4.765  24.314  0.00  0.00    -0.246 OA
ATOM      4  N   UNL     1       7.321  -4.965  22.679  0.00  0.00    -0.274 N 
ATOM      5  H   UNL     1       8.029  -4.700  22.013  0.00  0.00    +0.173 HD
ATOM      6  C   UNL     1       6.062  -5.179  22.194  0.00  0.00    +0.261 A 
ATOM      7  O   UNL     1       5.815  -5.076  20.996  0.00  0.00    -0.267 OA
ATOM      8  C   UNL     1       5.014  -5.528  23.199  0.00  0.00    +0.056 A 
ATOM      9  C   UNL     1       5.418  -5.660  24.471  0.00  0.00    +0.106 A 
ENDROOT
BRANCH   1  11
ATOM     10  C2* UNL     1       6.985  -4.166  27.006  0.00  0.00    +0.088 C 
ATOM     11  C1* UNL     1       7.098  -5.511  26.291  0.00  0.00    +0.226 C 
ATOM     12  O4* UNL     1       6.282  -6.470  26.992  0.00  0.00    -0.348 OA
ATOM     13  C4* UNL     1       5.621  -5.802  28.091  0.00  0.00    +0.175 C 
ATOM     14  C3* UNL     1       5.718  -4.304  27.812  0.00  0.00    +0.150 C 
BRANCH  14  15
ATOM     15  O3* UNL     1       4.603  -3.890  27.012  0.00  0.00    -0.389 OA
ATOM     16  H3* UNL     1       3.881  -3.649  27.621  0.00  0.00    +0.210 HD
ENDBRANCH  14  15
BRANCH  13  17
ATOM     17  C5* UNL     1       6.299  -6.230  29.396  0.00  0.00    +0.190 C 
BRANCH  17  18
ATOM     18  O5* UNL     1       6.726  -7.589  29.351  0.00  0.00    -0.392 OA
ATOM     19  H5* UNL     1       6.969  -7.766  28.423  0.00  0.00    +0.210 HD
ENDBRANCH  17  18
ENDBRANCH  13  17
ENDBRANCH   1  11
BRANCH   8  20
ATOM     20  C   UNL     1       3.654  -5.772  22.747  0.00  0.00    +0.022 C 
ATOM     21  C   UNL     1       2.539  -5.418  23.400  0.00  0.00    +0.052 C 
ATOM     22 BR   UNL     1       0.825  -5.748  22.771  0.00  0.00    -0.059 Br
ENDBRANCH   8  20
TORSDOF 5
ENDMDL
