MODEL 1
REMARK VINA RESULT:      -7.2      0.000      0.000
REMARK  Name = 
REMARK  18 active torsions:
REMARK  status: ('A' for Active; 'I' for Inactive)
REMARK    1  A    between atoms: C_1  and  C_2
REMARK    2  A    between atoms: C_2  and  C_41
REMARK    3  A    between atoms: C_7  and  C_27
REMARK    4  A    between atoms: C_11  and  C_13
REMARK    5  A    between atoms: C_13  and  C_15
REMARK    6  A    between atoms: C_13  and  N_19
REMARK    7  A    between atoms: C_15  and  C_16
REMARK    8  A    between atoms: C_15  and  C_17
REMARK    9  A    between atoms: C_15  and  C_18
REMARK   10  A    between atoms: N_22  and  C_23
REMARK   11  A    between atoms: C_23  and  C_24
REMARK   12  A    between atoms: C_23  and  C_25
REMARK   13  A    between atoms: C_23  and  C_26
REMARK   14  A    between atoms: N_29  and  C_30
REMARK   15  A    between atoms: C_30  and  C_31
REMARK   16  A    between atoms: C_30  and  C_36
REMARK   17  A    between atoms: C_31  and  C_32
REMARK   18  A    between atoms: C_36  and  C_38
REMARK                            x       y       z     vdW  Elec       q    Type
REMARK                         _______ _______ _______ _____ _____    ______ ____
ROOT
ATOM      1  C   UNL     1       4.505   0.067  29.592  0.00  0.00    +0.011 C 
ATOM      2  C   UNL     1       4.679   0.254  28.099  0.00  0.00    -0.025 C 
ATOM      3  C   UNL     1       3.519   0.960  27.454  0.00  0.00    +0.011 C 
ATOM      4  C   UNL     1       5.428  -0.828  27.327  0.00  0.00    +0.030 C 
ATOM      5  C   UNL     1       5.480  -1.004  25.787  0.00  0.00    +0.166 C 
ATOM      6  N   UNL     1       6.608  -0.087  25.467  0.00  0.00    -0.288 N 
ATOM      7  C   UNL     1       7.237  -0.010  24.239  0.00  0.00    +0.237 C 
ATOM      8  O   UNL     1       6.956  -0.827  23.361  0.00  0.00    -0.274 OA
ATOM      9  C   UNL     1       6.597   1.048  26.383  0.00  0.00    +0.113 C 
ATOM     10  C   UNL     1       6.110   0.473  27.659  0.00  0.00    +0.018 C 
ENDROOT
BRANCH   5  11
ATOM     11  C   UNL     1       5.293  -2.551  25.470  0.00  0.00    +0.234 C 
ATOM     12  N   UNL     1       6.378  -3.395  25.496  0.00  0.00    -0.304 N 
ATOM     13  H   UNL     1       7.295  -2.981  25.676  0.00  0.00    +0.149 HD
ATOM     14  O   UNL     1       4.202  -2.970  25.066  0.00  0.00    -0.274 OA
BRANCH  12  15
ATOM     15  C   UNL     1       6.325  -4.784  24.960  0.00  0.00    +0.149 C 
BRANCH  15  16
ATOM     16  C   UNL     1       6.131  -5.805  26.094  0.00  0.00    +0.237 C 
ATOM     17  O   UNL     1       5.331  -6.739  26.060  0.00  0.00    -0.285 OA
BRANCH  16  18
ATOM     18  C   UNL     1       6.993  -5.633  27.372  0.00  0.00    +0.279 C 
ATOM     19  N   UNL     1       6.613  -6.439  28.413  0.00  0.00    -0.323 N 
ATOM     20  H   UNL     1       7.145  -6.424  29.273  0.00  0.00    +0.145 HD
ATOM     21  H   UNL     1       5.911  -7.157  28.273  0.00  0.00    +0.145 HD
ATOM     22  O   UNL     1       7.916  -4.849  27.437  0.00  0.00    -0.267 OA
ENDBRANCH  16  18
ENDBRANCH  15  16
BRANCH  15  23
ATOM     23  C   UNL     1       7.573  -5.116  24.110  0.00  0.00    +0.034 C 
BRANCH  23  24
ATOM     24  C   UNL     1       7.291  -4.970  22.620  0.00  0.00    -0.009 C 
ATOM     25  C   UNL     1       5.825  -4.701  22.186  0.00  0.00    +0.003 C 
ATOM     26  C   UNL     1       6.131  -5.547  20.939  0.00  0.00    +0.001 C 
ATOM     27  C   UNL     1       7.171  -6.288  21.808  0.00  0.00    +0.003 C 
ENDBRANCH  23  24
ENDBRANCH  15  23
ENDBRANCH  12  15
ENDBRANCH   5  11
BRANCH   7  28
ATOM     28  C   UNL     1       8.363   1.089  24.029  0.00  0.00    +0.166 C 
BRANCH  28  29
ATOM     29  N   UNL     1       7.914   2.240  23.200  0.00  0.00    -0.288 N 
ATOM     30  H   UNL     1       7.593   2.060  22.260  0.00  0.00    +0.151 HD
ATOM     31  C   UNL     1       7.918   3.535  23.671  0.00  0.00    +0.301 C 
ATOM     32  N   UNL     1       7.682   4.475  22.696  0.00  0.00    -0.295 N 
ATOM     33  H   UNL     1       7.923   4.192  21.759  0.00  0.00    +0.151 HD
ATOM     34  O   UNL     1       8.120   3.811  24.847  0.00  0.00    -0.253 OA
BRANCH  32  35
ATOM     35  C   UNL     1       7.672   5.943  22.955  0.00  0.00    +0.028 C 
ATOM     36  C   UNL     1       6.694   6.311  24.080  0.00  0.00    +0.031 C 
ATOM     37  C   UNL     1       7.216   6.682  21.678  0.00  0.00    +0.031 C 
ATOM     38  C   UNL     1       9.082   6.474  23.305  0.00  0.00    +0.031 C 
ENDBRANCH  32  35
ENDBRANCH  28  29
BRANCH  28  39
ATOM     39  C   UNL     1       9.754   0.533  23.529  0.00  0.00    -0.011 C 
ATOM     40  C   UNL     1      10.914   1.319  24.182  0.00  0.00    +0.013 C 
ATOM     41  C   UNL     1       9.878   0.731  21.994  0.00  0.00    +0.013 C 
ATOM     42  C   UNL     1       9.959  -0.964  23.822  0.00  0.00    +0.013 C 
ENDBRANCH  28  39
ENDBRANCH   7  28
TORSDOF 10
ENDMDL
MODEL 2
REMARK VINA RESULT:      -6.6      3.252      4.964
REMARK  Name = 
REMARK  18 active torsions:
REMARK  status: ('A' for Active; 'I' for Inactive)
REMARK    1  A    between atoms: C_1  and  C_2
REMARK    2  A    between atoms: C_2  and  C_41
REMARK    3  A    between atoms: C_7  and  C_27
REMARK    4  A    between atoms: C_11  and  C_13
REMARK    5  A    between atoms: C_13  and  C_15
REMARK    6  A    between atoms: C_13  and  N_19
REMARK    7  A    between atoms: C_15  and  C_16
REMARK    8  A    between atoms: C_15  and  C_17
REMARK    9  A    between atoms: C_15  and  C_18
REMARK   10  A    between atoms: N_22  and  C_23
REMARK   11  A    between atoms: C_23  and  C_24
REMARK   12  A    between atoms: C_23  and  C_25
REMARK   13  A    between atoms: C_23  and  C_26
REMARK   14  A    between atoms: N_29  and  C_30
REMARK   15  A    between atoms: C_30  and  C_31
REMARK   16  A    between atoms: C_30  and  C_36
REMARK   17  A    between atoms: C_31  and  C_32
REMARK   18  A    between atoms: C_36  and  C_38
REMARK                            x       y       z     vdW  Elec       q    Type
REMARK                         _______ _______ _______ _____ _____    ______ ____
ROOT
ATOM      1  C   UNL     1       4.455   0.028  29.366  0.00  0.00    +0.011 C 
ATOM      2  C   UNL     1       4.408   0.150  27.857  0.00  0.00    -0.025 C 
ATOM      3  C   UNL     1       3.249  -0.585  27.242  0.00  0.00    +0.011 C 
ATOM      4  C   UNL     1       5.732   0.236  27.105  0.00  0.00    +0.030 C 
ATOM      5  C   UNL     1       5.947   0.076  25.578  0.00  0.00    +0.166 C 
ATOM      6  N   UNL     1       5.684   1.474  25.140  0.00  0.00    -0.288 N 
ATOM      7  C   UNL     1       5.943   1.966  23.875  0.00  0.00    +0.237 C 
ATOM      8  O   UNL     1       6.548   1.263  23.062  0.00  0.00    -0.274 OA
ATOM      9  C   UNL     1       4.660   2.073  25.989  0.00  0.00    +0.113 C 
ATOM     10  C   UNL     1       4.906   1.475  27.322  0.00  0.00    +0.018 C 
ENDROOT
BRANCH   5  11
ATOM     11  C   UNL     1       7.225  -0.844  25.362  0.00  0.00    +0.234 C 
ATOM     12  N   UNL     1       7.589  -1.232  24.094  0.00  0.00    -0.304 N 
ATOM     13  H   UNL     1       6.984  -0.947  23.321  0.00  0.00    +0.149 HD
ATOM     14  O   UNL     1       7.809  -1.326  26.340  0.00  0.00    -0.274 OA
BRANCH  12  15
ATOM     15  C   UNL     1       8.603  -2.293  23.840  0.00  0.00    +0.149 C 
BRANCH  15  16
ATOM     16  C   UNL     1       9.794  -1.737  23.041  0.00  0.00    +0.237 C 
ATOM     17  O   UNL     1      10.855  -2.333  22.868  0.00  0.00    -0.285 OA
BRANCH  16  18
ATOM     18  C   UNL     1       9.648  -0.320  22.425  0.00  0.00    +0.279 C 
ATOM     19  N   UNL     1       9.364  -0.322  21.085  0.00  0.00    -0.323 N 
ATOM     20  H   UNL     1       9.210   0.556  20.608  0.00  0.00    +0.145 HD
ATOM     21  H   UNL     1       9.150  -1.191  20.609  0.00  0.00    +0.145 HD
ATOM     22  O   UNL     1       9.779   0.693  23.079  0.00  0.00    -0.267 OA
ENDBRANCH  16  18
ENDBRANCH  15  16
BRANCH  15  23
ATOM     23  C   UNL     1       7.980  -3.523  23.142  0.00  0.00    +0.034 C 
BRANCH  23  24
ATOM     24  C   UNL     1       7.864  -4.708  24.092  0.00  0.00    -0.009 C 
ATOM     25  C   UNL     1       6.801  -4.628  25.220  0.00  0.00    +0.003 C 
ATOM     26  C   UNL     1       7.793  -5.417  26.091  0.00  0.00    +0.001 C 
ATOM     27  C   UNL     1       8.910  -4.778  25.238  0.00  0.00    +0.003 C 
ENDBRANCH  23  24
ENDBRANCH  15  23
ENDBRANCH  12  15
ENDBRANCH   5  11
BRANCH   7  28
ATOM     28  C   UNL     1       5.517   3.457  23.536  0.00  0.00    +0.166 C 
BRANCH  28  29
ATOM     29  N   UNL     1       4.817   3.586  22.229  0.00  0.00    -0.288 N 
ATOM     30  H   UNL     1       5.363   3.813  21.411  0.00  0.00    +0.151 HD
ATOM     31  C   UNL     1       3.458   3.403  22.099  0.00  0.00    +0.301 C 
ATOM     32  N   UNL     1       2.968   3.778  20.870  0.00  0.00    -0.295 N 
ATOM     33  H   UNL     1       3.514   4.471  20.384  0.00  0.00    +0.151 HD
ATOM     34  O   UNL     1       2.761   2.953  23.000  0.00  0.00    -0.253 OA
BRANCH  32  35
ATOM     35  C   UNL     1       1.525   3.706  20.504  0.00  0.00    +0.028 C 
ATOM     36  C   UNL     1       1.010   2.260  20.521  0.00  0.00    +0.031 C 
ATOM     37  C   UNL     1       1.335   4.255  19.073  0.00  0.00    +0.031 C 
ATOM     38  C   UNL     1       0.650   4.573  21.440  0.00  0.00    +0.031 C 
ENDBRANCH  32  35
ENDBRANCH  28  29
BRANCH  28  39
ATOM     39  C   UNL     1       6.669   4.529  23.675  0.00  0.00    -0.011 C 
ATOM     40  C   UNL     1       6.131   5.812  24.348  0.00  0.00    +0.013 C 
ATOM     41  C   UNL     1       7.183   4.934  22.267  0.00  0.00    +0.013 C 
ATOM     42  C   UNL     1       7.879   4.029  24.485  0.00  0.00    +0.013 C 
ENDBRANCH  28  39
ENDBRANCH   7  28
TORSDOF 10
ENDMDL
MODEL 3
REMARK VINA RESULT:      -6.2      3.229      4.729
REMARK  Name = 
REMARK  18 active torsions:
REMARK  status: ('A' for Active; 'I' for Inactive)
REMARK    1  A    between atoms: C_1  and  C_2
REMARK    2  A    between atoms: C_2  and  C_41
REMARK    3  A    between atoms: C_7  and  C_27
REMARK    4  A    between atoms: C_11  and  C_13
REMARK    5  A    between atoms: C_13  and  C_15
REMARK    6  A    between atoms: C_13  and  N_19
REMARK    7  A    between atoms: C_15  and  C_16
REMARK    8  A    between atoms: C_15  and  C_17
REMARK    9  A    between atoms: C_15  and  C_18
REMARK   10  A    between atoms: N_22  and  C_23
REMARK   11  A    between atoms: C_23  and  C_24
REMARK   12  A    between atoms: C_23  and  C_25
REMARK   13  A    between atoms: C_23  and  C_26
REMARK   14  A    between atoms: N_29  and  C_30
REMARK   15  A    between atoms: C_30  and  C_31
REMARK   16  A    between atoms: C_30  and  C_36
REMARK   17  A    between atoms: C_31  and  C_32
REMARK   18  A    between atoms: C_36  and  C_38
REMARK                            x       y       z     vdW  Elec       q    Type
REMARK                         _______ _______ _______ _____ _____    ______ ____
ROOT
ATOM      1  C   UNL     1       9.378  -1.121  21.531  0.00  0.00    +0.011 C 
ATOM      2  C   UNL     1       8.796  -0.396  22.726  0.00  0.00    -0.025 C 
ATOM      3  C   UNL     1       9.833  -0.006  23.742  0.00  0.00    +0.011 C 
ATOM      4  C   UNL     1       7.397  -0.792  23.190  0.00  0.00    +0.030 C 
ATOM      5  C   UNL     1       6.720  -0.411  24.532  0.00  0.00    +0.166 C 
ATOM      6  N   UNL     1       6.150   0.912  24.157  0.00  0.00    -0.288 N 
ATOM      7  C   UNL     1       5.246   1.626  24.921  0.00  0.00    +0.237 C 
ATOM      8  O   UNL     1       4.760   1.107  25.929  0.00  0.00    -0.274 OA
ATOM      9  C   UNL     1       7.036   1.584  23.213  0.00  0.00    +0.113 C 
ATOM     10  C   UNL     1       7.602   0.477  22.406  0.00  0.00    +0.018 C 
ENDROOT
BRANCH   5  11
ATOM     11  C   UNL     1       6.006  -1.712  25.101  0.00  0.00    +0.234 C 
ATOM     12  N   UNL     1       6.732  -2.860  25.311  0.00  0.00    -0.304 N 
ATOM     13  H   UNL     1       7.719  -2.851  25.043  0.00  0.00    +0.149 HD
ATOM     14  O   UNL     1       4.775  -1.736  25.222  0.00  0.00    -0.274 OA
BRANCH  12  15
ATOM     15  C   UNL     1       6.090  -4.176  25.587  0.00  0.00    +0.149 C 
BRANCH  15  16
ATOM     16  C   UNL     1       7.083  -5.144  26.251  0.00  0.00    +0.237 C 
ATOM     17  O   UNL     1       6.766  -6.197  26.802  0.00  0.00    -0.285 OA
BRANCH  16  18
ATOM     18  C   UNL     1       8.585  -4.756  26.237  0.00  0.00    +0.279 C 
ATOM     19  N   UNL     1       9.395  -5.686  25.640  0.00  0.00    -0.323 N 
ATOM     20  H   UNL     1      10.384  -5.497  25.549  0.00  0.00    +0.145 HD
ATOM     21  H   UNL     1       8.991  -6.478  25.152  0.00  0.00    +0.145 HD
ATOM     22  O   UNL     1       8.998  -3.722  26.719  0.00  0.00    -0.267 OA
ENDBRANCH  16  18
ENDBRANCH  15  16
BRANCH  15  23
ATOM     23  C   UNL     1       5.473  -4.789  24.309  0.00  0.00    +0.034 C 
BRANCH  23  24
ATOM     24  C   UNL     1       6.543  -5.360  23.388  0.00  0.00    -0.009 C 
ATOM     25  C   UNL     1       7.047  -4.465  22.225  0.00  0.00    +0.003 C 
ATOM     26  C   UNL     1       7.193  -5.760  21.408  0.00  0.00    +0.001 C 
ATOM     27  C   UNL     1       6.054  -6.331  22.279  0.00  0.00    +0.003 C 
ENDBRANCH  23  24
ENDBRANCH  15  23
ENDBRANCH  12  15
ENDBRANCH   5  11
BRANCH   7  28
ATOM     28  C   UNL     1       4.804   3.069  24.428  0.00  0.00    +0.166 C 
BRANCH  28  29
ATOM     29  N   UNL     1       4.464   3.117  22.980  0.00  0.00    -0.288 N 
ATOM     30  H   UNL     1       5.217   3.128  22.309  0.00  0.00    +0.151 HD
ATOM     31  C   UNL     1       3.162   3.140  22.529  0.00  0.00    +0.301 C 
ATOM     32  N   UNL     1       3.051   3.405  21.185  0.00  0.00    -0.295 N 
ATOM     33  H   UNL     1       3.819   3.920  20.784  0.00  0.00    +0.151 HD
ATOM     34  O   UNL     1       2.202   2.948  23.265  0.00  0.00    -0.253 OA
BRANCH  32  35
ATOM     35  C   UNL     1       1.746   3.516  20.474  0.00  0.00    +0.028 C 
ATOM     36  C   UNL     1       0.938   2.214  20.570  0.00  0.00    +0.031 C 
ATOM     37  C   UNL     1       2.004   3.798  18.977  0.00  0.00    +0.031 C 
ATOM     38  C   UNL     1       0.896   4.690  21.014  0.00  0.00    +0.031 C 
ENDBRANCH  32  35
ENDBRANCH  28  29
BRANCH  28  39
ATOM     39  C   UNL     1       5.789   4.240  24.822  0.00  0.00    -0.011 C 
ATOM     40  C   UNL     1       6.801   3.756  25.885  0.00  0.00    +0.013 C 
ATOM     41  C   UNL     1       4.988   5.410  25.454  0.00  0.00    +0.013 C 
ATOM     42  C   UNL     1       6.577   4.808  23.627  0.00  0.00    +0.013 C 
ENDBRANCH  28  39
ENDBRANCH   7  28
TORSDOF 10
ENDMDL
MODEL 4
REMARK VINA RESULT:      -6.2      3.534      5.234
REMARK  Name = 
REMARK  18 active torsions:
REMARK  status: ('A' for Active; 'I' for Inactive)
REMARK    1  A    between atoms: C_1  and  C_2
REMARK    2  A    between atoms: C_2  and  C_41
REMARK    3  A    between atoms: C_7  and  C_27
REMARK    4  A    between atoms: C_11  and  C_13
REMARK    5  A    between atoms: C_13  and  C_15
REMARK    6  A    between atoms: C_13  and  N_19
REMARK    7  A    between atoms: C_15  and  C_16
REMARK    8  A    between atoms: C_15  and  C_17
REMARK    9  A    between atoms: C_15  and  C_18
REMARK   10  A    between atoms: N_22  and  C_23
REMARK   11  A    between atoms: C_23  and  C_24
REMARK   12  A    between atoms: C_23  and  C_25
REMARK   13  A    between atoms: C_23  and  C_26
REMARK   14  A    between atoms: N_29  and  C_30
REMARK   15  A    between atoms: C_30  and  C_31
REMARK   16  A    between atoms: C_30  and  C_36
REMARK   17  A    between atoms: C_31  and  C_32
REMARK   18  A    between atoms: C_36  and  C_38
REMARK                            x       y       z     vdW  Elec       q    Type
REMARK                         _______ _______ _______ _____ _____    ______ ____
ROOT
ATOM      1  C   UNL     1       9.358   0.083  21.242  0.00  0.00    +0.011 C 
ATOM      2  C   UNL     1       8.697   0.616  22.496  0.00  0.00    -0.025 C 
ATOM      3  C   UNL     1       9.683   1.129  23.509  0.00  0.00    +0.011 C 
ATOM      4  C   UNL     1       7.412  -0.057  22.968  0.00  0.00    +0.030 C 
ATOM      5  C   UNL     1       6.726   0.112  24.349  0.00  0.00    +0.166 C 
ATOM      6  N   UNL     1       5.911   1.328  24.076  0.00  0.00    -0.288 N 
ATOM      7  C   UNL     1       4.920   1.816  24.907  0.00  0.00    +0.237 C 
ATOM      8  O   UNL     1       4.574   1.158  25.890  0.00  0.00    -0.274 OA
ATOM      9  C   UNL     1       6.625   2.205  23.155  0.00  0.00    +0.113 C 
ATOM     10  C   UNL     1       7.353   1.272  22.264  0.00  0.00    +0.018 C 
ENDROOT
BRANCH   5  11
ATOM     11  C   UNL     1       6.282  -1.330  24.849  0.00  0.00    +0.234 C 
ATOM     12  N   UNL     1       7.231  -2.290  25.114  0.00  0.00    -0.304 N 
ATOM     13  H   UNL     1       8.208  -2.051  24.931  0.00  0.00    +0.149 HD
ATOM     14  O   UNL     1       5.083  -1.634  24.867  0.00  0.00    -0.274 OA
BRANCH  12  15
ATOM     15  C   UNL     1       6.883  -3.722  25.329  0.00  0.00    +0.149 C 
BRANCH  15  16
ATOM     16  C   UNL     1       8.020  -4.461  26.055  0.00  0.00    +0.237 C 
ATOM     17  O   UNL     1       7.940  -4.909  27.198  0.00  0.00    -0.285 OA
BRANCH  16  18
ATOM     18  C   UNL     1       9.362  -4.638  25.298  0.00  0.00    +0.279 C 
ATOM     19  N   UNL     1      10.076  -5.743  25.681  0.00  0.00    -0.323 N 
ATOM     20  H   UNL     1      10.945  -5.960  25.211  0.00  0.00    +0.145 HD
ATOM     21  H   UNL     1       9.666  -6.423  26.311  0.00  0.00    +0.145 HD
ATOM     22  O   UNL     1       9.741  -3.860  24.448  0.00  0.00    -0.267 OA
ENDBRANCH  16  18
ENDBRANCH  15  16
BRANCH  15  23
ATOM     23  C   UNL     1       6.511  -4.424  24.003  0.00  0.00    +0.034 C 
BRANCH  23  24
ATOM     24  C   UNL     1       5.258  -5.278  24.154  0.00  0.00    -0.009 C 
ATOM     25  C   UNL     1       4.011  -4.885  23.318  0.00  0.00    +0.003 C 
ATOM     26  C   UNL     1       3.168  -5.368  24.510  0.00  0.00    +0.001 C 
ATOM     27  C   UNL     1       4.374  -4.993  25.399  0.00  0.00    +0.003 C 
ENDBRANCH  23  24
ENDBRANCH  15  23
ENDBRANCH  12  15
ENDBRANCH   5  11
BRANCH   7  28
ATOM     28  C   UNL     1       4.206   3.180  24.520  0.00  0.00    +0.166 C 
BRANCH  28  29
ATOM     29  N   UNL     1       4.028   3.354  23.053  0.00  0.00    -0.288 N 
ATOM     30  H   UNL     1       4.840   3.563  22.491  0.00  0.00    +0.151 HD
ATOM     31  C   UNL     1       2.800   3.236  22.439  0.00  0.00    +0.301 C 
ATOM     32  N   UNL     1       2.799   3.646  21.127  0.00  0.00    -0.295 N 
ATOM     33  H   UNL     1       3.511   4.317  20.887  0.00  0.00    +0.151 HD
ATOM     34  O   UNL     1       1.809   2.810  23.019  0.00  0.00    -0.253 OA
BRANCH  32  35
ATOM     35  C   UNL     1       1.582   3.645  20.266  0.00  0.00    +0.028 C 
ATOM     36  C   UNL     1       0.890   2.275  20.270  0.00  0.00    +0.031 C 
ATOM     37  C   UNL     1       1.989   3.961  18.810  0.00  0.00    +0.031 C 
ATOM     38  C   UNL     1       0.572   4.733  20.699  0.00  0.00    +0.031 C 
ENDBRANCH  32  35
ENDBRANCH  28  29
BRANCH  28  39
ATOM     39  C   UNL     1       4.833   4.472  25.177  0.00  0.00    -0.011 C 
ATOM     40  C   UNL     1       5.975   4.084  26.143  0.00  0.00    +0.013 C 
ATOM     41  C   UNL     1       3.756   5.209  26.018  0.00  0.00    +0.013 C 
ATOM     42  C   UNL     1       5.387   5.476  24.150  0.00  0.00    +0.013 C 
ENDBRANCH  28  39
ENDBRANCH   7  28
TORSDOF 10
ENDMDL
MODEL 5
REMARK VINA RESULT:      -6.1      2.117      9.219
REMARK  Name = 
REMARK  18 active torsions:
REMARK  status: ('A' for Active; 'I' for Inactive)
REMARK    1  A    between atoms: C_1  and  C_2
REMARK    2  A    between atoms: C_2  and  C_41
REMARK    3  A    between atoms: C_7  and  C_27
REMARK    4  A    between atoms: C_11  and  C_13
REMARK    5  A    between atoms: C_13  and  C_15
REMARK    6  A    between atoms: C_13  and  N_19
REMARK    7  A    between atoms: C_15  and  C_16
REMARK    8  A    between atoms: C_15  and  C_17
REMARK    9  A    between atoms: C_15  and  C_18
REMARK   10  A    between atoms: N_22  and  C_23
REMARK   11  A    between atoms: C_23  and  C_24
REMARK   12  A    between atoms: C_23  and  C_25
REMARK   13  A    between atoms: C_23  and  C_26
REMARK   14  A    between atoms: N_29  and  C_30
REMARK   15  A    between atoms: C_30  and  C_31
REMARK   16  A    between atoms: C_30  and  C_36
REMARK   17  A    between atoms: C_31  and  C_32
REMARK   18  A    between atoms: C_36  and  C_38
REMARK                            x       y       z     vdW  Elec       q    Type
REMARK                         _______ _______ _______ _____ _____    ______ ____
ROOT
ATOM      1  C   UNL     1      11.687   0.733  24.484  0.00  0.00    +0.011 C 
ATOM      2  C   UNL     1      10.250   0.447  24.105  0.00  0.00    -0.025 C 
ATOM      3  C   UNL     1      10.089   0.039  22.667  0.00  0.00    +0.011 C 
ATOM      4  C   UNL     1       9.155   1.265  24.784  0.00  0.00    +0.030 C 
ATOM      5  C   UNL     1       7.666   1.359  24.361  0.00  0.00    +0.166 C 
ATOM      6  N   UNL     1       7.128   0.168  25.075  0.00  0.00    -0.288 N 
ATOM      7  C   UNL     1       5.785  -0.120  25.226  0.00  0.00    +0.237 C 
ATOM      8  O   UNL     1       4.943   0.706  24.866  0.00  0.00    -0.274 OA
ATOM      9  C   UNL     1       8.135  -0.886  25.107  0.00  0.00    +0.113 C 
ATOM     10  C   UNL     1       9.418  -0.153  25.218  0.00  0.00    +0.018 C 
ENDROOT
BRANCH   5  11
ATOM     11  C   UNL     1       7.235   2.886  24.443  0.00  0.00    +0.234 C 
ATOM     12  N   UNL     1       6.752   3.526  23.326  0.00  0.00    -0.304 N 
ATOM     13  H   UNL     1       6.731   2.998  22.450  0.00  0.00    +0.149 HD
ATOM     14  O   UNL     1       7.463   3.537  25.469  0.00  0.00    -0.274 OA
BRANCH  12  15
ATOM     15  C   UNL     1       6.580   5.005  23.261  0.00  0.00    +0.149 C 
BRANCH  15  16
ATOM     16  C   UNL     1       5.124   5.375  22.928  0.00  0.00    +0.237 C 
ATOM     17  O   UNL     1       4.718   6.524  22.770  0.00  0.00    -0.285 OA
BRANCH  16  18
ATOM     18  C   UNL     1       4.099   4.217  22.799  0.00  0.00    +0.279 C 
ATOM     19  N   UNL     1       3.616   4.040  21.529  0.00  0.00    -0.323 N 
ATOM     20  H   UNL     1       2.974   3.282  21.343  0.00  0.00    +0.145 HD
ATOM     21  H   UNL     1       4.017   4.556  20.753  0.00  0.00    +0.145 HD
ATOM     22  O   UNL     1       3.758   3.538  23.744  0.00  0.00    -0.267 OA
ENDBRANCH  16  18
ENDBRANCH  15  16
BRANCH  15  23
ATOM     23  C   UNL     1       7.568   5.651  22.264  0.00  0.00    +0.034 C 
BRANCH  23  24
ATOM     24  C   UNL     1       8.692   6.384  22.985  0.00  0.00    -0.009 C 
ATOM     25  C   UNL     1       9.750   5.529  23.732  0.00  0.00    +0.003 C 
ATOM     26  C   UNL     1       9.810   6.665  24.767  0.00  0.00    +0.001 C 
ATOM     27  C   UNL     1       8.347   6.973  24.381  0.00  0.00    +0.003 C 
ENDBRANCH  23  24
ENDBRANCH  15  23
ENDBRANCH  12  15
ENDBRANCH   5  11
BRANCH   7  28
ATOM     28  C   UNL     1       5.373  -1.480  25.933  0.00  0.00    +0.166 C 
BRANCH  28  29
ATOM     29  N   UNL     1       4.571  -2.378  25.058  0.00  0.00    -0.288 N 
ATOM     30  H   UNL     1       3.670  -2.057  24.736  0.00  0.00    +0.151 HD
ATOM     31  C   UNL     1       5.017  -3.623  24.672  0.00  0.00    +0.301 C 
ATOM     32  N   UNL     1       4.054  -4.385  24.055  0.00  0.00    -0.295 N 
ATOM     33  H   UNL     1       3.103  -4.153  24.296  0.00  0.00    +0.151 HD
ATOM     34  O   UNL     1       6.163  -4.006  24.870  0.00  0.00    -0.253 OA
BRANCH  32  35
ATOM     35  C   UNL     1       4.287  -5.778  23.580  0.00  0.00    +0.028 C 
ATOM     36  C   UNL     1       5.356  -5.827  22.479  0.00  0.00    +0.031 C 
ATOM     37  C   UNL     1       2.977  -6.340  22.985  0.00  0.00    +0.031 C 
ATOM     38  C   UNL     1       4.698  -6.719  24.737  0.00  0.00    +0.031 C 
ENDBRANCH  32  35
ENDBRANCH  28  29
BRANCH  28  39
ATOM     39  C   UNL     1       4.701  -1.318  27.354  0.00  0.00    -0.011 C 
ATOM     40  C   UNL     1       4.809  -2.638  28.152  0.00  0.00    +0.013 C 
ATOM     41  C   UNL     1       3.189  -1.008  27.188  0.00  0.00    +0.013 C 
ATOM     42  C   UNL     1       5.317  -0.189  28.200  0.00  0.00    +0.013 C 
ENDBRANCH  28  39
ENDBRANCH   7  28
TORSDOF 10
ENDMDL
MODEL 6
REMARK VINA RESULT:      -5.9      2.842      4.213
REMARK  Name = 
REMARK  18 active torsions:
REMARK  status: ('A' for Active; 'I' for Inactive)
REMARK    1  A    between atoms: C_1  and  C_2
REMARK    2  A    between atoms: C_2  and  C_41
REMARK    3  A    between atoms: C_7  and  C_27
REMARK    4  A    between atoms: C_11  and  C_13
REMARK    5  A    between atoms: C_13  and  C_15
REMARK    6  A    between atoms: C_13  and  N_19
REMARK    7  A    between atoms: C_15  and  C_16
REMARK    8  A    between atoms: C_15  and  C_17
REMARK    9  A    between atoms: C_15  and  C_18
REMARK   10  A    between atoms: N_22  and  C_23
REMARK   11  A    between atoms: C_23  and  C_24
REMARK   12  A    between atoms: C_23  and  C_25
REMARK   13  A    between atoms: C_23  and  C_26
REMARK   14  A    between atoms: N_29  and  C_30
REMARK   15  A    between atoms: C_30  and  C_31
REMARK   16  A    between atoms: C_30  and  C_36
REMARK   17  A    between atoms: C_31  and  C_32
REMARK   18  A    between atoms: C_36  and  C_38
REMARK                            x       y       z     vdW  Elec       q    Type
REMARK                         _______ _______ _______ _____ _____    ______ ____
ROOT
ATOM      1  C   UNL     1       6.748   1.241  30.239  0.00  0.00    +0.011 C 
ATOM      2  C   UNL     1       6.136   1.050  28.867  0.00  0.00    -0.025 C 
ATOM      3  C   UNL     1       4.659   0.772  28.913  0.00  0.00    +0.011 C 
ATOM      4  C   UNL     1       6.993   0.396  27.788  0.00  0.00    +0.030 C 
ATOM      5  C   UNL     1       6.508  -0.160  26.424  0.00  0.00    +0.166 C 
ATOM      6  N   UNL     1       6.556   1.088  25.614  0.00  0.00    -0.288 N 
ATOM      7  C   UNL     1       6.424   1.140  24.239  0.00  0.00    +0.237 C 
ATOM      8  O   UNL     1       6.387   0.091  23.592  0.00  0.00    -0.274 OA
ATOM      9  C   UNL     1       6.216   2.234  26.449  0.00  0.00    +0.113 C 
ATOM     10  C   UNL     1       6.773   1.885  27.777  0.00  0.00    +0.018 C 
ENDROOT
BRANCH   5  11
ATOM     11  C   UNL     1       7.218  -1.563  26.192  0.00  0.00    +0.234 C 
ATOM     12  N   UNL     1       6.644  -2.498  25.364  0.00  0.00    -0.304 N 
ATOM     13  H   UNL     1       5.735  -2.271  24.954  0.00  0.00    +0.149 HD
ATOM     14  O   UNL     1       8.212  -1.868  26.862  0.00  0.00    -0.274 OA
BRANCH  12  15
ATOM     15  C   UNL     1       7.109  -3.912  25.307  0.00  0.00    +0.149 C 
BRANCH  15  16
ATOM     16  C   UNL     1       8.013  -4.145  24.085  0.00  0.00    +0.237 C 
ATOM     17  O   UNL     1       8.746  -5.121  23.937  0.00  0.00    -0.285 OA
BRANCH  16  18
ATOM     18  C   UNL     1       8.008  -3.065  22.970  0.00  0.00    +0.279 C 
ATOM     19  N   UNL     1       9.155  -2.318  22.914  0.00  0.00    -0.323 N 
ATOM     20  H   UNL     1       9.257  -1.618  22.191  0.00  0.00    +0.145 HD
ATOM     21  H   UNL     1       9.957  -2.568  23.482  0.00  0.00    +0.145 HD
ATOM     22  O   UNL     1       7.067  -2.901  22.223  0.00  0.00    -0.267 OA
ENDBRANCH  16  18
ENDBRANCH  15  16
BRANCH  15  23
ATOM     23  C   UNL     1       5.924  -4.904  25.330  0.00  0.00    +0.034 C 
BRANCH  23  24
ATOM     24  C   UNL     1       6.052  -5.903  26.473  0.00  0.00    -0.009 C 
ATOM     25  C   UNL     1       4.817  -6.783  26.805  0.00  0.00    +0.003 C 
ATOM     26  C   UNL     1       5.259  -6.694  28.275  0.00  0.00    +0.001 C 
ATOM     27  C   UNL     1       5.892  -5.334  27.909  0.00  0.00    +0.003 C 
ENDBRANCH  23  24
ENDBRANCH  15  23
ENDBRANCH  12  15
ENDBRANCH   5  11
BRANCH   7  28
ATOM     28  C   UNL     1       6.403   2.561  23.530  0.00  0.00    +0.166 C 
BRANCH  28  29
ATOM     29  N   UNL     1       5.345   2.683  22.490  0.00  0.00    -0.288 N 
ATOM     30  H   UNL     1       5.549   2.359  21.556  0.00  0.00    +0.151 HD
ATOM     31  C   UNL     1       4.104   3.216  22.759  0.00  0.00    +0.301 C 
ATOM     32  N   UNL     1       3.349   3.448  21.634  0.00  0.00    -0.295 N 
ATOM     33  H   UNL     1       3.875   3.588  20.786  0.00  0.00    +0.151 HD
ATOM     34  O   UNL     1       3.722   3.462  23.897  0.00  0.00    -0.253 OA
BRANCH  32  35
ATOM     35  C   UNL     1       1.987   4.052  21.668  0.00  0.00    +0.028 C 
ATOM     36  C   UNL     1       1.992   5.416  22.370  0.00  0.00    +0.031 C 
ATOM     37  C   UNL     1       1.037   3.122  22.456  0.00  0.00    +0.031 C 
ATOM     38  C   UNL     1       1.391   4.206  20.249  0.00  0.00    +0.031 C 
ENDBRANCH  32  35
ENDBRANCH  28  29
BRANCH  28  39
ATOM     39  C   UNL     1       7.800   3.056  22.985  0.00  0.00    -0.011 C 
ATOM     40  C   UNL     1       7.684   4.500  22.444  0.00  0.00    +0.013 C 
ATOM     41  C   UNL     1       8.249   2.161  21.798  0.00  0.00    +0.013 C 
ATOM     42  C   UNL     1       8.919   3.023  24.041  0.00  0.00    +0.013 C 
ENDBRANCH  28  39
ENDBRANCH   7  28
TORSDOF 10
ENDMDL
MODEL 7
REMARK VINA RESULT:      -5.8      2.600      5.899
REMARK  Name = 
REMARK  18 active torsions:
REMARK  status: ('A' for Active; 'I' for Inactive)
REMARK    1  A    between atoms: C_1  and  C_2
REMARK    2  A    between atoms: C_2  and  C_41
REMARK    3  A    between atoms: C_7  and  C_27
REMARK    4  A    between atoms: C_11  and  C_13
REMARK    5  A    between atoms: C_13  and  C_15
REMARK    6  A    between atoms: C_13  and  N_19
REMARK    7  A    between atoms: C_15  and  C_16
REMARK    8  A    between atoms: C_15  and  C_17
REMARK    9  A    between atoms: C_15  and  C_18
REMARK   10  A    between atoms: N_22  and  C_23
REMARK   11  A    between atoms: C_23  and  C_24
REMARK   12  A    between atoms: C_23  and  C_25
REMARK   13  A    between atoms: C_23  and  C_26
REMARK   14  A    between atoms: N_29  and  C_30
REMARK   15  A    between atoms: C_30  and  C_31
REMARK   16  A    between atoms: C_30  and  C_36
REMARK   17  A    between atoms: C_31  and  C_32
REMARK   18  A    between atoms: C_36  and  C_38
REMARK                            x       y       z     vdW  Elec       q    Type
REMARK                         _______ _______ _______ _____ _____    ______ ____
ROOT
ATOM      1  C   UNL     1       5.811  -5.980  20.994  0.00  0.00    +0.011 C 
ATOM      2  C   UNL     1       6.376  -5.268  22.205  0.00  0.00    -0.025 C 
ATOM      3  C   UNL     1       7.857  -5.469  22.369  0.00  0.00    +0.011 C 
ATOM      4  C   UNL     1       5.489  -5.146  23.440  0.00  0.00    +0.030 C 
ATOM      5  C   UNL     1       5.933  -4.730  24.866  0.00  0.00    +0.166 C 
ATOM      6  N   UNL     1       5.841  -3.250  24.736  0.00  0.00    -0.288 N 
ATOM      7  C   UNL     1       5.924  -2.359  25.789  0.00  0.00    +0.237 C 
ATOM      8  O   UNL     1       5.951  -2.787  26.945  0.00  0.00    -0.274 OA
ATOM      9  C   UNL     1       6.197  -2.851  23.379  0.00  0.00    +0.113 C 
ATOM     10  C   UNL     1       5.691  -3.959  22.536  0.00  0.00    +0.018 C 
ENDROOT
BRANCH   5  11
ATOM     11  C   UNL     1       5.232  -5.715  25.898  0.00  0.00    +0.234 C 
ATOM     12  N   UNL     1       3.863  -5.710  26.035  0.00  0.00    -0.304 N 
ATOM     13  H   UNL     1       3.337  -5.024  25.489  0.00  0.00    +0.149 HD
ATOM     14  O   UNL     1       5.921  -6.384  26.677  0.00  0.00    -0.274 OA
BRANCH  12  15
ATOM     15  C   UNL     1       3.167  -6.406  27.153  0.00  0.00    +0.149 C 
BRANCH  15  16
ATOM     16  C   UNL     1       2.098  -7.374  26.618  0.00  0.00    +0.237 C 
ATOM     17  O   UNL     1       1.224  -7.895  27.307  0.00  0.00    -0.285 OA
BRANCH  16  18
ATOM     18  C   UNL     1       2.138  -7.726  25.107  0.00  0.00    +0.279 C 
ATOM     19  N   UNL     1       1.039  -7.302  24.407  0.00  0.00    -0.323 N 
ATOM     20  H   UNL     1       0.999  -7.452  23.408  0.00  0.00    +0.145 HD
ATOM     21  H   UNL     1       0.351  -6.705  24.850  0.00  0.00    +0.145 HD
ATOM     22  O   UNL     1       3.062  -8.328  24.601  0.00  0.00    -0.267 OA
ENDBRANCH  16  18
ENDBRANCH  15  16
BRANCH  15  23
ATOM     23  C   UNL     1       2.564  -5.402  28.162  0.00  0.00    +0.034 C 
BRANCH  23  24
ATOM     24  C   UNL     1       3.333  -5.401  29.477  0.00  0.00    -0.009 C 
ATOM     25  C   UNL     1       4.616  -4.532  29.563  0.00  0.00    +0.003 C 
ATOM     26  C   UNL     1       5.189  -5.624  30.482  0.00  0.00    +0.001 C 
ATOM     27  C   UNL     1       4.273  -6.612  29.729  0.00  0.00    +0.003 C 
ENDBRANCH  23  24
ENDBRANCH  15  23
ENDBRANCH  12  15
ENDBRANCH   5  11
BRANCH   7  28
ATOM     28  C   UNL     1       5.903  -0.803  25.473  0.00  0.00    +0.166 C 
BRANCH  28  29
ATOM     29  N   UNL     1       7.258  -0.233  25.237  0.00  0.00    -0.288 N 
ATOM     30  H   UNL     1       7.970  -0.379  25.937  0.00  0.00    +0.151 HD
ATOM     31  C   UNL     1       7.570   0.478  24.100  0.00  0.00    +0.301 C 
ATOM     32  N   UNL     1       8.791   1.107  24.162  0.00  0.00    -0.295 N 
ATOM     33  H   UNL     1       9.119   1.316  25.092  0.00  0.00    +0.151 HD
ATOM     34  O   UNL     1       6.822   0.542  23.132  0.00  0.00    -0.253 OA
BRANCH  32  35
ATOM     35  C   UNL     1       9.332   1.963  23.069  0.00  0.00    +0.028 C 
ATOM     36  C   UNL     1       8.296   2.989  22.590  0.00  0.00    +0.031 C 
ATOM     37  C   UNL     1       9.703   1.073  21.862  0.00  0.00    +0.031 C 
ATOM     38  C   UNL     1      10.623   2.698  23.500  0.00  0.00    +0.031 C 
ENDBRANCH  32  35
ENDBRANCH  28  29
BRANCH  28  39
ATOM     39  C   UNL     1       5.085   0.076  26.499  0.00  0.00    -0.011 C 
ATOM     40  C   UNL     1       4.683   1.421  25.853  0.00  0.00    +0.013 C 
ATOM     41  C   UNL     1       5.971   0.409  27.730  0.00  0.00    +0.013 C 
ATOM     42  C   UNL     1       3.809  -0.613  27.018  0.00  0.00    +0.013 C 
ENDBRANCH  28  39
ENDBRANCH   7  28
TORSDOF 10
ENDMDL
MODEL 8
REMARK VINA RESULT:      -5.5      3.540      5.744
REMARK  Name = 
REMARK  18 active torsions:
REMARK  status: ('A' for Active; 'I' for Inactive)
REMARK    1  A    between atoms: C_1  and  C_2
REMARK    2  A    between atoms: C_2  and  C_41
REMARK    3  A    between atoms: C_7  and  C_27
REMARK    4  A    between atoms: C_11  and  C_13
REMARK    5  A    between atoms: C_13  and  C_15
REMARK    6  A    between atoms: C_13  and  N_19
REMARK    7  A    between atoms: C_15  and  C_16
REMARK    8  A    between atoms: C_15  and  C_17
REMARK    9  A    between atoms: C_15  and  C_18
REMARK   10  A    between atoms: N_22  and  C_23
REMARK   11  A    between atoms: C_23  and  C_24
REMARK   12  A    between atoms: C_23  and  C_25
REMARK   13  A    between atoms: C_23  and  C_26
REMARK   14  A    between atoms: N_29  and  C_30
REMARK   15  A    between atoms: C_30  and  C_31
REMARK   16  A    between atoms: C_30  and  C_36
REMARK   17  A    between atoms: C_31  and  C_32
REMARK   18  A    between atoms: C_36  and  C_38
REMARK                            x       y       z     vdW  Elec       q    Type
REMARK                         _______ _______ _______ _____ _____    ______ ____
ROOT
ATOM      1  C   UNL     1       9.816   0.529  21.509  0.00  0.00    +0.011 C 
ATOM      2  C   UNL     1       8.990   0.863  22.734  0.00  0.00    -0.025 C 
ATOM      3  C   UNL     1       9.825   1.305  23.904  0.00  0.00    +0.011 C 
ATOM      4  C   UNL     1       7.715   0.062  22.976  0.00  0.00    +0.030 C 
ATOM      5  C   UNL     1       6.878   0.018  24.280  0.00  0.00    +0.166 C 
ATOM      6  N   UNL     1       6.010   1.207  24.061  0.00  0.00    -0.288 N 
ATOM      7  C   UNL     1       4.905   1.529  24.827  0.00  0.00    +0.237 C 
ATOM      8  O   UNL     1       4.506   0.735  25.681  0.00  0.00    -0.274 OA
ATOM      9  C   UNL     1       6.751   2.233  23.336  0.00  0.00    +0.113 C 
ATOM     10  C   UNL     1       7.634   1.462  22.430  0.00  0.00    +0.018 C 
ENDROOT
BRANCH   5  11
ATOM     11  C   UNL     1       6.490  -1.499  24.556  0.00  0.00    +0.234 C 
ATOM     12  N   UNL     1       5.325  -2.017  24.041  0.00  0.00    -0.304 N 
ATOM     13  H   UNL     1       4.712  -1.381  23.526  0.00  0.00    +0.149 HD
ATOM     14  O   UNL     1       7.161  -2.172  25.347  0.00  0.00    -0.274 OA
BRANCH  12  15
ATOM     15  C   UNL     1       4.774  -3.333  24.471  0.00  0.00    +0.149 C 
BRANCH  15  16
ATOM     16  C   UNL     1       4.523  -4.246  23.260  0.00  0.00    +0.237 C 
ATOM     17  O   UNL     1       3.506  -4.918  23.094  0.00  0.00    -0.285 OA
BRANCH  16  18
ATOM     18  C   UNL     1       5.636  -4.336  22.183  0.00  0.00    +0.279 C 
ATOM     19  N   UNL     1       6.511  -5.374  22.371  0.00  0.00    -0.323 N 
ATOM     20  H   UNL     1       7.244  -5.534  21.694  0.00  0.00    +0.145 HD
ATOM     21  H   UNL     1       6.332  -6.070  23.086  0.00  0.00    +0.145 HD
ATOM     22  O   UNL     1       5.721  -3.550  21.263  0.00  0.00    -0.267 OA
ENDBRANCH  16  18
ENDBRANCH  15  16
BRANCH  15  23
ATOM     23  C   UNL     1       3.497  -3.164  25.325  0.00  0.00    +0.034 C 
BRANCH  23  24
ATOM     24  C   UNL     1       3.694  -3.696  26.739  0.00  0.00    -0.009 C 
ATOM     25  C   UNL     1       4.654  -2.916  27.677  0.00  0.00    +0.003 C 
ATOM     26  C   UNL     1       5.037  -4.280  28.275  0.00  0.00    +0.001 C 
ATOM     27  C   UNL     1       4.686  -4.882  26.898  0.00  0.00    +0.003 C 
ENDBRANCH  23  24
ENDBRANCH  15  23
ENDBRANCH  12  15
ENDBRANCH   5  11
BRANCH   7  28
ATOM     28  C   UNL     1       4.138   2.885  24.523  0.00  0.00    +0.166 C 
BRANCH  28  29
ATOM     29  N   UNL     1       4.002   3.171  23.069  0.00  0.00    -0.288 N 
ATOM     30  H   UNL     1       4.834   3.392  22.542  0.00  0.00    +0.151 HD
ATOM     31  C   UNL     1       2.786   3.140  22.421  0.00  0.00    +0.301 C 
ATOM     32  N   UNL     1       2.831   3.643  21.143  0.00  0.00    -0.295 N 
ATOM     33  H   UNL     1       3.570   4.305  20.968  0.00  0.00    +0.151 HD
ATOM     34  O   UNL     1       1.767   2.708  22.946  0.00  0.00    -0.253 OA
BRANCH  32  35
ATOM     35  C   UNL     1       1.636   3.745  20.257  0.00  0.00    +0.028 C 
ATOM     36  C   UNL     1       2.026   4.149  18.829  0.00  0.00    +0.031 C 
ATOM     37  C   UNL     1       0.686   4.831  20.809  0.00  0.00    +0.031 C 
ATOM     38  C   UNL     1       0.836   2.422  20.218  0.00  0.00    +0.031 C 
ENDBRANCH  32  35
ENDBRANCH  28  29
BRANCH  28  39
ATOM     39  C   UNL     1       4.677   4.147  25.305  0.00  0.00    -0.011 C 
ATOM     40  C   UNL     1       3.515   4.875  26.017  0.00  0.00    +0.013 C 
ATOM     41  C   UNL     1       5.302   5.158  24.305  0.00  0.00    +0.013 C 
ATOM     42  C   UNL     1       5.751   3.808  26.354  0.00  0.00    +0.013 C 
ENDBRANCH  28  39
ENDBRANCH   7  28
TORSDOF 10
ENDMDL
MODEL 9
REMARK VINA RESULT:      -5.3      3.609      6.420
REMARK  Name = 
REMARK  18 active torsions:
REMARK  status: ('A' for Active; 'I' for Inactive)
REMARK    1  A    between atoms: C_1  and  C_2
REMARK    2  A    between atoms: C_2  and  C_41
REMARK    3  A    between atoms: C_7  and  C_27
REMARK    4  A    between atoms: C_11  and  C_13
REMARK    5  A    between atoms: C_13  and  C_15
REMARK    6  A    between atoms: C_13  and  N_19
REMARK    7  A    between atoms: C_15  and  C_16
REMARK    8  A    between atoms: C_15  and  C_17
REMARK    9  A    between atoms: C_15  and  C_18
REMARK   10  A    between atoms: N_22  and  C_23
REMARK   11  A    between atoms: C_23  and  C_24
REMARK   12  A    between atoms: C_23  and  C_25
REMARK   13  A    between atoms: C_23  and  C_26
REMARK   14  A    between atoms: N_29  and  C_30
REMARK   15  A    between atoms: C_30  and  C_31
REMARK   16  A    between atoms: C_30  and  C_36
REMARK   17  A    between atoms: C_31  and  C_32
REMARK   18  A    between atoms: C_36  and  C_38
REMARK                            x       y       z     vdW  Elec       q    Type
REMARK                         _______ _______ _______ _____ _____    ______ ____
ROOT
ATOM      1  C   UNL     1       9.728   5.648  23.285  0.00  0.00    +0.011 C 
ATOM      2  C   UNL     1       8.631   5.009  24.110  0.00  0.00    -0.025 C 
ATOM      3  C   UNL     1       8.678   5.402  25.561  0.00  0.00    +0.011 C 
ATOM      4  C   UNL     1       8.172   3.606  23.724  0.00  0.00    +0.030 C 
ATOM      5  C   UNL     1       7.293   2.649  24.570  0.00  0.00    +0.166 C 
ATOM      6  N   UNL     1       5.942   3.130  24.170  0.00  0.00    -0.288 N 
ATOM      7  C   UNL     1       4.756   2.484  24.465  0.00  0.00    +0.237 C 
ATOM      8  O   UNL     1       4.786   1.367  24.984  0.00  0.00    -0.274 OA
ATOM      9  C   UNL     1       5.980   4.568  23.932  0.00  0.00    +0.113 C 
ATOM     10  C   UNL     1       7.329   4.802  23.367  0.00  0.00    +0.018 C 
ENDROOT
BRANCH   5  11
ATOM     11  C   UNL     1       7.933   1.197  24.480  0.00  0.00    +0.234 C 
ATOM     12  N   UNL     1       7.266   0.188  23.826  0.00  0.00    -0.304 N 
ATOM     13  H   UNL     1       6.338   0.401  23.452  0.00  0.00    +0.149 HD
ATOM     14  O   UNL     1       8.962   0.937  25.116  0.00  0.00    -0.274 OA
BRANCH  12  15
ATOM     15  C   UNL     1       7.674  -1.241  23.928  0.00  0.00    +0.149 C 
BRANCH  15  16
ATOM     16  C   UNL     1       8.204  -1.759  22.580  0.00  0.00    +0.237 C 
ATOM     17  O   UNL     1       7.795  -2.771  22.014  0.00  0.00    -0.285 OA
BRANCH  16  18
ATOM     18  C   UNL     1       9.342  -0.955  21.897  0.00  0.00    +0.279 C 
ATOM     19  N   UNL     1      10.585  -1.511  22.048  0.00  0.00    -0.323 N 
ATOM     20  H   UNL     1      11.381  -1.077  21.600  0.00  0.00    +0.145 HD
ATOM     21  H   UNL     1      10.687  -2.431  22.463  0.00  0.00    +0.145 HD
ATOM     22  O   UNL     1       9.141   0.076  21.291  0.00  0.00    -0.267 OA
ENDBRANCH  16  18
ENDBRANCH  15  16
BRANCH  15  23
ATOM     23  C   UNL     1       6.525  -2.126  24.460  0.00  0.00    +0.034 C 
BRANCH  23  24
ATOM     24  C   UNL     1       6.996  -3.037  25.587  0.00  0.00    -0.009 C 
ATOM     25  C   UNL     1       8.416  -2.796  26.165  0.00  0.00    +0.003 C 
ATOM     26  C   UNL     1       8.500  -4.319  26.361  0.00  0.00    +0.001 C 
ATOM     27  C   UNL     1       7.527  -4.435  25.167  0.00  0.00    +0.003 C 
ENDBRANCH  23  24
ENDBRANCH  15  23
ENDBRANCH  12  15
ENDBRANCH   5  11
BRANCH   7  28
ATOM     28  C   UNL     1       3.389   3.176  24.049  0.00  0.00    +0.166 C 
BRANCH  28  29
ATOM     29  N   UNL     1       3.511   4.043  22.845  0.00  0.00    -0.288 N 
ATOM     30  H   UNL     1       4.272   4.705  22.804  0.00  0.00    +0.151 HD
ATOM     31  C   UNL     1       2.629   3.969  21.790  0.00  0.00    +0.301 C 
ATOM     32  N   UNL     1       2.771   4.990  20.881  0.00  0.00    -0.295 N 
ATOM     33  H   UNL     1       3.176   5.837  21.248  0.00  0.00    +0.151 HD
ATOM     34  O   UNL     1       1.795   3.077  21.685  0.00  0.00    -0.253 OA
BRANCH  32  35
ATOM     35  C   UNL     1       1.909   5.144  19.675  0.00  0.00    +0.028 C 
ATOM     36  C   UNL     1       2.314   6.370  18.845  0.00  0.00    +0.031 C 
ATOM     37  C   UNL     1       0.443   5.342  20.120  0.00  0.00    +0.031 C 
ATOM     38  C   UNL     1       1.943   3.883  18.780  0.00  0.00    +0.031 C 
ENDBRANCH  32  35
ENDBRANCH  28  29
BRANCH  28  39
ATOM     39  C   UNL     1       2.637   3.925  25.218  0.00  0.00    -0.011 C 
ATOM     40  C   UNL     1       1.284   3.238  25.514  0.00  0.00    +0.013 C 
ATOM     41  C   UNL     1       2.323   5.385  24.792  0.00  0.00    +0.013 C 
ATOM     42  C   UNL     1       3.444   3.988  26.528  0.00  0.00    +0.013 C 
ENDBRANCH  28  39
ENDBRANCH   7  28
TORSDOF 10
ENDMDL
