MODEL 1
REMARK VINA RESULT:      -6.0      0.000      0.000
REMARK  Name = 
REMARK  9 active torsions:
REMARK  status: ('A' for Active; 'I' for Inactive)
REMARK    1  A    between atoms: N_3  and  C_9
REMARK    2  A    between atoms: C_9  and  C_10
REMARK    3  A    between atoms: C_10  and  C_11
REMARK    4  A    between atoms: C_10  and  O_13
REMARK    5  A    between atoms: C_11  and  O_12
REMARK    6  A    between atoms: O_13  and  C_14
REMARK    7  A    between atoms: C_14  and  P_15
REMARK    8  A    between atoms: P_15  and  O_17
REMARK    9  A    between atoms: P_15  and  O_18
REMARK                            x       y       z     vdW  Elec       q    Type
REMARK                         _______ _______ _______ _____ _____    ______ ____
ROOT
ATOM      1  C   UNL     1       8.239  -3.209  24.400  0.00  0.00    +0.164 C 
ENDROOT
BRANCH   1   2
ATOM      2  C   UNL     1       9.655  -2.623  24.151  0.00  0.00    +0.160 C 
BRANCH   2  11
ATOM      3  C   UNL     1       9.534  -0.298  21.324  0.00  0.00    +0.061 A 
ATOM      4  C   UNL     1       9.667   0.952  22.103  0.00  0.00    +0.123 A 
ATOM      5  N   UNL     1       9.527   2.154  21.469  0.00  0.00    -0.343 N 
ATOM      6  H   UNL     1       9.767   2.213  20.489  0.00  0.00    +0.144 HD
ATOM      7  H   UNL     1       9.831   2.940  22.031  0.00  0.00    +0.144 HD
ATOM      8  N   UNL     1       9.912   0.984  23.375  0.00  0.00    -0.178 NA
ATOM      9  C   UNL     1       9.998  -0.197  24.073  0.00  0.00    +0.350 A 
ATOM     10  O   UNL     1      10.289  -0.202  25.269  0.00  0.00    -0.244 OA
ATOM     11  N   UNL     1       9.713  -1.386  23.397  0.00  0.00    -0.296 N 
ATOM     12  C   UNL     1       9.538  -1.419  22.035  0.00  0.00    +0.094 A 
ENDBRANCH   2  11
ENDBRANCH   1   2
BRANCH   1  13
ATOM     13  O   UNL     1       8.009  -3.371  25.820  0.00  0.00    -0.360 OA
BRANCH  13  14
ATOM     14  C   UNL     1       6.746  -3.998  26.063  0.00  0.00    +0.286 C 
BRANCH  14  15
ATOM     15  P   UNL     1       6.796  -5.265  27.382  0.00  0.00    +0.353 P 
ATOM     16  O   UNL     1       6.089  -6.294  26.496  0.00  0.00    -0.256 OA
BRANCH  15  17
ATOM     17  O   UNL     1       6.845  -6.463  28.630  0.00  0.00    -0.323 OA
ATOM     18  H   UNL     1       6.642  -5.963  29.447  0.00  0.00    +0.220 HD
ENDBRANCH  15  17
BRANCH  15  19
ATOM     19  O   UNL     1       8.397  -5.527  27.143  0.00  0.00    -0.323 OA
ATOM     20  H   UNL     1       8.509  -6.177  26.420  0.00  0.00    +0.220 HD
ENDBRANCH  15  19
ENDBRANCH  14  15
ENDBRANCH  13  14
ENDBRANCH   1  13
BRANCH   1  21
ATOM     21  C   UNL     1       8.028  -4.589  23.757  0.00  0.00    +0.189 C 
BRANCH  21  22
ATOM     22  O   UNL     1       8.985  -5.562  24.150  0.00  0.00    -0.392 OA
ATOM     23  H   UNL     1       8.971  -5.625  25.123  0.00  0.00    +0.210 HD
ENDBRANCH  21  22
ENDBRANCH   1  21
TORSDOF 9
ENDMDL
MODEL 2
REMARK VINA RESULT:      -5.9      1.966      2.446
REMARK  Name = 
REMARK  9 active torsions:
REMARK  status: ('A' for Active; 'I' for Inactive)
REMARK    1  A    between atoms: N_3  and  C_9
REMARK    2  A    between atoms: C_9  and  C_10
REMARK    3  A    between atoms: C_10  and  C_11
REMARK    4  A    between atoms: C_10  and  O_13
REMARK    5  A    between atoms: C_11  and  O_12
REMARK    6  A    between atoms: O_13  and  C_14
REMARK    7  A    between atoms: C_14  and  P_15
REMARK    8  A    between atoms: P_15  and  O_17
REMARK    9  A    between atoms: P_15  and  O_18
REMARK                            x       y       z     vdW  Elec       q    Type
REMARK                         _______ _______ _______ _____ _____    ______ ____
ROOT
ATOM      1  C   UNL     1       8.814  -2.441  23.249  0.00  0.00    +0.164 C 
ENDROOT
BRANCH   1   2
ATOM      2  C   UNL     1      10.016  -1.720  22.582  0.00  0.00    +0.160 C 
BRANCH   2  11
ATOM      3  C   UNL     1      10.760   1.452  24.256  0.00  0.00    +0.061 A 
ATOM      4  C   UNL     1      10.441   2.344  23.120  0.00  0.00    +0.123 A 
ATOM      5  N   UNL     1      10.712   3.678  23.220  0.00  0.00    -0.343 N 
ATOM      6  H   UNL     1      10.702   4.105  24.136  0.00  0.00    +0.144 HD
ATOM      7  H   UNL     1      10.280   4.230  22.488  0.00  0.00    +0.144 HD
ATOM      8  N   UNL     1       9.911   1.932  22.010  0.00  0.00    -0.178 NA
ATOM      9  C   UNL     1       9.679   0.590  21.833  0.00  0.00    +0.350 A 
ATOM     10  O   UNL     1       9.121   0.176  20.816  0.00  0.00    -0.244 OA
ATOM     11  N   UNL     1      10.121  -0.293  22.821  0.00  0.00    -0.296 N 
ATOM     12  C   UNL     1      10.604   0.154  24.027  0.00  0.00    +0.094 A 
ENDBRANCH   2  11
ENDBRANCH   1   2
BRANCH   1  13
ATOM     13  O   UNL     1       9.276  -3.587  24.003  0.00  0.00    -0.360 OA
BRANCH  13  14
ATOM     14  C   UNL     1       9.173  -3.347  25.409  0.00  0.00    +0.286 C 
BRANCH  14  15
ATOM     15  P   UNL     1       8.521  -4.773  26.353  0.00  0.00    +0.353 P 
ATOM     16  O   UNL     1       7.405  -5.008  25.331  0.00  0.00    -0.256 OA
BRANCH  15  17
ATOM     17  O   UNL     1       7.905  -6.121  27.245  0.00  0.00    -0.323 OA
ATOM     18  H   UNL     1       7.173  -5.742  27.773  0.00  0.00    +0.220 HD
ENDBRANCH  15  17
BRANCH  15  19
ATOM     19  O   UNL     1       9.757  -5.731  25.860  0.00  0.00    -0.323 OA
ATOM     20  H   UNL     1       9.389  -6.549  25.469  0.00  0.00    +0.220 HD
ENDBRANCH  15  19
ENDBRANCH  14  15
ENDBRANCH  13  14
ENDBRANCH   1  13
BRANCH   1  21
ATOM     21  C   UNL     1       7.778  -2.962  22.241  0.00  0.00    +0.189 C 
BRANCH  21  22
ATOM     22  O   UNL     1       7.402  -4.316  22.446  0.00  0.00    -0.392 OA
ATOM     23  H   UNL     1       7.297  -4.737  21.574  0.00  0.00    +0.210 HD
ENDBRANCH  21  22
ENDBRANCH   1  21
TORSDOF 9
ENDMDL
MODEL 3
REMARK VINA RESULT:      -5.9      2.352      3.200
REMARK  Name = 
REMARK  9 active torsions:
REMARK  status: ('A' for Active; 'I' for Inactive)
REMARK    1  A    between atoms: N_3  and  C_9
REMARK    2  A    between atoms: C_9  and  C_10
REMARK    3  A    between atoms: C_10  and  C_11
REMARK    4  A    between atoms: C_10  and  O_13
REMARK    5  A    between atoms: C_11  and  O_12
REMARK    6  A    between atoms: O_13  and  C_14
REMARK    7  A    between atoms: C_14  and  P_15
REMARK    8  A    between atoms: P_15  and  O_17
REMARK    9  A    between atoms: P_15  and  O_18
REMARK                            x       y       z     vdW  Elec       q    Type
REMARK                         _______ _______ _______ _____ _____    ______ ____
ROOT
ATOM      1  C   UNL     1       8.555  -3.772  23.970  0.00  0.00    +0.164 C 
ENDROOT
BRANCH   1   2
ATOM      2  C   UNL     1       9.177  -2.520  24.645  0.00  0.00    +0.160 C 
BRANCH   2  11
ATOM      3  C   UNL     1       9.590  -0.537  21.594  0.00  0.00    +0.061 A 
ATOM      4  C   UNL     1       9.797   0.773  22.248  0.00  0.00    +0.123 A 
ATOM      5  N   UNL     1       9.858   1.902  21.481  0.00  0.00    -0.343 N 
ATOM      6  H   UNL     1      10.193   1.822  20.530  0.00  0.00    +0.144 HD
ATOM      7  H   UNL     1      10.200   2.711  21.987  0.00  0.00    +0.144 HD
ATOM      8  N   UNL     1       9.927   0.925  23.529  0.00  0.00    -0.178 NA
ATOM      9  C   UNL     1       9.809  -0.169  24.351  0.00  0.00    +0.350 A 
ATOM     10  O   UNL     1       9.987  -0.068  25.565  0.00  0.00    -0.244 OA
ATOM     11  N   UNL     1       9.449  -1.391  23.776  0.00  0.00    -0.296 N 
ATOM     12  C   UNL     1       9.397  -1.562  22.415  0.00  0.00    +0.094 A 
ENDBRANCH   2  11
ENDBRANCH   1   2
BRANCH   1  13
ATOM     13  O   UNL     1       7.118  -3.628  23.879  0.00  0.00    -0.360 OA
BRANCH  13  14
ATOM     14  C   UNL     1       6.496  -4.887  23.608  0.00  0.00    +0.286 C 
BRANCH  14  15
ATOM     15  P   UNL     1       6.218  -5.202  21.827  0.00  0.00    +0.353 P 
ATOM     16  O   UNL     1       7.270  -6.313  21.803  0.00  0.00    -0.256 OA
BRANCH  15  17
ATOM     17  O   UNL     1       5.954  -5.499  20.143  0.00  0.00    -0.323 OA
ATOM     18  H   UNL     1       6.643  -4.966  19.697  0.00  0.00    +0.220 HD
ENDBRANCH  15  17
BRANCH  15  19
ATOM     19  O   UNL     1       4.800  -5.966  22.130  0.00  0.00    -0.323 OA
ATOM     20  H   UNL     1       4.653  -6.649  21.445  0.00  0.00    +0.220 HD
ENDBRANCH  15  19
ENDBRANCH  14  15
ENDBRANCH  13  14
ENDBRANCH   1  13
BRANCH   1  21
ATOM     21  C   UNL     1       8.822  -5.076  24.738  0.00  0.00    +0.189 C 
BRANCH  21  22
ATOM     22  O   UNL     1      10.199  -5.359  24.936  0.00  0.00    -0.392 OA
ATOM     23  H   UNL     1      10.430  -5.116  25.851  0.00  0.00    +0.210 HD
ENDBRANCH  21  22
ENDBRANCH   1  21
TORSDOF 9
ENDMDL
MODEL 4
REMARK VINA RESULT:      -5.8      2.393      3.079
REMARK  Name = 
REMARK  9 active torsions:
REMARK  status: ('A' for Active; 'I' for Inactive)
REMARK    1  A    between atoms: N_3  and  C_9
REMARK    2  A    between atoms: C_9  and  C_10
REMARK    3  A    between atoms: C_10  and  C_11
REMARK    4  A    between atoms: C_10  and  O_13
REMARK    5  A    between atoms: C_11  and  O_12
REMARK    6  A    between atoms: O_13  and  C_14
REMARK    7  A    between atoms: C_14  and  P_15
REMARK    8  A    between atoms: P_15  and  O_17
REMARK    9  A    between atoms: P_15  and  O_18
REMARK                            x       y       z     vdW  Elec       q    Type
REMARK                         _______ _______ _______ _____ _____    ______ ____
ROOT
ATOM      1  C   UNL     1       8.636  -3.589  24.092  0.00  0.00    +0.164 C 
ENDROOT
BRANCH   1   2
ATOM      2  C   UNL     1       9.876  -2.655  24.150  0.00  0.00    +0.160 C 
BRANCH   2  11
ATOM      3  C   UNL     1       9.422  -0.421  21.283  0.00  0.00    +0.061 A 
ATOM      4  C   UNL     1       9.504   0.856  22.024  0.00  0.00    +0.123 A 
ATOM      5  N   UNL     1       9.239   2.026  21.373  0.00  0.00    -0.343 N 
ATOM      6  H   UNL     1       9.419   2.077  20.379  0.00  0.00    +0.144 HD
ATOM      7  H   UNL     1       9.514   2.847  21.898  0.00  0.00    +0.144 HD
ATOM      8  N   UNL     1       9.817   0.939  23.280  0.00  0.00    -0.178 NA
ATOM      9  C   UNL     1      10.030  -0.213  23.998  0.00  0.00    +0.350 A 
ATOM     10  O   UNL     1      10.388  -0.165  25.175  0.00  0.00    -0.244 OA
ATOM     11  N   UNL     1       9.798  -1.437  23.366  0.00  0.00    -0.296 N 
ATOM     12  C   UNL     1       9.550  -1.520  22.018  0.00  0.00    +0.094 A 
ENDBRANCH   2  11
ENDBRANCH   1   2
BRANCH   1  13
ATOM     13  O   UNL     1       7.467  -2.897  24.589  0.00  0.00    -0.360 OA
BRANCH  13  14
ATOM     14  C   UNL     1       6.273  -3.615  24.263  0.00  0.00    +0.286 C 
BRANCH  14  15
ATOM     15  P   UNL     1       5.944  -3.715  22.466  0.00  0.00    +0.353 P 
ATOM     16  O   UNL     1       4.500  -4.168  22.701  0.00  0.00    -0.256 OA
BRANCH  15  17
ATOM     17  O   UNL     1       5.633  -3.809  20.766  0.00  0.00    -0.323 OA
ATOM     18  H   UNL     1       4.664  -3.686  20.695  0.00  0.00    +0.220 HD
ENDBRANCH  15  17
BRANCH  15  19
ATOM     19  O   UNL     1       5.861  -2.083  22.336  0.00  0.00    -0.323 OA
ATOM     20  H   UNL     1       5.437  -1.721  23.140  0.00  0.00    +0.220 HD
ENDBRANCH  15  19
ENDBRANCH  14  15
ENDBRANCH  13  14
ENDBRANCH   1  13
BRANCH   1  21
ATOM     21  C   UNL     1       8.791  -4.862  24.938  0.00  0.00    +0.189 C 
BRANCH  21  22
ATOM     22  O   UNL     1      10.088  -5.438  24.883  0.00  0.00    -0.392 OA
ATOM     23  H   UNL     1      10.158  -5.947  24.055  0.00  0.00    +0.210 HD
ENDBRANCH  21  22
ENDBRANCH   1  21
TORSDOF 9
ENDMDL
MODEL 5
REMARK VINA RESULT:      -5.5      3.838      7.018
REMARK  Name = 
REMARK  9 active torsions:
REMARK  status: ('A' for Active; 'I' for Inactive)
REMARK    1  A    between atoms: N_3  and  C_9
REMARK    2  A    between atoms: C_9  and  C_10
REMARK    3  A    between atoms: C_10  and  C_11
REMARK    4  A    between atoms: C_10  and  O_13
REMARK    5  A    between atoms: C_11  and  O_12
REMARK    6  A    between atoms: O_13  and  C_14
REMARK    7  A    between atoms: C_14  and  P_15
REMARK    8  A    between atoms: P_15  and  O_17
REMARK    9  A    between atoms: P_15  and  O_18
REMARK                            x       y       z     vdW  Elec       q    Type
REMARK                         _______ _______ _______ _____ _____    ______ ____
ROOT
ATOM      1  C   UNL     1       9.654  -1.496  23.520  0.00  0.00    +0.164 C 
ENDROOT
BRANCH   1   2
ATOM      2  C   UNL     1       8.405  -2.405  23.367  0.00  0.00    +0.160 C 
BRANCH   2  11
ATOM      3  C   UNL     1       9.236  -4.998  25.816  0.00  0.00    +0.061 A 
ATOM      4  C   UNL     1       7.866  -5.220  26.328  0.00  0.00    +0.123 A 
ATOM      5  N   UNL     1       7.678  -6.036  27.406  0.00  0.00    -0.343 N 
ATOM      6  H   UNL     1       8.338  -6.785  27.566  0.00  0.00    +0.144 HD
ATOM      7  H   UNL     1       6.708  -6.285  27.556  0.00  0.00    +0.144 HD
ATOM      8  N   UNL     1       6.809  -4.677  25.810  0.00  0.00    -0.178 NA
ATOM      9  C   UNL     1       6.948  -3.797  24.765  0.00  0.00    +0.350 A 
ATOM     10  O   UNL     1       5.960  -3.312  24.212  0.00  0.00    -0.244 OA
ATOM     11  N   UNL     1       8.240  -3.442  24.368  0.00  0.00    -0.296 N 
ATOM     12  C   UNL     1       9.350  -4.082  24.862  0.00  0.00    +0.094 A 
ENDBRANCH   2  11
ENDBRANCH   1   2
BRANCH   1  13
ATOM     13  O   UNL     1       9.262  -0.183  23.985  0.00  0.00    -0.360 OA
BRANCH  13  14
ATOM     14  C   UNL     1      10.248   0.795  23.641  0.00  0.00    +0.286 C 
BRANCH  14  15
ATOM     15  P   UNL     1       9.540   2.391  23.093  0.00  0.00    +0.353 P 
ATOM     16  O   UNL     1      10.780   3.161  23.553  0.00  0.00    -0.256 OA
BRANCH  15  17
ATOM     17  O   UNL     1       8.870   3.899  22.574  0.00  0.00    -0.323 OA
ATOM     18  H   UNL     1       9.115   4.526  23.286  0.00  0.00    +0.220 HD
ENDBRANCH  15  17
BRANCH  15  19
ATOM     19  O   UNL     1       9.820   2.035  21.518  0.00  0.00    -0.323 OA
ATOM     20  H   UNL     1      10.130   2.842  21.059  0.00  0.00    +0.220 HD
ENDBRANCH  15  19
ENDBRANCH  14  15
ENDBRANCH  13  14
ENDBRANCH   1  13
BRANCH   1  21
ATOM     21  C   UNL     1      10.423  -1.289  22.205  0.00  0.00    +0.189 C 
BRANCH  21  22
ATOM     22  O   UNL     1       9.589  -1.055  21.080  0.00  0.00    -0.392 OA
ATOM     23  H   UNL     1       8.668  -1.231  21.343  0.00  0.00    +0.210 HD
ENDBRANCH  21  22
ENDBRANCH   1  21
TORSDOF 9
ENDMDL
MODEL 6
REMARK VINA RESULT:      -5.5      2.225      3.231
REMARK  Name = 
REMARK  9 active torsions:
REMARK  status: ('A' for Active; 'I' for Inactive)
REMARK    1  A    between atoms: N_3  and  C_9
REMARK    2  A    between atoms: C_9  and  C_10
REMARK    3  A    between atoms: C_10  and  C_11
REMARK    4  A    between atoms: C_10  and  O_13
REMARK    5  A    between atoms: C_11  and  O_12
REMARK    6  A    between atoms: O_13  and  C_14
REMARK    7  A    between atoms: C_14  and  P_15
REMARK    8  A    between atoms: P_15  and  O_17
REMARK    9  A    between atoms: P_15  and  O_18
REMARK                            x       y       z     vdW  Elec       q    Type
REMARK                         _______ _______ _______ _____ _____    ______ ____
ROOT
ATOM      1  C   UNL     1       9.864  -1.538  23.703  0.00  0.00    +0.164 C 
ENDROOT
BRANCH   1   2
ATOM      2  C   UNL     1       8.687  -1.356  22.708  0.00  0.00    +0.160 C 
BRANCH   2  11
ATOM      3  C   UNL     1       8.494   2.160  21.702  0.00  0.00    +0.061 A 
ATOM      4  C   UNL     1       7.110   2.411  22.158  0.00  0.00    +0.123 A 
ATOM      5  N   UNL     1       6.512   3.601  21.858  0.00  0.00    -0.343 N 
ATOM      6  H   UNL     1       7.095   4.418  21.739  0.00  0.00    +0.144 HD
ATOM      7  H   UNL     1       5.656   3.760  22.377  0.00  0.00    +0.144 HD
ATOM      8  N   UNL     1       6.412   1.556  22.838  0.00  0.00    -0.178 NA
ATOM      9  C   UNL     1       6.942   0.319  23.111  0.00  0.00    +0.350 A 
ATOM     10  O   UNL     1       6.329  -0.491  23.806  0.00  0.00    -0.244 OA
ATOM     11  N   UNL     1       8.181  -0.006  22.552  0.00  0.00    -0.296 N 
ATOM     12  C   UNL     1       8.951   0.930  21.906  0.00  0.00    +0.094 A 
ENDBRANCH   2  11
ENDBRANCH   1   2
BRANCH   1  13
ATOM     13  O   UNL     1      10.059  -2.942  23.994  0.00  0.00    -0.360 OA
BRANCH  13  14
ATOM     14  C   UNL     1       8.807  -3.634  24.026  0.00  0.00    +0.286 C 
BRANCH  14  15
ATOM     15  P   UNL     1       8.625  -4.757  25.460  0.00  0.00    +0.353 P 
ATOM     16  O   UNL     1       7.275  -5.273  24.953  0.00  0.00    -0.256 OA
BRANCH  15  17
ATOM     17  O   UNL     1       8.453  -5.818  26.816  0.00  0.00    -0.323 OA
ATOM     18  H   UNL     1       8.835  -5.313  27.563  0.00  0.00    +0.220 HD
ENDBRANCH  15  17
BRANCH  15  19
ATOM     19  O   UNL     1       9.734  -5.799  24.852  0.00  0.00    -0.323 OA
ATOM     20  H   UNL     1      10.614  -5.576  25.217  0.00  0.00    +0.220 HD
ENDBRANCH  15  19
ENDBRANCH  14  15
ENDBRANCH  13  14
ENDBRANCH   1  13
BRANCH   1  21
ATOM     21  C   UNL     1       9.639  -0.834  25.051  0.00  0.00    +0.189 C 
BRANCH  21  22
ATOM     22  O   UNL     1      10.458   0.309  25.249  0.00  0.00    -0.392 OA
ATOM     23  H   UNL     1       9.877   1.076  25.400  0.00  0.00    +0.210 HD
ENDBRANCH  21  22
ENDBRANCH   1  21
TORSDOF 9
ENDMDL
MODEL 7
REMARK VINA RESULT:      -5.4      3.905      6.995
REMARK  Name = 
REMARK  9 active torsions:
REMARK  status: ('A' for Active; 'I' for Inactive)
REMARK    1  A    between atoms: N_3  and  C_9
REMARK    2  A    between atoms: C_9  and  C_10
REMARK    3  A    between atoms: C_10  and  C_11
REMARK    4  A    between atoms: C_10  and  O_13
REMARK    5  A    between atoms: C_11  and  O_12
REMARK    6  A    between atoms: O_13  and  C_14
REMARK    7  A    between atoms: C_14  and  P_15
REMARK    8  A    between atoms: P_15  and  O_17
REMARK    9  A    between atoms: P_15  and  O_18
REMARK                            x       y       z     vdW  Elec       q    Type
REMARK                         _______ _______ _______ _____ _____    ______ ____
ROOT
ATOM      1  C   UNL     1       8.530  -1.798  23.676  0.00  0.00    +0.164 C 
ENDROOT
BRANCH   1   2
ATOM      2  C   UNL     1       7.694  -3.105  23.614  0.00  0.00    +0.160 C 
BRANCH   2  11
ATOM      3  C   UNL     1       6.499  -3.950  26.971  0.00  0.00    +0.061 A 
ATOM      4  C   UNL     1       7.140  -5.280  27.070  0.00  0.00    +0.123 A 
ATOM      5  N   UNL     1       6.855  -6.082  28.137  0.00  0.00    -0.343 N 
ATOM      6  H   UNL     1       6.597  -5.648  29.013  0.00  0.00    +0.144 HD
ATOM      7  H   UNL     1       7.484  -6.872  28.223  0.00  0.00    +0.144 HD
ATOM      8  N   UNL     1       7.972  -5.743  26.190  0.00  0.00    -0.178 NA
ATOM      9  C   UNL     1       8.243  -5.004  25.064  0.00  0.00    +0.350 A 
ATOM     10  O   UNL     1       9.073  -5.389  24.241  0.00  0.00    -0.244 OA
ATOM     11  N   UNL     1       7.527  -3.820  24.864  0.00  0.00    -0.296 N 
ATOM     12  C   UNL     1       6.713  -3.294  25.837  0.00  0.00    +0.094 A 
ENDBRANCH   2  11
ENDBRANCH   1   2
BRANCH   1  13
ATOM     13  O   UNL     1       8.031  -0.841  22.713  0.00  0.00    -0.360 OA
BRANCH  13  14
ATOM     14  C   UNL     1       8.111   0.491  23.229  0.00  0.00    +0.286 C 
BRANCH  14  15
ATOM     15  P   UNL     1       9.383   1.521  22.412  0.00  0.00    +0.353 P 
ATOM     16  O   UNL     1       9.385   0.628  21.168  0.00  0.00    -0.256 OA
BRANCH  15  17
ATOM     17  O   UNL     1      10.585   2.497  21.639  0.00  0.00    -0.323 OA
ATOM     18  H   UNL     1      10.261   3.413  21.760  0.00  0.00    +0.220 HD
ENDBRANCH  15  17
BRANCH  15  19
ATOM     19  O   UNL     1       8.293   2.701  22.085  0.00  0.00    -0.323 OA
ATOM     20  H   UNL     1       8.740   3.422  21.598  0.00  0.00    +0.220 HD
ENDBRANCH  15  19
ENDBRANCH  14  15
ENDBRANCH  13  14
ENDBRANCH   1  13
BRANCH   1  21
ATOM     21  C   UNL     1      10.019  -2.010  23.361  0.00  0.00    +0.189 C 
BRANCH  21  22
ATOM     22  O   UNL     1      10.334  -1.926  21.979  0.00  0.00    -0.392 OA
ATOM     23  H   UNL     1       9.559  -2.232  21.473  0.00  0.00    +0.210 HD
ENDBRANCH  21  22
ENDBRANCH   1  21
TORSDOF 9
ENDMDL
MODEL 8
REMARK VINA RESULT:      -5.3      3.883      6.678
REMARK  Name = 
REMARK  9 active torsions:
REMARK  status: ('A' for Active; 'I' for Inactive)
REMARK    1  A    between atoms: N_3  and  C_9
REMARK    2  A    between atoms: C_9  and  C_10
REMARK    3  A    between atoms: C_10  and  C_11
REMARK    4  A    between atoms: C_10  and  O_13
REMARK    5  A    between atoms: C_11  and  O_12
REMARK    6  A    between atoms: O_13  and  C_14
REMARK    7  A    between atoms: C_14  and  P_15
REMARK    8  A    between atoms: P_15  and  O_17
REMARK    9  A    between atoms: P_15  and  O_18
REMARK                            x       y       z     vdW  Elec       q    Type
REMARK                         _______ _______ _______ _____ _____    ______ ____
ROOT
ATOM      1  C   UNL     1       8.498  -1.345  22.942  0.00  0.00    +0.164 C 
ENDROOT
BRANCH   1   2
ATOM      2  C   UNL     1       9.374  -1.795  24.142  0.00  0.00    +0.160 C 
BRANCH   2  11
ATOM      3  C   UNL     1       8.378  -5.208  25.022  0.00  0.00    +0.061 A 
ATOM      4  C   UNL     1       8.107  -4.961  26.455  0.00  0.00    +0.123 A 
ATOM      5  N   UNL     1       7.829  -6.017  27.275  0.00  0.00    -0.343 N 
ATOM      6  H   UNL     1       7.393  -6.837  26.875  0.00  0.00    +0.144 HD
ATOM      7  H   UNL     1       7.463  -5.737  28.177  0.00  0.00    +0.144 HD
ATOM      8  N   UNL     1       8.117  -3.783  26.996  0.00  0.00    -0.178 NA
ATOM      9  C   UNL     1       8.454  -2.694  26.229  0.00  0.00    +0.350 A 
ATOM     10  O   UNL     1       8.414  -1.556  26.698  0.00  0.00    -0.244 OA
ATOM     11  N   UNL     1       8.875  -2.916  24.916  0.00  0.00    -0.296 N 
ATOM     12  C   UNL     1       8.782  -4.152  24.325  0.00  0.00    +0.094 A 
ENDBRANCH   2  11
ENDBRANCH   1   2
BRANCH   1  13
ATOM     13  O   UNL     1       9.092  -0.195  22.295  0.00  0.00    -0.360 OA
BRANCH  13  14
ATOM     14  C   UNL     1       8.490   1.017  22.758  0.00  0.00    +0.286 C 
BRANCH  14  15
ATOM     15  P   UNL     1       9.686   2.378  23.019  0.00  0.00    +0.353 P 
ATOM     16  O   UNL     1      10.609   1.481  23.849  0.00  0.00    -0.256 OA
BRANCH  15  17
ATOM     17  O   UNL     1      10.816   3.665  23.265  0.00  0.00    -0.323 OA
ATOM     18  H   UNL     1      11.016   3.982  22.360  0.00  0.00    +0.220 HD
ENDBRANCH  15  17
BRANCH  15  19
ATOM     19  O   UNL     1      10.242   2.254  21.482  0.00  0.00    -0.323 OA
ATOM     20  H   UNL     1       9.740   1.555  21.017  0.00  0.00    +0.220 HD
ENDBRANCH  15  19
ENDBRANCH  14  15
ENDBRANCH  13  14
ENDBRANCH   1  13
BRANCH   1  21
ATOM     21  C   UNL     1       7.072  -0.938  23.346  0.00  0.00    +0.189 C 
BRANCH  21  22
ATOM     22  O   UNL     1       6.055  -1.738  22.760  0.00  0.00    -0.392 OA
ATOM     23  H   UNL     1       6.277  -1.868  21.820  0.00  0.00    +0.210 HD
ENDBRANCH  21  22
ENDBRANCH   1  21
TORSDOF 9
ENDMDL
MODEL 9
REMARK VINA RESULT:      -5.3      4.522      7.085
REMARK  Name = 
REMARK  9 active torsions:
REMARK  status: ('A' for Active; 'I' for Inactive)
REMARK    1  A    between atoms: N_3  and  C_9
REMARK    2  A    between atoms: C_9  and  C_10
REMARK    3  A    between atoms: C_10  and  C_11
REMARK    4  A    between atoms: C_10  and  O_13
REMARK    5  A    between atoms: C_11  and  O_12
REMARK    6  A    between atoms: O_13  and  C_14
REMARK    7  A    between atoms: C_14  and  P_15
REMARK    8  A    between atoms: P_15  and  O_17
REMARK    9  A    between atoms: P_15  and  O_18
REMARK                            x       y       z     vdW  Elec       q    Type
REMARK                         _______ _______ _______ _____ _____    ______ ____
ROOT
ATOM      1  C   UNL     1       8.605  -1.702  23.343  0.00  0.00    +0.164 C 
ENDROOT
BRANCH   1   2
ATOM      2  C   UNL     1       7.591  -2.263  22.310  0.00  0.00    +0.160 C 
BRANCH   2  11
ATOM      3  C   UNL     1       6.778  -5.334  24.131  0.00  0.00    +0.061 A 
ATOM      4  C   UNL     1       5.598  -5.723  23.328  0.00  0.00    +0.123 A 
ATOM      5  N   UNL     1       4.833  -6.780  23.730  0.00  0.00    -0.343 N 
ATOM      6  H   UNL     1       5.273  -7.520  24.260  0.00  0.00    +0.144 HD
ATOM      7  H   UNL     1       4.180  -7.093  23.022  0.00  0.00    +0.144 HD
ATOM      8  N   UNL     1       5.234  -5.111  22.244  0.00  0.00    -0.178 NA
ATOM      9  C   UNL     1       5.930  -4.002  21.831  0.00  0.00    +0.350 A 
ATOM     10  O   UNL     1       5.647  -3.436  20.775  0.00  0.00    -0.244 OA
ATOM     11  N   UNL     1       6.946  -3.514  22.657  0.00  0.00    -0.296 N 
ATOM     12  C   UNL     1       7.381  -4.213  23.757  0.00  0.00    +0.094 A 
ENDBRANCH   2  11
ENDBRANCH   1   2
BRANCH   1  13
ATOM     13  O   UNL     1       8.219  -0.367  23.747  0.00  0.00    -0.360 OA
BRANCH  13  14
ATOM     14  C   UNL     1       9.288   0.559  23.533  0.00  0.00    +0.286 C 
BRANCH  14  15
ATOM     15  P   UNL     1       8.752   2.139  22.782  0.00  0.00    +0.353 P 
ATOM     16  O   UNL     1       9.448   2.956  23.875  0.00  0.00    -0.256 OA
BRANCH  15  17
ATOM     17  O   UNL     1       8.246   3.634  22.072  0.00  0.00    -0.323 OA
ATOM     18  H   UNL     1       9.058   4.180  22.062  0.00  0.00    +0.220 HD
ENDBRANCH  15  17
BRANCH  15  19
ATOM     19  O   UNL     1       9.860   2.005  21.581  0.00  0.00    -0.323 OA
ATOM     20  H   UNL     1       9.404   2.081  20.719  0.00  0.00    +0.220 HD
ENDBRANCH  15  19
ENDBRANCH  14  15
ENDBRANCH  13  14
ENDBRANCH   1  13
BRANCH   1  21
ATOM     21  C   UNL     1      10.039  -1.604  22.801  0.00  0.00    +0.189 C 
BRANCH  21  22
ATOM     22  O   UNL     1      10.128  -1.677  21.386  0.00  0.00    -0.392 OA
ATOM     23  H   UNL     1       9.315  -2.099  21.053  0.00  0.00    +0.210 HD
ENDBRANCH  21  22
ENDBRANCH   1  21
TORSDOF 9
ENDMDL
