MODEL 1
REMARK VINA RESULT:      -5.6      0.000      0.000
REMARK  Name = 
REMARK  11 active torsions:
REMARK  status: ('A' for Active; 'I' for Inactive)
REMARK    1  A    between atoms: C_1  and  C_2
REMARK    2  A    between atoms: C_2  and  C_3
REMARK    3  A    between atoms: C_3  and  C_4
REMARK    4  A    between atoms: C_3  and  O_6
REMARK    5  A    between atoms: C_4  and  C_5
REMARK    6  A    between atoms: O_6  and  C_7
REMARK    7  A    between atoms: C_10  and  C_21
REMARK    8  A    between atoms: C_12  and  N_20
REMARK    9  A    between atoms: C_14  and  N_16
REMARK   10  A    between atoms: C_17  and  C_19
REMARK   11  A    between atoms: C_21  and  O_23
REMARK                            x       y       z     vdW  Elec       q    Type
REMARK                         _______ _______ _______ _____ _____    ______ ____
ROOT
ATOM      1  C   UNL     1       9.383   2.367  22.017  0.00  0.00    +0.164 C 
ATOM      2  C   UNL     1      10.040   2.872  23.336  0.00  0.00    +0.122 C 
ATOM      3  C   UNL     1      10.189   1.828  24.475  0.00  0.00    +0.078 C 
ATOM      4  C   UNL     1      10.393   0.365  24.036  0.00  0.00    +0.062 C 
ATOM      5  C   UNL     1       9.919  -0.010  22.667  0.00  0.00    +0.036 C 
ATOM      6  C   UNL     1       9.440   0.882  21.785  0.00  0.00    +0.016 C 
ENDROOT
BRANCH   2   7
ATOM      7  N   UNL     1      11.274   3.639  23.105  0.00  0.00    -0.308 N 
ATOM      8  H   UNL     1      11.974   3.207  22.514  0.00  0.00    +0.149 HD
ATOM      9  C   UNL     1      11.463   4.929  23.523  0.00  0.00    +0.210 C 
ATOM     10  C   UNL     1      12.794   5.512  23.126  0.00  0.00    +0.109 C 
ATOM     11  O   UNL     1      10.641   5.553  24.183  0.00  0.00    -0.276 OA
ENDBRANCH   2   7
BRANCH   3  12
ATOM     12  N   UNL     1       9.046   1.939  25.412  0.00  0.00    -0.325 NA
ATOM     13  H   UNL     1       8.885   1.036  25.861  0.00  0.00    +0.119 HD
ATOM     14  H   UNL     1       9.297   2.580  26.167  0.00  0.00    +0.119 HD
ENDBRANCH   3  12
BRANCH   5  15
ATOM     15  C   UNL     1       9.980  -1.478  22.389  0.00  0.00    +0.333 C 
ATOM     16  O   UNL     1      10.342  -2.292  23.226  0.00  0.00    -0.245 OA
BRANCH  15  17
ATOM     17  O   UNL     1       9.651  -1.832  21.133  0.00  0.00    -0.477 OA
ATOM     18  H   UNL     1       9.167  -2.671  21.071  0.00  0.00    +0.295 HD
ENDBRANCH  15  17
ENDBRANCH   5  15
BRANCH   1  19
ATOM     19  O   UNL     1       7.992   2.694  21.880  0.00  0.00    -0.367 OA
BRANCH  19  20
ATOM     20  C   UNL     1       7.436   3.719  22.718  0.00  0.00    +0.119 C 
BRANCH  20  22
ATOM     21  C   UNL     1       7.784   6.249  22.542  0.00  0.00    +0.006 C 
ATOM     22  C   UNL     1       7.132   5.012  21.942  0.00  0.00    +0.028 C 
ENDBRANCH  20  22
BRANCH  20  23
ATOM     23  C   UNL     1       6.177   3.125  23.374  0.00  0.00    +0.028 C 
ATOM     24  C   UNL     1       6.178   1.599  23.349  0.00  0.00    +0.006 C 
ENDBRANCH  20  23
ENDBRANCH  19  20
ENDBRANCH   1  19
TORSDOF 8
ENDMDL
MODEL 2
REMARK VINA RESULT:      -5.5      3.373      5.776
REMARK  Name = 
REMARK  11 active torsions:
REMARK  status: ('A' for Active; 'I' for Inactive)
REMARK    1  A    between atoms: C_1  and  C_2
REMARK    2  A    between atoms: C_2  and  C_3
REMARK    3  A    between atoms: C_3  and  C_4
REMARK    4  A    between atoms: C_3  and  O_6
REMARK    5  A    between atoms: C_4  and  C_5
REMARK    6  A    between atoms: O_6  and  C_7
REMARK    7  A    between atoms: C_10  and  C_21
REMARK    8  A    between atoms: C_12  and  N_20
REMARK    9  A    between atoms: C_14  and  N_16
REMARK   10  A    between atoms: C_17  and  C_19
REMARK   11  A    between atoms: C_21  and  O_23
REMARK                            x       y       z     vdW  Elec       q    Type
REMARK                         _______ _______ _______ _____ _____    ______ ____
ROOT
ATOM      1  C   UNL     1       8.712  -1.645  24.452  0.00  0.00    +0.164 C 
ATOM      2  C   UNL     1       7.283  -1.524  23.843  0.00  0.00    +0.122 C 
ATOM      3  C   UNL     1       6.563  -2.859  23.510  0.00  0.00    +0.078 C 
ATOM      4  C   UNL     1       6.909  -4.063  24.406  0.00  0.00    +0.062 C 
ATOM      5  C   UNL     1       8.219  -4.024  25.127  0.00  0.00    +0.036 C 
ATOM      6  C   UNL     1       9.032  -2.954  25.117  0.00  0.00    +0.016 C 
ENDROOT
BRANCH   2   7
ATOM      7  N   UNL     1       6.423  -0.585  24.581  0.00  0.00    -0.308 N 
ATOM      8  H   UNL     1       6.097  -0.887  25.491  0.00  0.00    +0.149 HD
ATOM      9  C   UNL     1       6.159   0.694  24.171  0.00  0.00    +0.210 C 
ATOM     10  C   UNL     1       5.288   1.473  25.120  0.00  0.00    +0.109 C 
ATOM     11  O   UNL     1       6.570   1.165  23.118  0.00  0.00    -0.276 OA
ENDBRANCH   2   7
BRANCH   3  12
ATOM     12  N   UNL     1       6.763  -3.194  22.080  0.00  0.00    -0.325 NA
ATOM     13  H   UNL     1       6.307  -2.489  21.498  0.00  0.00    +0.119 HD
ATOM     14  H   UNL     1       7.759  -3.130  21.859  0.00  0.00    +0.119 HD
ENDBRANCH   3  12
BRANCH   5  15
ATOM     15  C   UNL     1       8.565  -5.302  25.821  0.00  0.00    +0.333 C 
ATOM     16  O   UNL     1       7.793  -5.868  26.582  0.00  0.00    -0.245 OA
BRANCH  15  17
ATOM     17  O   UNL     1       9.808  -5.760  25.582  0.00  0.00    -0.477 OA
ATOM     18  H   UNL     1       9.862  -6.724  25.474  0.00  0.00    +0.295 HD
ENDBRANCH  15  17
ENDBRANCH   5  15
BRANCH   1  19
ATOM     19  O   UNL     1       9.778  -1.455  23.508  0.00  0.00    -0.367 OA
BRANCH  19  20
ATOM     20  C   UNL     1      10.438  -0.182  23.455  0.00  0.00    +0.119 C 
BRANCH  20  22
ATOM     21  C   UNL     1       9.283  -0.170  21.170  0.00  0.00    +0.006 C 
ATOM     22  C   UNL     1      10.032   0.639  22.219  0.00  0.00    +0.028 C 
ENDBRANCH  20  22
BRANCH  20  23
ATOM     23  C   UNL     1      10.110   0.547  24.770  0.00  0.00    +0.028 C 
ATOM     24  C   UNL     1       9.615   1.971  24.531  0.00  0.00    +0.006 C 
ENDBRANCH  20  23
ENDBRANCH  19  20
ENDBRANCH   1  19
TORSDOF 8
ENDMDL
MODEL 3
REMARK VINA RESULT:      -5.5      3.912      6.095
REMARK  Name = 
REMARK  11 active torsions:
REMARK  status: ('A' for Active; 'I' for Inactive)
REMARK    1  A    between atoms: C_1  and  C_2
REMARK    2  A    between atoms: C_2  and  C_3
REMARK    3  A    between atoms: C_3  and  C_4
REMARK    4  A    between atoms: C_3  and  O_6
REMARK    5  A    between atoms: C_4  and  C_5
REMARK    6  A    between atoms: O_6  and  C_7
REMARK    7  A    between atoms: C_10  and  C_21
REMARK    8  A    between atoms: C_12  and  N_20
REMARK    9  A    between atoms: C_14  and  N_16
REMARK   10  A    between atoms: C_17  and  C_19
REMARK   11  A    between atoms: C_21  and  O_23
REMARK                            x       y       z     vdW  Elec       q    Type
REMARK                         _______ _______ _______ _____ _____    ______ ____
ROOT
ATOM      1  C   UNL     1       8.201  -2.394  22.935  0.00  0.00    +0.164 C 
ATOM      2  C   UNL     1       8.034  -1.008  23.627  0.00  0.00    +0.122 C 
ATOM      3  C   UNL     1       7.739  -1.031  25.151  0.00  0.00    +0.078 C 
ATOM      4  C   UNL     1       8.336  -2.209  25.944  0.00  0.00    +0.062 C 
ATOM      5  C   UNL     1       8.664  -3.451  25.177  0.00  0.00    +0.036 C 
ATOM      6  C   UNL     1       8.571  -3.536  23.840  0.00  0.00    +0.016 C 
ENDROOT
BRANCH   2   7
ATOM      7  N   UNL     1       9.099  -0.057  23.269  0.00  0.00    -0.308 N 
ATOM      8  H   UNL     1      10.028  -0.263  23.617  0.00  0.00    +0.149 HD
ATOM      9  C   UNL     1       8.932   0.989  22.403  0.00  0.00    +0.210 C 
ATOM     10  C   UNL     1      10.183   1.792  22.165  0.00  0.00    +0.109 C 
ATOM     11  O   UNL     1       7.860   1.270  21.881  0.00  0.00    -0.276 OA
ENDBRANCH   2   7
BRANCH   3  12
ATOM     12  N   UNL     1       6.278  -0.929  25.381  0.00  0.00    -0.325 NA
ATOM     13  H   UNL     1       5.787  -1.534  24.721  0.00  0.00    +0.119 HD
ATOM     14  H   UNL     1       6.061  -1.302  26.308  0.00  0.00    +0.119 HD
ENDBRANCH   3  12
BRANCH   5  15
ATOM     15  C   UNL     1       9.059  -4.606  26.041  0.00  0.00    +0.333 C 
ATOM     16  O   UNL     1       8.470  -4.886  27.075  0.00  0.00    -0.245 OA
BRANCH  15  17
ATOM     17  O   UNL     1      10.142  -5.287  25.620  0.00  0.00    -0.477 OA
ATOM     18  H   UNL     1      10.084  -5.594  24.701  0.00  0.00    +0.295 HD
ENDBRANCH  15  17
ENDBRANCH   5  15
BRANCH   1  19
ATOM     19  O   UNL     1       7.033  -2.856  22.239  0.00  0.00    -0.367 OA
BRANCH  19  20
ATOM     20  C   UNL     1       6.349  -4.018  22.730  0.00  0.00    +0.119 C 
BRANCH  20  22
ATOM     21  C   UNL     1       4.812  -4.207  24.770  0.00  0.00    +0.006 C 
ATOM     22  C   UNL     1       4.983  -3.677  23.353  0.00  0.00    +0.028 C 
ENDBRANCH  20  22
BRANCH  20  23
ATOM     23  C   UNL     1       6.220  -4.994  21.548  0.00  0.00    +0.028 C 
ATOM     24  C   UNL     1       6.717  -6.394  21.899  0.00  0.00    +0.006 C 
ENDBRANCH  20  23
ENDBRANCH  19  20
ENDBRANCH   1  19
TORSDOF 8
ENDMDL
MODEL 4
REMARK VINA RESULT:      -5.5      3.721      6.952
REMARK  Name = 
REMARK  11 active torsions:
REMARK  status: ('A' for Active; 'I' for Inactive)
REMARK    1  A    between atoms: C_1  and  C_2
REMARK    2  A    between atoms: C_2  and  C_3
REMARK    3  A    between atoms: C_3  and  C_4
REMARK    4  A    between atoms: C_3  and  O_6
REMARK    5  A    between atoms: C_4  and  C_5
REMARK    6  A    between atoms: O_6  and  C_7
REMARK    7  A    between atoms: C_10  and  C_21
REMARK    8  A    between atoms: C_12  and  N_20
REMARK    9  A    between atoms: C_14  and  N_16
REMARK   10  A    between atoms: C_17  and  C_19
REMARK   11  A    between atoms: C_21  and  O_23
REMARK                            x       y       z     vdW  Elec       q    Type
REMARK                         _______ _______ _______ _____ _____    ______ ____
ROOT
ATOM      1  C   UNL     1       7.337  -1.786  23.097  0.00  0.00    +0.164 C 
ATOM      2  C   UNL     1       8.770  -2.291  23.444  0.00  0.00    +0.122 C 
ATOM      3  C   UNL     1       9.944  -1.356  23.047  0.00  0.00    +0.078 C 
ATOM      4  C   UNL     1       9.646   0.156  23.061  0.00  0.00    +0.062 C 
ATOM      5  C   UNL     1       8.215   0.572  22.925  0.00  0.00    +0.036 C 
ATOM      6  C   UNL     1       7.194  -0.301  22.910  0.00  0.00    +0.016 C 
ENDROOT
BRANCH   2   7
ATOM      7  N   UNL     1       8.883  -2.790  24.823  0.00  0.00    -0.308 N 
ATOM      8  H   UNL     1       8.739  -2.114  25.564  0.00  0.00    +0.149 HD
ATOM      9  C   UNL     1       9.036  -4.110  25.150  0.00  0.00    +0.210 C 
ATOM     10  C   UNL     1       9.083  -4.372  26.632  0.00  0.00    +0.109 C 
ATOM     11  O   UNL     1       9.149  -5.003  24.319  0.00  0.00    -0.276 OA
ENDBRANCH   2   7
BRANCH   3  12
ATOM     12  N   UNL     1      10.495  -1.769  21.735  0.00  0.00    -0.325 NA
ATOM     13  H   UNL     1      10.789  -2.747  21.782  0.00  0.00    +0.119 HD
ATOM     14  H   UNL     1       9.749  -1.742  21.037  0.00  0.00    +0.119 HD
ENDBRANCH   3  12
BRANCH   5  15
ATOM     15  C   UNL     1       8.028   2.046  22.758  0.00  0.00    +0.333 C 
ATOM     16  O   UNL     1       7.277   2.699  23.468  0.00  0.00    -0.245 OA
BRANCH  15  17
ATOM     17  O   UNL     1       8.714   2.593  21.737  0.00  0.00    -0.477 OA
ATOM     18  H   UNL     1       8.894   3.541  21.843  0.00  0.00    +0.295 HD
ENDBRANCH  15  17
ENDBRANCH   5  15
BRANCH   1  19
ATOM     19  O   UNL     1       6.781  -2.350  21.899  0.00  0.00    -0.367 OA
BRANCH  19  20
ATOM     20  C   UNL     1       5.938  -3.507  22.005  0.00  0.00    +0.119 C 
BRANCH  20  22
ATOM     21  C   UNL     1       6.171  -5.778  20.845  0.00  0.00    +0.006 C 
ATOM     22  C   UNL     1       6.728  -4.823  21.892  0.00  0.00    +0.028 C 
ENDBRANCH  20  22
BRANCH  20  23
ATOM     23  C   UNL     1       5.188  -3.393  23.344  0.00  0.00    +0.028 C 
ATOM     24  C   UNL     1       5.424  -4.605  24.242  0.00  0.00    +0.006 C 
ENDBRANCH  20  23
ENDBRANCH  19  20
ENDBRANCH   1  19
TORSDOF 8
ENDMDL
MODEL 5
REMARK VINA RESULT:      -5.4      4.032      6.977
REMARK  Name = 
REMARK  11 active torsions:
REMARK  status: ('A' for Active; 'I' for Inactive)
REMARK    1  A    between atoms: C_1  and  C_2
REMARK    2  A    between atoms: C_2  and  C_3
REMARK    3  A    between atoms: C_3  and  C_4
REMARK    4  A    between atoms: C_3  and  O_6
REMARK    5  A    between atoms: C_4  and  C_5
REMARK    6  A    between atoms: O_6  and  C_7
REMARK    7  A    between atoms: C_10  and  C_21
REMARK    8  A    between atoms: C_12  and  N_20
REMARK    9  A    between atoms: C_14  and  N_16
REMARK   10  A    between atoms: C_17  and  C_19
REMARK   11  A    between atoms: C_21  and  O_23
REMARK                            x       y       z     vdW  Elec       q    Type
REMARK                         _______ _______ _______ _____ _____    ______ ____
ROOT
ATOM      1  C   UNL     1       7.537  -1.798  23.324  0.00  0.00    +0.164 C 
ATOM      2  C   UNL     1       7.755  -3.329  23.517  0.00  0.00    +0.122 C 
ATOM      3  C   UNL     1       8.550  -3.756  24.780  0.00  0.00    +0.078 C 
ATOM      4  C   UNL     1       8.407  -2.847  26.016  0.00  0.00    +0.062 C 
ATOM      5  C   UNL     1       7.994  -1.429  25.776  0.00  0.00    +0.036 C 
ATOM      6  C   UNL     1       7.639  -0.961  24.568  0.00  0.00    +0.016 C 
ENDROOT
BRANCH   2   7
ATOM      7  N   UNL     1       6.523  -4.112  23.329  0.00  0.00    -0.308 N 
ATOM      8  H   UNL     1       5.661  -3.685  23.646  0.00  0.00    +0.149 HD
ATOM      9  C   UNL     1       6.466  -5.296  22.646  0.00  0.00    +0.210 C 
ATOM     10  C   UNL     1       5.082  -5.883  22.553  0.00  0.00    +0.109 C 
ATOM     11  O   UNL     1       7.449  -5.850  22.169  0.00  0.00    -0.276 OA
ENDBRANCH   2   7
BRANCH   3  12
ATOM     12  N   UNL     1       9.978  -3.951  24.434  0.00  0.00    -0.325 NA
ATOM     13  H   UNL     1      10.203  -4.947  24.471  0.00  0.00    +0.119 HD
ATOM     14  H   UNL     1      10.125  -3.672  23.462  0.00  0.00    +0.119 HD
ENDBRANCH   3  12
BRANCH   5  15
ATOM     15  C   UNL     1       8.062  -0.567  26.996  0.00  0.00    +0.333 C 
ATOM     16  O   UNL     1       7.098   0.058  27.415  0.00  0.00    -0.245 OA
BRANCH  15  17
ATOM     17  O   UNL     1       9.276  -0.492  27.572  0.00  0.00    -0.477 OA
ATOM     18  H   UNL     1      10.013  -0.458  26.942  0.00  0.00    +0.295 HD
ENDBRANCH  15  17
ENDBRANCH   5  15
BRANCH   1  19
ATOM     19  O   UNL     1       8.447  -1.178  22.403  0.00  0.00    -0.367 OA
BRANCH  19  20
ATOM     20  C   UNL     1       9.108   0.034  22.792  0.00  0.00    +0.119 C 
BRANCH  20  22
ATOM     21  C   UNL     1      10.939   0.730  24.442  0.00  0.00    +0.006 C 
ATOM     22  C   UNL     1      10.532  -0.216  23.321  0.00  0.00    +0.028 C 
ENDBRANCH  20  22
BRANCH  20  23
ATOM     23  C   UNL     1       9.099   0.963  21.566  0.00  0.00    +0.028 C 
ATOM     24  C   UNL     1       7.926   1.939  21.591  0.00  0.00    +0.006 C 
ENDBRANCH  20  23
ENDBRANCH  19  20
ENDBRANCH   1  19
TORSDOF 8
ENDMDL
MODEL 6
REMARK VINA RESULT:      -5.3      3.696      7.271
REMARK  Name = 
REMARK  11 active torsions:
REMARK  status: ('A' for Active; 'I' for Inactive)
REMARK    1  A    between atoms: C_1  and  C_2
REMARK    2  A    between atoms: C_2  and  C_3
REMARK    3  A    between atoms: C_3  and  C_4
REMARK    4  A    between atoms: C_3  and  O_6
REMARK    5  A    between atoms: C_4  and  C_5
REMARK    6  A    between atoms: O_6  and  C_7
REMARK    7  A    between atoms: C_10  and  C_21
REMARK    8  A    between atoms: C_12  and  N_20
REMARK    9  A    between atoms: C_14  and  N_16
REMARK   10  A    between atoms: C_17  and  C_19
REMARK   11  A    between atoms: C_21  and  O_23
REMARK                            x       y       z     vdW  Elec       q    Type
REMARK                         _______ _______ _______ _____ _____    ______ ____
ROOT
ATOM      1  C   UNL     1       8.889  -2.347  23.505  0.00  0.00    +0.164 C 
ATOM      2  C   UNL     1       7.366  -2.467  23.196  0.00  0.00    +0.122 C 
ATOM      3  C   UNL     1       6.593  -1.132  23.022  0.00  0.00    +0.078 C 
ATOM      4  C   UNL     1       7.395   0.050  22.446  0.00  0.00    +0.062 C 
ATOM      5  C   UNL     1       8.883   0.006  22.599  0.00  0.00    +0.036 C 
ATOM      6  C   UNL     1       9.539  -1.053  23.101  0.00  0.00    +0.016 C 
ENDROOT
BRANCH   2   7
ATOM      7  N   UNL     1       7.073  -3.436  22.128  0.00  0.00    -0.308 N 
ATOM      8  H   UNL     1       7.181  -3.110  21.176  0.00  0.00    +0.149 HD
ATOM      9  C   UNL     1       6.799  -4.760  22.350  0.00  0.00    +0.210 C 
ATOM     10  C   UNL     1       6.576  -5.557  21.092  0.00  0.00    +0.109 C 
ATOM     11  O   UNL     1       6.717  -5.255  23.467  0.00  0.00    -0.276 OA
ENDBRANCH   2   7
BRANCH   3  12
ATOM     12  N   UNL     1       5.947  -0.755  24.301  0.00  0.00    -0.325 NA
ATOM     13  H   UNL     1       5.107  -1.321  24.437  0.00  0.00    +0.119 HD
ATOM     14  H   UNL     1       6.570  -0.999  25.073  0.00  0.00    +0.119 HD
ENDBRANCH   3  12
BRANCH   5  15
ATOM     15  C   UNL     1       9.569   1.269  22.187  0.00  0.00    +0.333 C 
ATOM     16  O   UNL     1      10.527   1.726  22.794  0.00  0.00    -0.245 OA
BRANCH  15  17
ATOM     17  O   UNL     1       9.025   1.891  21.124  0.00  0.00    -0.477 OA
ATOM     18  H   UNL     1       8.590   1.293  20.495  0.00  0.00    +0.295 HD
ENDBRANCH  15  17
ENDBRANCH   5  15
BRANCH   1  19
ATOM     19  O   UNL     1       9.228  -2.498  24.892  0.00  0.00    -0.367 OA
BRANCH  19  20
ATOM     20  C   UNL     1       8.276  -3.108  25.776  0.00  0.00    +0.119 C 
BRANCH  20  22
ATOM     21  C   UNL     1       9.786  -5.162  25.533  0.00  0.00    +0.006 C 
ATOM     22  C   UNL     1       8.814  -4.397  26.421  0.00  0.00    +0.028 C 
ENDBRANCH  20  22
BRANCH  20  23
ATOM     23  C   UNL     1       7.897  -2.048  26.825  0.00  0.00    +0.028 C 
ATOM     24  C   UNL     1       8.800  -0.818  26.754  0.00  0.00    +0.006 C 
ENDBRANCH  20  23
ENDBRANCH  19  20
ENDBRANCH   1  19
TORSDOF 8
ENDMDL
MODEL 7
REMARK VINA RESULT:      -5.3      5.630      8.703
REMARK  Name = 
REMARK  11 active torsions:
REMARK  status: ('A' for Active; 'I' for Inactive)
REMARK    1  A    between atoms: C_1  and  C_2
REMARK    2  A    between atoms: C_2  and  C_3
REMARK    3  A    between atoms: C_3  and  C_4
REMARK    4  A    between atoms: C_3  and  O_6
REMARK    5  A    between atoms: C_4  and  C_5
REMARK    6  A    between atoms: O_6  and  C_7
REMARK    7  A    between atoms: C_10  and  C_21
REMARK    8  A    between atoms: C_12  and  N_20
REMARK    9  A    between atoms: C_14  and  N_16
REMARK   10  A    between atoms: C_17  and  C_19
REMARK   11  A    between atoms: C_21  and  O_23
REMARK                            x       y       z     vdW  Elec       q    Type
REMARK                         _______ _______ _______ _____ _____    ______ ____
ROOT
ATOM      1  C   UNL     1       6.816  -3.841  24.513  0.00  0.00    +0.164 C 
ATOM      2  C   UNL     1       7.499  -4.893  25.438  0.00  0.00    +0.122 C 
ATOM      3  C   UNL     1       9.040  -5.028  25.304  0.00  0.00    +0.078 C 
ATOM      4  C   UNL     1       9.805  -3.749  24.913  0.00  0.00    +0.062 C 
ATOM      5  C   UNL     1       9.034  -2.683  24.200  0.00  0.00    +0.036 C 
ATOM      6  C   UNL     1       7.707  -2.746  23.998  0.00  0.00    +0.016 C 
ENDROOT
BRANCH   2   7
ATOM      7  N   UNL     1       7.056  -4.800  26.837  0.00  0.00    -0.308 N 
ATOM      8  H   UNL     1       7.355  -3.981  27.355  0.00  0.00    +0.149 HD
ATOM      9  C   UNL     1       6.174  -5.669  27.421  0.00  0.00    +0.210 C 
ATOM     10  C   UNL     1       5.844  -5.336  28.852  0.00  0.00    +0.109 C 
ATOM     11  O   UNL     1       5.709  -6.646  26.848  0.00  0.00    -0.276 OA
ENDBRANCH   2   7
BRANCH   3  12
ATOM     12  N   UNL     1       9.370  -6.140  24.382  0.00  0.00    -0.325 NA
ATOM     13  H   UNL     1       9.014  -7.017  24.767  0.00  0.00    +0.119 HD
ATOM     14  H   UNL     1       8.868  -6.003  23.503  0.00  0.00    +0.119 HD
ENDBRANCH   3  12
BRANCH   5  15
ATOM     15  C   UNL     1       9.883  -1.563  23.689  0.00  0.00    +0.333 C 
ATOM     16  O   UNL     1      10.399  -1.581  22.581  0.00  0.00    -0.245 OA
BRANCH  15  17
ATOM     17  O   UNL     1      10.076  -0.555  24.559  0.00  0.00    -0.477 OA
ATOM     18  H   UNL     1      10.682  -0.769  25.287  0.00  0.00    +0.295 HD
ENDBRANCH  15  17
ENDBRANCH   5  15
BRANCH   1  19
ATOM     19  O   UNL     1       6.208  -4.390  23.334  0.00  0.00    -0.367 OA
BRANCH  19  20
ATOM     20  C   UNL     1       5.931  -5.797  23.288  0.00  0.00    +0.119 C 
BRANCH  20  22
ATOM     21  C   UNL     1       3.553  -4.857  23.426  0.00  0.00    +0.006 C 
ATOM     22  C   UNL     1       4.422  -6.100  23.297  0.00  0.00    +0.028 C 
ENDBRANCH  20  22
BRANCH  20  23
ATOM     23  C   UNL     1       6.627  -6.350  22.032  0.00  0.00    +0.028 C 
ATOM     24  C   UNL     1       6.191  -5.620  20.764  0.00  0.00    +0.006 C 
ENDBRANCH  20  23
ENDBRANCH  19  20
ENDBRANCH   1  19
TORSDOF 8
ENDMDL
MODEL 8
REMARK VINA RESULT:      -5.2      4.920      7.137
REMARK  Name = 
REMARK  11 active torsions:
REMARK  status: ('A' for Active; 'I' for Inactive)
REMARK    1  A    between atoms: C_1  and  C_2
REMARK    2  A    between atoms: C_2  and  C_3
REMARK    3  A    between atoms: C_3  and  C_4
REMARK    4  A    between atoms: C_3  and  O_6
REMARK    5  A    between atoms: C_4  and  C_5
REMARK    6  A    between atoms: O_6  and  C_7
REMARK    7  A    between atoms: C_10  and  C_21
REMARK    8  A    between atoms: C_12  and  N_20
REMARK    9  A    between atoms: C_14  and  N_16
REMARK   10  A    between atoms: C_17  and  C_19
REMARK   11  A    between atoms: C_21  and  O_23
REMARK                            x       y       z     vdW  Elec       q    Type
REMARK                         _______ _______ _______ _____ _____    ______ ____
ROOT
ATOM      1  C   UNL     1       8.099  -3.295  24.364  0.00  0.00    +0.164 C 
ATOM      2  C   UNL     1       7.722  -1.830  24.738  0.00  0.00    +0.122 C 
ATOM      3  C   UNL     1       6.526  -1.656  25.713  0.00  0.00    +0.078 C 
ATOM      4  C   UNL     1       6.317  -2.781  26.744  0.00  0.00    +0.062 C 
ATOM      5  C   UNL     1       6.885  -4.125  26.412  0.00  0.00    +0.036 C 
ATOM      6  C   UNL     1       7.652  -4.354  25.333  0.00  0.00    +0.016 C 
ENDROOT
BRANCH   2   7
ATOM      7  N   UNL     1       8.887  -1.017  25.118  0.00  0.00    -0.308 N 
ATOM      8  H   UNL     1       9.234  -1.133  26.063  0.00  0.00    +0.149 HD
ATOM      9  C   UNL     1       9.592  -0.234  24.244  0.00  0.00    +0.210 C 
ATOM     10  C   UNL     1      10.771   0.467  24.865  0.00  0.00    +0.109 C 
ATOM     11  O   UNL     1       9.285  -0.090  23.067  0.00  0.00    -0.276 OA
ENDBRANCH   2   7
BRANCH   3  12
ATOM     12  N   UNL     1       5.283  -1.409  24.945  0.00  0.00    -0.325 NA
ATOM     13  H   UNL     1       4.599  -0.944  25.545  0.00  0.00    +0.119 HD
ATOM     14  H   UNL     1       5.482  -0.748  24.192  0.00  0.00    +0.119 HD
ENDBRANCH   3  12
BRANCH   5  15
ATOM     15  C   UNL     1       6.480  -5.203  27.366  0.00  0.00    +0.333 C 
ATOM     16  O   UNL     1       6.395  -5.018  28.571  0.00  0.00    -0.245 OA
BRANCH  15  17
ATOM     17  O   UNL     1       6.261  -6.407  26.804  0.00  0.00    -0.477 OA
ATOM     18  H   UNL     1       7.003  -7.026  26.891  0.00  0.00    +0.295 HD
ENDBRANCH  15  17
ENDBRANCH   5  15
BRANCH   1  19
ATOM     19  O   UNL     1       7.590  -3.736  23.096  0.00  0.00    -0.367 OA
BRANCH  19  20
ATOM     20  C   UNL     1       6.600  -4.774  23.070  0.00  0.00    +0.119 C 
BRANCH  20  22
ATOM     21  C   UNL     1       4.140  -4.648  23.771  0.00  0.00    +0.006 C 
ATOM     22  C   UNL     1       5.193  -4.237  22.752  0.00  0.00    +0.028 C 
ENDBRANCH  20  22
BRANCH  20  23
ATOM     23  C   UNL     1       7.071  -5.816  22.040  0.00  0.00    +0.028 C 
ATOM     24  C   UNL     1       6.211  -5.809  20.779  0.00  0.00    +0.006 C 
ENDBRANCH  20  23
ENDBRANCH  19  20
ENDBRANCH   1  19
TORSDOF 8
ENDMDL
MODEL 9
REMARK VINA RESULT:      -5.2      3.231      5.096
REMARK  Name = 
REMARK  11 active torsions:
REMARK  status: ('A' for Active; 'I' for Inactive)
REMARK    1  A    between atoms: C_1  and  C_2
REMARK    2  A    between atoms: C_2  and  C_3
REMARK    3  A    between atoms: C_3  and  C_4
REMARK    4  A    between atoms: C_3  and  O_6
REMARK    5  A    between atoms: C_4  and  C_5
REMARK    6  A    between atoms: O_6  and  C_7
REMARK    7  A    between atoms: C_10  and  C_21
REMARK    8  A    between atoms: C_12  and  N_20
REMARK    9  A    between atoms: C_14  and  N_16
REMARK   10  A    between atoms: C_17  and  C_19
REMARK   11  A    between atoms: C_21  and  O_23
REMARK                            x       y       z     vdW  Elec       q    Type
REMARK                         _______ _______ _______ _____ _____    ______ ____
ROOT
ATOM      1  C   UNL     1       9.165  -1.277  24.897  0.00  0.00    +0.164 C 
ATOM      2  C   UNL     1       7.741  -0.661  25.035  0.00  0.00    +0.122 C 
ATOM      3  C   UNL     1       6.591  -1.419  24.318  0.00  0.00    +0.078 C 
ATOM      4  C   UNL     1       6.751  -2.947  24.202  0.00  0.00    +0.062 C 
ATOM      5  C   UNL     1       8.140  -3.497  24.281  0.00  0.00    +0.036 C 
ATOM      6  C   UNL     1       9.215  -2.742  24.560  0.00  0.00    +0.016 C 
ENDROOT
BRANCH   2   7
ATOM      7  N   UNL     1       7.404  -0.299  26.421  0.00  0.00    -0.308 N 
ATOM      8  H   UNL     1       7.337  -1.061  27.086  0.00  0.00    +0.149 HD
ATOM      9  C   UNL     1       7.312   0.989  26.875  0.00  0.00    +0.210 C 
ATOM     10  C   UNL     1       6.998   1.099  28.343  0.00  0.00    +0.109 C 
ATOM     11  O   UNL     1       7.447   1.970  26.155  0.00  0.00    -0.276 OA
ENDBRANCH   2   7
BRANCH   3  12
ATOM     12  N   UNL     1       6.343  -0.815  22.988  0.00  0.00    -0.325 NA
ATOM     13  H   UNL     1       5.541  -1.272  22.550  0.00  0.00    +0.119 HD
ATOM     14  H   UNL     1       6.068   0.161  23.112  0.00  0.00    +0.119 HD
ENDBRANCH   3  12
BRANCH   5  15
ATOM     15  C   UNL     1       8.229  -4.958  23.972  0.00  0.00    +0.333 C 
ATOM     16  O   UNL     1       9.175  -5.648  24.320  0.00  0.00    -0.245 OA
BRANCH  15  17
ATOM     17  O   UNL     1       7.210  -5.446  23.240  0.00  0.00    -0.477 OA
ATOM     18  H   UNL     1       7.427  -5.590  22.305  0.00  0.00    +0.295 HD
ENDBRANCH  15  17
ENDBRANCH   5  15
BRANCH   1  19
ATOM     19  O   UNL     1       9.990  -0.655  23.901  0.00  0.00    -0.367 OA
BRANCH  19  20
ATOM     20  C   UNL     1       9.686   0.686  23.489  0.00  0.00    +0.119 C 
BRANCH  20  22
ATOM     21  C   UNL     1      10.679   3.043  23.365  0.00  0.00    +0.006 C 
ATOM     22  C   UNL     1      10.628   1.724  24.123  0.00  0.00    +0.028 C 
ENDBRANCH  20  22
BRANCH  20  23
ATOM     23  C   UNL     1       9.749   0.707  21.952  0.00  0.00    +0.028 C 
ATOM     24  C   UNL     1       9.514  -0.674  21.346  0.00  0.00    +0.006 C 
ENDBRANCH  20  23
ENDBRANCH  19  20
ENDBRANCH   1  19
TORSDOF 8
ENDMDL
