MODEL 1
REMARK VINA RESULT:      -7.1      0.000      0.000
REMARK  Name = 
REMARK  4 active torsions:
REMARK  status: ('A' for Active; 'I' for Inactive)
REMARK    1  A    between atoms: C_3  and  N_13
REMARK    2  A    between atoms: C_6  and  O_12
REMARK    3  A    between atoms: C_8  and  C_10
REMARK    4  A    between atoms: C_10  and  O_11
REMARK                            x       y       z     vdW  Elec       q    Type
REMARK                         _______ _______ _______ _____ _____    ______ ____
ROOT
ATOM      1  N   UNL     1       7.073  -2.192  24.803  0.00  0.00    -0.308 N 
ATOM      2  C   UNL     1       7.669  -3.283  25.385  0.00  0.00    +0.170 A 
ATOM      3  N   UNL     1       8.852  -3.866  25.053  0.00  0.00    -0.196 NA
ATOM      4  C   UNL     1       9.148  -4.899  25.798  0.00  0.00    +0.195 A 
ATOM      5  N   UNL     1      10.262  -5.637  25.554  0.00  0.00    -0.329 N 
ATOM      6  H   UNL     1      10.216  -6.619  25.795  0.00  0.00    +0.145 HD
ATOM      7  H   UNL     1      10.630  -5.484  24.620  0.00  0.00    +0.145 HD
ATOM      8  N   UNL     1       8.375  -5.336  26.855  0.00  0.00    -0.293 N 
ATOM      9  H   UNL     1       8.691  -6.090  27.439  0.00  0.00    +0.172 HD
ATOM     10  C   UNL     1       7.174  -4.763  27.243  0.00  0.00    +0.280 A 
ATOM     11  O   UNL     1       6.547  -5.164  28.215  0.00  0.00    -0.265 OA
ATOM     12  C   UNL     1       6.792  -3.666  26.380  0.00  0.00    +0.172 A 
ATOM     13  N   UNL     1       5.645  -2.922  26.361  0.00  0.00    -0.229 NA
ATOM     14  C   UNL     1       5.827  -2.075  25.371  0.00  0.00    +0.202 A 
ENDROOT
BRANCH   1  20
ATOM     15  C   UNL     1       9.193  -0.235  25.638  0.00  0.00    +0.010 C 
ATOM     16  C   UNL     1       8.833  -0.441  24.361  0.00  0.00    -0.046 C 
ATOM     17  C   UNL     1       9.649   0.042  23.167  0.00  0.00    +0.070 C 
ATOM     18  C   UNL     1       9.175  -0.852  22.001  0.00  0.00    +0.126 C 
ATOM     19  C   UNL     1       8.329  -1.948  22.641  0.00  0.00    +0.061 C 
ATOM     20  C   UNL     1       7.677  -1.272  23.854  0.00  0.00    +0.118 C 
BRANCH  18  21
ATOM     21  O   UNL     1      10.296  -1.421  21.333  0.00  0.00    -0.391 OA
ATOM     22  H   UNL     1      10.396  -2.342  21.633  0.00  0.00    +0.210 HD
ENDBRANCH  18  21
BRANCH  17  23
ATOM     23  C   UNL     1       9.399   1.521  22.827  0.00  0.00    +0.166 C 
BRANCH  23  24
ATOM     24  O   UNL     1       9.709   1.822  21.471  0.00  0.00    -0.394 OA
ATOM     25  H   UNL     1       9.627   1.001  20.957  0.00  0.00    +0.209 HD
ENDBRANCH  23  24
ENDBRANCH  17  23
ENDBRANCH   1  20
TORSDOF 4
ENDMDL
MODEL 2
REMARK VINA RESULT:      -6.9      2.384      6.317
REMARK  Name = 
REMARK  4 active torsions:
REMARK  status: ('A' for Active; 'I' for Inactive)
REMARK    1  A    between atoms: C_3  and  N_13
REMARK    2  A    between atoms: C_6  and  O_12
REMARK    3  A    between atoms: C_8  and  C_10
REMARK    4  A    between atoms: C_10  and  O_11
REMARK                            x       y       z     vdW  Elec       q    Type
REMARK                         _______ _______ _______ _____ _____    ______ ____
ROOT
ATOM      1  N   UNL     1       9.069  -1.854  23.867  0.00  0.00    -0.308 N 
ATOM      2  C   UNL     1       8.987  -0.495  24.045  0.00  0.00    +0.170 A 
ATOM      3  N   UNL     1       8.475   0.178  25.110  0.00  0.00    -0.196 NA
ATOM      4  C   UNL     1       8.537   1.478  24.980  0.00  0.00    +0.195 A 
ATOM      5  N   UNL     1       8.007   2.298  25.924  0.00  0.00    -0.329 N 
ATOM      6  H   UNL     1       7.655   3.192  25.602  0.00  0.00    +0.145 HD
ATOM      7  H   UNL     1       7.347   1.818  26.528  0.00  0.00    +0.145 HD
ATOM      8  N   UNL     1       9.110   2.120  23.900  0.00  0.00    -0.293 N 
ATOM      9  H   UNL     1       9.196   3.121  23.890  0.00  0.00    +0.172 HD
ATOM     10  C   UNL     1       9.661   1.477  22.802  0.00  0.00    +0.280 A 
ATOM     11  O   UNL     1      10.195   2.093  21.890  0.00  0.00    -0.265 OA
ATOM     12  C   UNL     1       9.531   0.038  22.894  0.00  0.00    +0.172 A 
ATOM     13  N   UNL     1       9.844  -0.931  21.983  0.00  0.00    -0.229 NA
ATOM     14  C   UNL     1       9.512  -2.055  22.581  0.00  0.00    +0.202 A 
ENDROOT
BRANCH   1  20
ATOM     15  C   UNL     1       6.475  -3.358  24.019  0.00  0.00    +0.010 C 
ATOM     16  C   UNL     1       7.556  -3.665  24.753  0.00  0.00    -0.046 C 
ATOM     17  C   UNL     1       7.717  -4.980  25.507  0.00  0.00    +0.070 C 
ATOM     18  C   UNL     1       9.241  -5.110  25.720  0.00  0.00    +0.126 C 
ATOM     19  C   UNL     1       9.869  -4.019  24.858  0.00  0.00    +0.061 C 
ATOM     20  C   UNL     1       8.842  -2.880  24.870  0.00  0.00    +0.118 C 
BRANCH  18  21
ATOM     21  O   UNL     1       9.688  -6.392  25.294  0.00  0.00    -0.391 OA
ATOM     22  H   UNL     1       9.152  -6.666  24.529  0.00  0.00    +0.210 HD
ENDBRANCH  18  21
BRANCH  17  23
ATOM     23  C   UNL     1       6.997  -4.985  26.867  0.00  0.00    +0.166 C 
BRANCH  23  24
ATOM     24  O   UNL     1       7.579  -5.908  27.781  0.00  0.00    -0.394 OA
ATOM     25  H   UNL     1       8.096  -5.401  28.429  0.00  0.00    +0.209 HD
ENDBRANCH  23  24
ENDBRANCH  17  23
ENDBRANCH   1  20
TORSDOF 4
ENDMDL
MODEL 3
REMARK VINA RESULT:      -6.7      1.099      1.941
REMARK  Name = 
REMARK  4 active torsions:
REMARK  status: ('A' for Active; 'I' for Inactive)
REMARK    1  A    between atoms: C_3  and  N_13
REMARK    2  A    between atoms: C_6  and  O_12
REMARK    3  A    between atoms: C_8  and  C_10
REMARK    4  A    between atoms: C_10  and  O_11
REMARK                            x       y       z     vdW  Elec       q    Type
REMARK                         _______ _______ _______ _____ _____    ______ ____
ROOT
ATOM      1  N   UNL     1       7.333  -1.902  25.358  0.00  0.00    -0.308 N 
ATOM      2  C   UNL     1       7.855  -3.110  25.749  0.00  0.00    +0.170 A 
ATOM      3  N   UNL     1       9.015  -3.690  25.342  0.00  0.00    -0.196 NA
ATOM      4  C   UNL     1       9.238  -4.853  25.897  0.00  0.00    +0.195 A 
ATOM      5  N   UNL     1      10.319  -5.597  25.547  0.00  0.00    -0.329 N 
ATOM      6  H   UNL     1      10.216  -6.602  25.609  0.00  0.00    +0.145 HD
ATOM      7  H   UNL     1      10.721  -5.303  24.662  0.00  0.00    +0.145 HD
ATOM      8  N   UNL     1       8.413  -5.426  26.845  0.00  0.00    -0.293 N 
ATOM      9  H   UNL     1       8.674  -6.287  27.292  0.00  0.00    +0.172 HD
ATOM     10  C   UNL     1       7.232  -4.865  27.306  0.00  0.00    +0.280 A 
ATOM     11  O   UNL     1       6.559  -5.395  28.179  0.00  0.00    -0.265 OA
ATOM     12  C   UNL     1       6.932  -3.613  26.644  0.00  0.00    +0.172 A 
ATOM     13  N   UNL     1       5.825  -2.816  26.735  0.00  0.00    -0.229 NA
ATOM     14  C   UNL     1       6.079  -1.819  25.915  0.00  0.00    +0.202 A 
ENDROOT
BRANCH   1  20
ATOM     15  C   UNL     1       7.589  -2.054  22.370  0.00  0.00    +0.010 C 
ATOM     16  C   UNL     1       7.945  -0.980  23.094  0.00  0.00    -0.046 C 
ATOM     17  C   UNL     1       8.221   0.391  22.487  0.00  0.00    +0.070 C 
ATOM     18  C   UNL     1       8.049   1.368  23.669  0.00  0.00    +0.126 C 
ATOM     19  C   UNL     1       7.436   0.543  24.798  0.00  0.00    +0.061 C 
ATOM     20  C   UNL     1       8.009  -0.865  24.599  0.00  0.00    +0.118 C 
BRANCH  18  21
ATOM     21  O   UNL     1       7.175   2.430  23.305  0.00  0.00    -0.391 OA
ATOM     22  H   UNL     1       6.353   2.044  22.953  0.00  0.00    +0.210 HD
ENDBRANCH  18  21
BRANCH  17  23
ATOM     23  C   UNL     1       9.640   0.517  21.906  0.00  0.00    +0.166 C 
BRANCH  23  24
ATOM     24  O   UNL     1       9.957   1.857  21.546  0.00  0.00    -0.394 OA
ATOM     25  H   UNL     1      10.899   2.002  21.737  0.00  0.00    +0.209 HD
ENDBRANCH  23  24
ENDBRANCH  17  23
ENDBRANCH   1  20
TORSDOF 4
ENDMDL
MODEL 4
REMARK VINA RESULT:      -6.7      3.058      5.761
REMARK  Name = 
REMARK  4 active torsions:
REMARK  status: ('A' for Active; 'I' for Inactive)
REMARK    1  A    between atoms: C_3  and  N_13
REMARK    2  A    between atoms: C_6  and  O_12
REMARK    3  A    between atoms: C_8  and  C_10
REMARK    4  A    between atoms: C_10  and  O_11
REMARK                            x       y       z     vdW  Elec       q    Type
REMARK                         _______ _______ _______ _____ _____    ______ ____
ROOT
ATOM      1  N   UNL     1       8.167  -2.567  23.220  0.00  0.00    -0.308 N 
ATOM      2  C   UNL     1       8.657  -1.729  24.191  0.00  0.00    +0.170 A 
ATOM      3  N   UNL     1       8.431  -1.781  25.531  0.00  0.00    -0.196 NA
ATOM      4  C   UNL     1       9.041  -0.834  26.197  0.00  0.00    +0.195 A 
ATOM      5  N   UNL     1       8.866  -0.701  27.537  0.00  0.00    -0.329 N 
ATOM      6  H   UNL     1       8.937   0.236  27.913  0.00  0.00    +0.145 HD
ATOM      7  H   UNL     1       8.039  -1.189  27.869  0.00  0.00    +0.145 HD
ATOM      8  N   UNL     1       9.876   0.101  25.620  0.00  0.00    -0.293 N 
ATOM      9  H   UNL     1      10.377   0.759  26.191  0.00  0.00    +0.172 HD
ATOM     10  C   UNL     1      10.152   0.181  24.263  0.00  0.00    +0.280 A 
ATOM     11  O   UNL     1      10.934   1.004  23.807  0.00  0.00    -0.265 OA
ATOM     12  C   UNL     1       9.424  -0.812  23.502  0.00  0.00    +0.172 A 
ATOM     13  N   UNL     1       9.339  -0.991  22.149  0.00  0.00    -0.229 NA
ATOM     14  C   UNL     1       8.538  -2.027  22.012  0.00  0.00    +0.202 A 
ENDROOT
BRANCH   1  20
ATOM     15  C   UNL     1       5.289  -2.686  24.070  0.00  0.00    +0.010 C 
ATOM     16  C   UNL     1       6.003  -3.764  23.708  0.00  0.00    -0.046 C 
ATOM     17  C   UNL     1       5.380  -5.116  23.379  0.00  0.00    +0.070 C 
ATOM     18  C   UNL     1       6.453  -5.830  22.531  0.00  0.00    +0.126 C 
ATOM     19  C   UNL     1       7.496  -4.764  22.207  0.00  0.00    +0.061 C 
ATOM     20  C   UNL     1       7.486  -3.833  23.425  0.00  0.00    +0.118 C 
BRANCH  18  21
ATOM     21  O   UNL     1       5.876  -6.334  21.332  0.00  0.00    -0.391 OA
ATOM     22  H   UNL     1       6.316  -7.173  21.108  0.00  0.00    +0.210 HD
ENDBRANCH  18  21
BRANCH  17  23
ATOM     23  C   UNL     1       5.061  -5.951  24.630  0.00  0.00    +0.166 C 
BRANCH  23  24
ATOM     24  O   UNL     1       4.671  -7.282  24.305  0.00  0.00    -0.394 OA
ATOM     25  H   UNL     1       5.313  -7.632  23.665  0.00  0.00    +0.209 HD
ENDBRANCH  23  24
ENDBRANCH  17  23
ENDBRANCH   1  20
TORSDOF 4
ENDMDL
MODEL 5
REMARK VINA RESULT:      -6.7      2.687      3.107
REMARK  Name = 
REMARK  4 active torsions:
REMARK  status: ('A' for Active; 'I' for Inactive)
REMARK    1  A    between atoms: C_3  and  N_13
REMARK    2  A    between atoms: C_6  and  O_12
REMARK    3  A    between atoms: C_8  and  C_10
REMARK    4  A    between atoms: C_10  and  O_11
REMARK                            x       y       z     vdW  Elec       q    Type
REMARK                         _______ _______ _______ _____ _____    ______ ____
ROOT
ATOM      1  N   UNL     1       7.435  -2.912  24.252  0.00  0.00    -0.308 N 
ATOM      2  C   UNL     1       6.862  -3.962  23.578  0.00  0.00    +0.170 A 
ATOM      3  N   UNL     1       6.961  -4.258  22.254  0.00  0.00    -0.196 NA
ATOM      4  C   UNL     1       6.293  -5.328  21.911  0.00  0.00    +0.195 A 
ATOM      5  N   UNL     1       6.231  -5.724  20.613  0.00  0.00    -0.329 N 
ATOM      6  H   UNL     1       5.390  -6.212  20.328  0.00  0.00    +0.145 HD
ATOM      7  H   UNL     1       6.484  -4.981  19.970  0.00  0.00    +0.145 HD
ATOM      8  N   UNL     1       5.596  -6.122  22.800  0.00  0.00    -0.293 N 
ATOM      9  H   UNL     1       5.164  -6.975  22.491  0.00  0.00    +0.172 HD
ATOM     10  C   UNL     1       5.484  -5.872  24.159  0.00  0.00    +0.280 A 
ATOM     11  O   UNL     1       4.888  -6.631  24.912  0.00  0.00    -0.265 OA
ATOM     12  C   UNL     1       6.153  -4.647  24.543  0.00  0.00    +0.172 A 
ATOM     13  N   UNL     1       6.183  -4.005  25.749  0.00  0.00    -0.229 NA
ATOM     14  C   UNL     1       6.925  -2.941  25.528  0.00  0.00    +0.202 A 
ENDROOT
BRANCH   1  20
ATOM     15  C   UNL     1       6.738  -0.296  22.953  0.00  0.00    +0.010 C 
ATOM     16  C   UNL     1       7.993  -0.665  23.256  0.00  0.00    -0.046 C 
ATOM     17  C   UNL     1       9.173   0.300  23.276  0.00  0.00    +0.070 C 
ATOM     18  C   UNL     1      10.221  -0.403  24.165  0.00  0.00    +0.126 C 
ATOM     19  C   UNL     1       9.491  -1.581  24.805  0.00  0.00    +0.061 C 
ATOM     20  C   UNL     1       8.461  -2.012  23.755  0.00  0.00    +0.118 C 
BRANCH  18  21
ATOM     21  O   UNL     1      10.692   0.489  25.168  0.00  0.00    -0.391 OA
ATOM     22  H   UNL     1      10.391   0.163  26.035  0.00  0.00    +0.210 HD
ENDBRANCH  18  21
BRANCH  17  23
ATOM     23  C   UNL     1       9.762   0.558  21.878  0.00  0.00    +0.166 C 
BRANCH  23  24
ATOM     24  O   UNL     1       9.597   1.911  21.466  0.00  0.00    -0.394 OA
ATOM     25  H   UNL     1       8.653   2.057  21.291  0.00  0.00    +0.209 HD
ENDBRANCH  23  24
ENDBRANCH  17  23
ENDBRANCH   1  20
TORSDOF 4
ENDMDL
MODEL 6
REMARK VINA RESULT:      -6.6      2.520      6.509
REMARK  Name = 
REMARK  4 active torsions:
REMARK  status: ('A' for Active; 'I' for Inactive)
REMARK    1  A    between atoms: C_3  and  N_13
REMARK    2  A    between atoms: C_6  and  O_12
REMARK    3  A    between atoms: C_8  and  C_10
REMARK    4  A    between atoms: C_10  and  O_11
REMARK                            x       y       z     vdW  Elec       q    Type
REMARK                         _______ _______ _______ _____ _____    ______ ____
ROOT
ATOM      1  N   UNL     1       8.621  -2.060  23.728  0.00  0.00    -0.308 N 
ATOM      2  C   UNL     1       8.242  -0.819  23.278  0.00  0.00    +0.170 A 
ATOM      3  N   UNL     1       7.003  -0.261  23.312  0.00  0.00    -0.196 NA
ATOM      4  C   UNL     1       6.961   0.942  22.800  0.00  0.00    +0.195 A 
ATOM      5  N   UNL     1       5.786   1.614  22.694  0.00  0.00    -0.329 N 
ATOM      6  H   UNL     1       5.704   2.265  21.923  0.00  0.00    +0.145 HD
ATOM      7  H   UNL     1       4.981   0.999  22.768  0.00  0.00    +0.145 HD
ATOM      8  N   UNL     1       8.066   1.614  22.318  0.00  0.00    -0.293 N 
ATOM      9  H   UNL     1       7.987   2.566  22.005  0.00  0.00    +0.172 HD
ATOM     10  C   UNL     1       9.351   1.095  22.281  0.00  0.00    +0.280 A 
ATOM     11  O   UNL     1      10.305   1.749  21.881  0.00  0.00    -0.265 OA
ATOM     12  C   UNL     1       9.401  -0.266  22.772  0.00  0.00    +0.172 A 
ATOM     13  N   UNL     1      10.442  -1.152  22.800  0.00  0.00    -0.229 NA
ATOM     14  C   UNL     1       9.927  -2.237  23.338  0.00  0.00    +0.202 A 
ENDROOT
BRANCH   1  20
ATOM     15  C   UNL     1       7.211  -4.434  22.546  0.00  0.00    +0.010 C 
ATOM     16  C   UNL     1       7.298  -4.202  23.866  0.00  0.00    -0.046 C 
ATOM     17  C   UNL     1       6.981  -5.248  24.928  0.00  0.00    +0.070 C 
ATOM     18  C   UNL     1       7.716  -4.742  26.188  0.00  0.00    +0.126 C 
ATOM     19  C   UNL     1       8.611  -3.601  25.710  0.00  0.00    +0.061 C 
ATOM     20  C   UNL     1       7.837  -2.966  24.549  0.00  0.00    +0.118 C 
BRANCH  18  21
ATOM     21  O   UNL     1       8.505  -5.785  26.748  0.00  0.00    -0.391 OA
ATOM     22  H   UNL     1       8.340  -5.815  27.706  0.00  0.00    +0.210 HD
ENDBRANCH  18  21
BRANCH  17  23
ATOM     23  C   UNL     1       5.475  -5.374  25.217  0.00  0.00    +0.166 C 
BRANCH  23  24
ATOM     24  O   UNL     1       4.899  -6.513  24.585  0.00  0.00    -0.394 OA
ATOM     25  H   UNL     1       5.624  -7.067  24.251  0.00  0.00    +0.209 HD
ENDBRANCH  23  24
ENDBRANCH  17  23
ENDBRANCH   1  20
TORSDOF 4
ENDMDL
MODEL 7
REMARK VINA RESULT:      -6.6      2.548      3.491
REMARK  Name = 
REMARK  4 active torsions:
REMARK  status: ('A' for Active; 'I' for Inactive)
REMARK    1  A    between atoms: C_3  and  N_13
REMARK    2  A    between atoms: C_6  and  O_12
REMARK    3  A    between atoms: C_8  and  C_10
REMARK    4  A    between atoms: C_10  and  O_11
REMARK                            x       y       z     vdW  Elec       q    Type
REMARK                         _______ _______ _______ _____ _____    ______ ____
ROOT
ATOM      1  N   UNL     1       8.812  -1.479  23.429  0.00  0.00    -0.308 N 
ATOM      2  C   UNL     1       7.927  -2.528  23.423  0.00  0.00    +0.170 A 
ATOM      3  N   UNL     1       6.597  -2.497  23.142  0.00  0.00    -0.196 NA
ATOM      4  C   UNL     1       6.021  -3.669  23.224  0.00  0.00    +0.195 A 
ATOM      5  N   UNL     1       4.682  -3.803  23.041  0.00  0.00    -0.329 N 
ATOM      6  H   UNL     1       4.228  -4.552  23.548  0.00  0.00    +0.145 HD
ATOM      7  H   UNL     1       4.190  -2.920  23.133  0.00  0.00    +0.145 HD
ATOM      8  N   UNL     1       6.693  -4.840  23.513  0.00  0.00    -0.293 N 
ATOM      9  H   UNL     1       6.212  -5.722  23.489  0.00  0.00    +0.172 HD
ATOM     10  C   UNL     1       8.050  -4.924  23.786  0.00  0.00    +0.280 A 
ATOM     11  O   UNL     1       8.605  -5.995  23.996  0.00  0.00    -0.265 OA
ATOM     12  C   UNL     1       8.687  -3.624  23.776  0.00  0.00    +0.172 A 
ATOM     13  N   UNL     1       9.968  -3.273  24.097  0.00  0.00    -0.229 NA
ATOM     14  C   UNL     1       9.997  -1.969  23.922  0.00  0.00    +0.202 A 
ENDROOT
BRANCH   1  20
ATOM     15  C   UNL     1       8.305   0.846  25.261  0.00  0.00    +0.010 C 
ATOM     16  C   UNL     1       8.484   0.969  23.936  0.00  0.00    -0.046 C 
ATOM     17  C   UNL     1       8.766   2.297  23.244  0.00  0.00    +0.070 C 
ATOM     18  C   UNL     1       9.414   1.893  21.902  0.00  0.00    +0.126 C 
ATOM     19  C   UNL     1       9.703   0.399  22.020  0.00  0.00    +0.061 C 
ATOM     20  C   UNL     1       8.580  -0.141  22.914  0.00  0.00    +0.118 C 
BRANCH  18  21
ATOM     21  O   UNL     1      10.625   2.614  21.706  0.00  0.00    -0.391 OA
ATOM     22  H   UNL     1      10.413   3.458  21.270  0.00  0.00    +0.210 HD
ENDBRANCH  18  21
BRANCH  17  23
ATOM     23  C   UNL     1       7.494   3.121  22.982  0.00  0.00    +0.166 C 
BRANCH  23  24
ATOM     24  O   UNL     1       7.699   4.132  22.001  0.00  0.00    -0.394 OA
ATOM     25  H   UNL     1       8.583   4.510  22.142  0.00  0.00    +0.209 HD
ENDBRANCH  23  24
ENDBRANCH  17  23
ENDBRANCH   1  20
TORSDOF 4
ENDMDL
MODEL 8
REMARK VINA RESULT:      -6.4      2.350      6.734
REMARK  Name = 
REMARK  4 active torsions:
REMARK  status: ('A' for Active; 'I' for Inactive)
REMARK    1  A    between atoms: C_3  and  N_13
REMARK    2  A    between atoms: C_6  and  O_12
REMARK    3  A    between atoms: C_8  and  C_10
REMARK    4  A    between atoms: C_10  and  O_11
REMARK                            x       y       z     vdW  Elec       q    Type
REMARK                         _______ _______ _______ _____ _____    ______ ____
ROOT
ATOM      1  N   UNL     1       7.482  -4.561  25.154  0.00  0.00    -0.308 N 
ATOM      2  C   UNL     1       7.640  -3.395  24.447  0.00  0.00    +0.170 A 
ATOM      3  N   UNL     1       6.692  -2.470  24.139  0.00  0.00    -0.196 NA
ATOM      4  C   UNL     1       7.156  -1.462  23.447  0.00  0.00    +0.195 A 
ATOM      5  N   UNL     1       6.327  -0.484  22.999  0.00  0.00    -0.329 N 
ATOM      6  H   UNL     1       6.591  -0.027  22.135  0.00  0.00    +0.145 HD
ATOM      7  H   UNL     1       5.353  -0.771  23.003  0.00  0.00    +0.145 HD
ATOM      8  N   UNL     1       8.484  -1.309  23.101  0.00  0.00    -0.293 N 
ATOM      9  H   UNL     1       8.795  -0.477  22.633  0.00  0.00    +0.172 HD
ATOM     10  C   UNL     1       9.488  -2.214  23.409  0.00  0.00    +0.280 A 
ATOM     11  O   UNL     1      10.658  -2.011  23.114  0.00  0.00    -0.265 OA
ATOM     12  C   UNL     1       8.977  -3.374  24.108  0.00  0.00    +0.172 A 
ATOM     13  N   UNL     1       9.616  -4.522  24.486  0.00  0.00    -0.229 NA
ATOM     14  C   UNL     1       8.677  -5.234  25.072  0.00  0.00    +0.202 A 
ENDROOT
BRANCH   1  20
ATOM     15  C   UNL     1       5.288  -6.228  23.961  0.00  0.00    +0.010 C 
ATOM     16  C   UNL     1       5.359  -5.917  25.265  0.00  0.00    -0.046 C 
ATOM     17  C   UNL     1       4.538  -6.613  26.344  0.00  0.00    +0.070 C 
ATOM     18  C   UNL     1       5.314  -6.334  27.649  0.00  0.00    +0.126 C 
ATOM     19  C   UNL     1       6.648  -5.735  27.212  0.00  0.00    +0.061 C 
ATOM     20  C   UNL     1       6.320  -4.959  25.931  0.00  0.00    +0.118 C 
BRANCH  18  21
ATOM     21  O   UNL     1       5.529  -7.547  28.360  0.00  0.00    -0.391 OA
ATOM     22  H   UNL     1       6.070  -7.351  29.145  0.00  0.00    +0.210 HD
ENDBRANCH  18  21
BRANCH  17  23
ATOM     23  C   UNL     1       3.106  -6.060  26.459  0.00  0.00    +0.166 C 
BRANCH  23  24
ATOM     24  O   UNL     1       2.963  -5.161  27.554  0.00  0.00    -0.394 OA
ATOM     25  H   UNL     1       2.537  -5.643  28.282  0.00  0.00    +0.209 HD
ENDBRANCH  23  24
ENDBRANCH  17  23
ENDBRANCH   1  20
TORSDOF 4
ENDMDL
MODEL 9
REMARK VINA RESULT:      -6.4      2.783      3.495
REMARK  Name = 
REMARK  4 active torsions:
REMARK  status: ('A' for Active; 'I' for Inactive)
REMARK    1  A    between atoms: C_3  and  N_13
REMARK    2  A    between atoms: C_6  and  O_12
REMARK    3  A    between atoms: C_8  and  C_10
REMARK    4  A    between atoms: C_10  and  O_11
REMARK                            x       y       z     vdW  Elec       q    Type
REMARK                         _______ _______ _______ _____ _____    ______ ____
ROOT
ATOM      1  N   UNL     1       6.934  -4.504  23.545  0.00  0.00    -0.308 N 
ATOM      2  C   UNL     1       6.161  -5.009  24.561  0.00  0.00    +0.170 A 
ATOM      3  N   UNL     1       6.078  -4.569  25.845  0.00  0.00    -0.196 NA
ATOM      4  C   UNL     1       5.248  -5.265  26.579  0.00  0.00    +0.195 A 
ATOM      5  N   UNL     1       5.100  -5.001  27.903  0.00  0.00    -0.329 N 
ATOM      6  H   UNL     1       4.859  -5.784  28.497  0.00  0.00    +0.145 HD
ATOM      7  H   UNL     1       5.869  -4.454  28.277  0.00  0.00    +0.145 HD
ATOM      8  N   UNL     1       4.485  -6.310  26.101  0.00  0.00    -0.293 N 
ATOM      9  H   UNL     1       3.809  -6.760  26.693  0.00  0.00    +0.172 HD
ATOM     10  C   UNL     1       4.520  -6.780  24.797  0.00  0.00    +0.280 A 
ATOM     11  O   UNL     1       3.790  -7.685  24.412  0.00  0.00    -0.265 OA
ATOM     12  C   UNL     1       5.491  -6.072  23.990  0.00  0.00    +0.172 A 
ATOM     13  N   UNL     1       5.898  -6.300  22.706  0.00  0.00    -0.229 NA
ATOM     14  C   UNL     1       6.801  -5.368  22.485  0.00  0.00    +0.202 A 
ENDROOT
BRANCH   1  20
ATOM     15  C   UNL     1       9.559  -4.211  24.975  0.00  0.00    +0.010 C 
ATOM     16  C   UNL     1       9.039  -3.267  24.175  0.00  0.00    -0.046 C 
ATOM     17  C   UNL     1       9.835  -2.082  23.642  0.00  0.00    +0.070 C 
ATOM     18  C   UNL     1       9.038  -1.617  22.405  0.00  0.00    +0.126 C 
ATOM     19  C   UNL     1       8.000  -2.707  22.152  0.00  0.00    +0.061 C 
ATOM     20  C   UNL     1       7.664  -3.248  23.547  0.00  0.00    +0.118 C 
BRANCH  18  21
ATOM     21  O   UNL     1       9.903  -1.492  21.282  0.00  0.00    -0.391 OA
ATOM     22  H   UNL     1      10.065  -2.380  20.919  0.00  0.00    +0.210 HD
ENDBRANCH  18  21
BRANCH  17  23
ATOM     23  C   UNL     1       9.948  -0.929  24.655  0.00  0.00    +0.166 C 
BRANCH  23  24
ATOM     24  O   UNL     1      10.200   0.321  24.022  0.00  0.00    -0.394 OA
ATOM     25  H   UNL     1       9.469   0.497  23.406  0.00  0.00    +0.209 HD
ENDBRANCH  23  24
ENDBRANCH  17  23
ENDBRANCH   1  20
TORSDOF 4
ENDMDL
