MODEL 1
REMARK VINA RESULT:      -6.6      0.000      0.000
REMARK  Name = 
REMARK  13 active torsions:
REMARK  status: ('A' for Active; 'I' for Inactive)
REMARK    1  A    between atoms: C_1  and  C_2
REMARK    2  A    between atoms: C_2  and  C_3
REMARK    3  A    between atoms: C_2  and  C_4
REMARK    4  A    between atoms: C_4  and  C_5
REMARK    5  A    between atoms: C_4  and  N_26
REMARK    6  A    between atoms: C_5  and  O_7
REMARK    7  A    between atoms: O_7  and  C_8
REMARK    8  A    between atoms: C_8  and  C_9
REMARK    9  A    between atoms: C_9  and  C_11
REMARK   10  A    between atoms: C_9  and  O_13
REMARK   11  A    between atoms: C_11  and  O_12
REMARK   12  A    between atoms: O_13  and  C_14
REMARK   13  A    between atoms: C_14  and  N_15
REMARK                            x       y       z     vdW  Elec       q    Type
REMARK                         _______ _______ _______ _____ _____    ______ ____
ROOT
ATOM      1  C   UNL     1       9.830  -2.130  23.268  0.00  0.00    +0.185 C 
ENDROOT
BRANCH   1   2
ATOM      2  C   UNL     1       9.671  -1.073  24.396  0.00  0.00    +0.266 C 
BRANCH   2   3
ATOM      3  O   UNL     1       9.449   0.255  23.842  0.00  0.00    -0.461 OA
BRANCH   3   4
ATOM      4  C   UNL     1      10.493   1.121  23.925  0.00  0.00    +0.324 C 
ATOM      5  O   UNL     1      11.527   0.900  24.548  0.00  0.00    -0.249 OA
BRANCH   4   6
ATOM      6  C   UNL     1      10.249   2.420  23.128  0.00  0.00    +0.163 C 
BRANCH   6   8
ATOM      7  C   UNL     1       9.247   4.504  24.199  0.00  0.00    +0.009 C 
ATOM      8  C   UNL     1       8.953   3.114  23.624  0.00  0.00    +0.010 C 
ATOM      9  C   UNL     1       7.893   3.248  22.521  0.00  0.00    +0.009 C 
ENDBRANCH   6   8
BRANCH   6  10
ATOM     10  N   UNL     1      10.118   2.086  21.690  0.00  0.00    -0.318 NA
ATOM     11  H   UNL     1       9.205   2.383  21.348  0.00  0.00    +0.119 HD
ATOM     12  H   UNL     1      10.801   2.642  21.168  0.00  0.00    +0.119 HD
ENDBRANCH   6  10
ENDBRANCH   4   6
ENDBRANCH   3   4
ENDBRANCH   2   3
ENDBRANCH   1   2
BRANCH   1  13
ATOM     13  O   UNL     1       9.373  -3.434  23.708  0.00  0.00    -0.333 OA
BRANCH  13  14
ATOM     14  C   UNL     1       8.047  -3.474  24.314  0.00  0.00    +0.400 C 
BRANCH  14  15
ATOM     15  N   UNL     1       7.265  -4.584  23.778  0.00  0.00    -0.154 N 
ATOM     16  C   UNL     1       6.313  -5.389  24.379  0.00  0.00    +0.338 C 
ATOM     17  N   UNL     1       5.891  -5.654  25.570  0.00  0.00    +0.023 NA
ATOM     18  C   UNL     1       4.725  -6.409  25.633  0.00  0.00    +0.450 C 
ATOM     19  N   UNL     1       4.453  -7.225  26.690  0.00  0.00    -0.241 N 
ATOM     20  H   UNL     1       3.496  -7.563  26.589  0.00  0.00    +0.242 HD
ATOM     21  H   UNL     1       5.040  -8.055  26.670  0.00  0.00    +0.242 HD
ATOM     22  N   UNL     1       3.811  -6.420  24.702  0.00  0.00    +0.008 NA
ATOM     23  C   UNL     1       4.170  -5.827  23.515  0.00  0.00    +0.347 C 
ATOM     24  O   UNL     1       3.388  -5.222  22.788  0.00  0.00    -0.251 OA
ATOM     25  C   UNL     1       5.624  -6.079  23.209  0.00  0.00    +0.329 C 
ATOM     26  N   UNL     1       6.214  -5.494  21.964  0.00  0.00    -0.228 NA
ATOM     27  C   UNL     1       7.163  -4.730  22.425  0.00  0.00    +0.304 C 
ENDBRANCH  14  15
ENDBRANCH  13  14
ENDBRANCH   1  13
BRANCH   1  28
ATOM     28  C   UNL     1       9.013  -1.603  22.068  0.00  0.00    +0.191 C 
BRANCH  28  29
ATOM     29  O   UNL     1       9.836  -0.896  21.149  0.00  0.00    -0.392 OA
ATOM     30  H   UNL     1       9.533   0.029  21.145  0.00  0.00    +0.210 HD
ENDBRANCH  28  29
ENDBRANCH   1  28
TORSDOF 11
ENDMDL
MODEL 2
REMARK VINA RESULT:      -6.6      1.573      1.888
REMARK  Name = 
REMARK  13 active torsions:
REMARK  status: ('A' for Active; 'I' for Inactive)
REMARK    1  A    between atoms: C_1  and  C_2
REMARK    2  A    between atoms: C_2  and  C_3
REMARK    3  A    between atoms: C_2  and  C_4
REMARK    4  A    between atoms: C_4  and  C_5
REMARK    5  A    between atoms: C_4  and  N_26
REMARK    6  A    between atoms: C_5  and  O_7
REMARK    7  A    between atoms: O_7  and  C_8
REMARK    8  A    between atoms: C_8  and  C_9
REMARK    9  A    between atoms: C_9  and  C_11
REMARK   10  A    between atoms: C_9  and  O_13
REMARK   11  A    between atoms: C_11  and  O_12
REMARK   12  A    between atoms: O_13  and  C_14
REMARK   13  A    between atoms: C_14  and  N_15
REMARK                            x       y       z     vdW  Elec       q    Type
REMARK                         _______ _______ _______ _____ _____    ______ ____
ROOT
ATOM      1  C   UNL     1       9.893  -2.229  23.540  0.00  0.00    +0.185 C 
ENDROOT
BRANCH   1   2
ATOM      2  C   UNL     1       9.514  -1.132  24.573  0.00  0.00    +0.266 C 
BRANCH   2   3
ATOM      3  O   UNL     1       9.288   0.149  23.918  0.00  0.00    -0.461 OA
BRANCH   3   4
ATOM      4  C   UNL     1      10.325   1.027  23.944  0.00  0.00    +0.324 C 
ATOM      5  O   UNL     1      11.377   0.837  24.545  0.00  0.00    -0.249 OA
BRANCH   4   6
ATOM      6  C   UNL     1      10.046   2.296  23.110  0.00  0.00    +0.163 C 
BRANCH   6   8
ATOM      7  C   UNL     1       8.938   4.185  24.414  0.00  0.00    +0.009 C 
ATOM      8  C   UNL     1       8.705   2.939  23.552  0.00  0.00    +0.010 C 
ATOM      9  C   UNL     1       7.811   3.320  22.363  0.00  0.00    +0.009 C 
ENDBRANCH   6   8
BRANCH   6  10
ATOM     10  N   UNL     1       9.975   1.926  21.677  0.00  0.00    -0.318 NA
ATOM     11  H   UNL     1      10.860   1.515  21.383  0.00  0.00    +0.119 HD
ATOM     12  H   UNL     1       9.278   1.184  21.571  0.00  0.00    +0.119 HD
ENDBRANCH   6  10
ENDBRANCH   4   6
ENDBRANCH   3   4
ENDBRANCH   2   3
ENDBRANCH   1   2
BRANCH   1  13
ATOM     13  O   UNL     1       9.645  -3.555  24.074  0.00  0.00    -0.333 OA
BRANCH  13  14
ATOM     14  C   UNL     1       8.948  -3.607  25.353  0.00  0.00    +0.400 C 
BRANCH  14  15
ATOM     15  N   UNL     1       7.835  -4.550  25.300  0.00  0.00    -0.154 N 
ATOM     16  C   UNL     1       7.214  -5.269  26.306  0.00  0.00    +0.338 C 
ATOM     17  N   UNL     1       7.429  -5.578  27.541  0.00  0.00    +0.023 NA
ATOM     18  C   UNL     1       6.359  -6.173  28.201  0.00  0.00    +0.450 C 
ATOM     19  N   UNL     1       6.543  -7.034  29.240  0.00  0.00    -0.241 N 
ATOM     20  H   UNL     1       5.630  -7.229  29.652  0.00  0.00    +0.242 HD
ATOM     21  H   UNL     1       6.894  -7.930  28.913  0.00  0.00    +0.242 HD
ATOM     22  N   UNL     1       5.108  -5.979  27.883  0.00  0.00    +0.008 NA
ATOM     23  C   UNL     1       4.894  -5.337  26.687  0.00  0.00    +0.347 C 
ATOM     24  O   UNL     1       3.958  -4.571  26.479  0.00  0.00    -0.251 OA
ATOM     25  C   UNL     1       5.920  -5.755  25.666  0.00  0.00    +0.329 C 
ATOM     26  N   UNL     1       5.870  -5.147  24.298  0.00  0.00    -0.228 NA
ATOM     27  C   UNL     1       7.028  -4.562  24.199  0.00  0.00    +0.304 C 
ENDBRANCH  14  15
ENDBRANCH  13  14
ENDBRANCH   1  13
BRANCH   1  28
ATOM     28  C   UNL     1       9.044  -1.943  22.281  0.00  0.00    +0.191 C 
BRANCH  28  29
ATOM     29  O   UNL     1       9.777  -1.197  21.318  0.00  0.00    -0.392 OA
ATOM     30  H   UNL     1       9.155  -0.952  20.610  0.00  0.00    +0.210 HD
ENDBRANCH  28  29
ENDBRANCH   1  28
TORSDOF 11
ENDMDL
MODEL 3
REMARK VINA RESULT:      -6.5      2.222      3.139
REMARK  Name = 
REMARK  13 active torsions:
REMARK  status: ('A' for Active; 'I' for Inactive)
REMARK    1  A    between atoms: C_1  and  C_2
REMARK    2  A    between atoms: C_2  and  C_3
REMARK    3  A    between atoms: C_2  and  C_4
REMARK    4  A    between atoms: C_4  and  C_5
REMARK    5  A    between atoms: C_4  and  N_26
REMARK    6  A    between atoms: C_5  and  O_7
REMARK    7  A    between atoms: O_7  and  C_8
REMARK    8  A    between atoms: C_8  and  C_9
REMARK    9  A    between atoms: C_9  and  C_11
REMARK   10  A    between atoms: C_9  and  O_13
REMARK   11  A    between atoms: C_11  and  O_12
REMARK   12  A    between atoms: O_13  and  C_14
REMARK   13  A    between atoms: C_14  and  N_15
REMARK                            x       y       z     vdW  Elec       q    Type
REMARK                         _______ _______ _______ _____ _____    ______ ____
ROOT
ATOM      1  C   UNL     1      10.090   0.237  22.928  0.00  0.00    +0.185 C 
ENDROOT
BRANCH   1   2
ATOM      2  C   UNL     1       9.582   0.899  24.239  0.00  0.00    +0.266 C 
BRANCH   2   3
ATOM      3  O   UNL     1       9.890   2.322  24.261  0.00  0.00    -0.461 OA
BRANCH   3   4
ATOM      4  C   UNL     1       8.889   3.146  24.666  0.00  0.00    +0.324 C 
ATOM      5  O   UNL     1       7.948   2.797  25.371  0.00  0.00    -0.249 OA
BRANCH   4   6
ATOM      6  C   UNL     1       9.071   4.592  24.157  0.00  0.00    +0.163 C 
BRANCH   6   8
ATOM      7  C   UNL     1       8.025   6.403  22.701  0.00  0.00    +0.009 C 
ATOM      8  C   UNL     1       7.806   5.048  23.383  0.00  0.00    +0.010 C 
ATOM      9  C   UNL     1       7.359   4.028  22.326  0.00  0.00    +0.009 C 
ENDBRANCH   6   8
BRANCH   6  10
ATOM     10  N   UNL     1      10.251   4.643  23.262  0.00  0.00    -0.318 NA
ATOM     11  H   UNL     1      10.662   5.576  23.286  0.00  0.00    +0.119 HD
ATOM     12  H   UNL     1      10.968   4.017  23.640  0.00  0.00    +0.119 HD
ENDBRANCH   6  10
ENDBRANCH   4   6
ENDBRANCH   3   4
ENDBRANCH   2   3
ENDBRANCH   1   2
BRANCH   1  13
ATOM     13  O   UNL     1       9.670  -1.149  22.848  0.00  0.00    -0.333 OA
BRANCH  13  14
ATOM     14  C   UNL     1       8.306  -1.377  22.389  0.00  0.00    +0.400 C 
BRANCH  14  15
ATOM     15  N   UNL     1       7.908  -2.763  22.610  0.00  0.00    -0.154 N 
ATOM     16  C   UNL     1       8.372  -3.700  23.518  0.00  0.00    +0.338 C 
ATOM     17  N   UNL     1       9.372  -3.848  24.321  0.00  0.00    +0.023 NA
ATOM     18  C   UNL     1       9.270  -4.915  25.207  0.00  0.00    +0.450 C 
ATOM     19  N   UNL     1      10.370  -5.550  25.699  0.00  0.00    -0.241 N 
ATOM     20  H   UNL     1      10.063  -6.195  26.427  0.00  0.00    +0.242 HD
ATOM     21  H   UNL     1      10.805  -6.130  24.986  0.00  0.00    +0.242 HD
ATOM     22  N   UNL     1       8.137  -5.407  25.630  0.00  0.00    +0.008 NA
ATOM     23  C   UNL     1       7.018  -4.975  24.958  0.00  0.00    +0.347 C 
ATOM     24  O   UNL     1       5.922  -4.814  25.487  0.00  0.00    -0.251 OA
ATOM     25  C   UNL     1       7.311  -4.793  23.492  0.00  0.00    +0.329 C 
ATOM     26  N   UNL     1       6.221  -4.305  22.589  0.00  0.00    -0.228 NA
ATOM     27  C   UNL     1       6.714  -3.199  22.112  0.00  0.00    +0.304 C 
ENDBRANCH  14  15
ENDBRANCH  13  14
ENDBRANCH   1  13
BRANCH   1  28
ATOM     28  C   UNL     1       9.517   1.084  21.770  0.00  0.00    +0.191 C 
BRANCH  28  29
ATOM     29  O   UNL     1      10.311   2.239  21.528  0.00  0.00    -0.392 OA
ATOM     30  H   UNL     1      10.536   2.619  22.395  0.00  0.00    +0.210 HD
ENDBRANCH  28  29
ENDBRANCH   1  28
TORSDOF 11
ENDMDL
MODEL 4
REMARK VINA RESULT:      -6.5      2.461      7.593
REMARK  Name = 
REMARK  13 active torsions:
REMARK  status: ('A' for Active; 'I' for Inactive)
REMARK    1  A    between atoms: C_1  and  C_2
REMARK    2  A    between atoms: C_2  and  C_3
REMARK    3  A    between atoms: C_2  and  C_4
REMARK    4  A    between atoms: C_4  and  C_5
REMARK    5  A    between atoms: C_4  and  N_26
REMARK    6  A    between atoms: C_5  and  O_7
REMARK    7  A    between atoms: O_7  and  C_8
REMARK    8  A    between atoms: C_8  and  C_9
REMARK    9  A    between atoms: C_9  and  C_11
REMARK   10  A    between atoms: C_9  and  O_13
REMARK   11  A    between atoms: C_11  and  O_12
REMARK   12  A    between atoms: O_13  and  C_14
REMARK   13  A    between atoms: C_14  and  N_15
REMARK                            x       y       z     vdW  Elec       q    Type
REMARK                         _______ _______ _______ _____ _____    ______ ____
ROOT
ATOM      1  C   UNL     1       5.947  -4.383  22.034  0.00  0.00    +0.185 C 
ENDROOT
BRANCH   1   2
ATOM      2  C   UNL     1       5.423  -4.920  23.395  0.00  0.00    +0.266 C 
BRANCH   2   3
ATOM      3  O   UNL     1       6.520  -5.384  24.232  0.00  0.00    -0.461 OA
BRANCH   3   4
ATOM      4  C   UNL     1       6.227  -5.591  25.543  0.00  0.00    +0.324 C 
ATOM      5  O   UNL     1       5.319  -6.311  25.943  0.00  0.00    -0.249 OA
BRANCH   4   6
ATOM      6  C   UNL     1       7.182  -4.831  26.489  0.00  0.00    +0.163 C 
BRANCH   6   8
ATOM      7  C   UNL     1       8.519  -2.687  26.157  0.00  0.00    +0.009 C 
ATOM      8  C   UNL     1       8.292  -4.123  25.670  0.00  0.00    +0.010 C 
ATOM      9  C   UNL     1       9.630  -4.876  25.710  0.00  0.00    +0.009 C 
ENDBRANCH   6   8
BRANCH   6  10
ATOM     10  N   UNL     1       7.794  -5.796  27.433  0.00  0.00    -0.318 NA
ATOM     11  H   UNL     1       7.925  -5.353  28.342  0.00  0.00    +0.119 HD
ATOM     12  H   UNL     1       7.129  -6.558  27.591  0.00  0.00    +0.119 HD
ENDBRANCH   6  10
ENDBRANCH   4   6
ENDBRANCH   3   4
ENDBRANCH   2   3
ENDBRANCH   1   2
BRANCH   1  13
ATOM     13  O   UNL     1       7.170  -3.623  22.211  0.00  0.00    -0.333 OA
BRANCH  13  14
ATOM     14  C   UNL     1       7.004  -2.230  22.605  0.00  0.00    +0.400 C 
BRANCH  14  15
ATOM     15  N   UNL     1       8.254  -1.493  22.447  0.00  0.00    -0.154 N 
ATOM     16  C   UNL     1       8.508  -0.133  22.469  0.00  0.00    +0.338 C 
ATOM     17  N   UNL     1       7.840   0.971  22.418  0.00  0.00    +0.023 NA
ATOM     18  C   UNL     1       8.570   2.121  22.696  0.00  0.00    +0.450 C 
ATOM     19  N   UNL     1       8.233   3.333  22.172  0.00  0.00    -0.241 N 
ATOM     20  H   UNL     1       8.813   4.042  22.620  0.00  0.00    +0.242 HD
ATOM     21  H   UNL     1       8.459   3.378  21.182  0.00  0.00    +0.242 HD
ATOM     22  N   UNL     1       9.632   2.145  23.454  0.00  0.00    +0.008 NA
ATOM     23  C   UNL     1      10.155   0.917  23.779  0.00  0.00    +0.347 C 
ATOM     24  O   UNL     1      10.701   0.666  24.850  0.00  0.00    -0.251 OA
ATOM     25  C   UNL     1      10.020  -0.044  22.626  0.00  0.00    +0.329 C 
ATOM     26  N   UNL     1      10.513  -1.448  22.790  0.00  0.00    -0.228 NA
ATOM     27  C   UNL     1       9.438  -2.156  22.599  0.00  0.00    +0.304 C 
ENDBRANCH  14  15
ENDBRANCH  13  14
ENDBRANCH   1  13
BRANCH   1  28
ATOM     28  C   UNL     1       6.160  -5.623  21.137  0.00  0.00    +0.191 C 
BRANCH  28  29
ATOM     29  O   UNL     1       6.236  -6.815  21.907  0.00  0.00    -0.392 OA
ATOM     30  H   UNL     1       5.414  -7.312  21.749  0.00  0.00    +0.210 HD
ENDBRANCH  28  29
ENDBRANCH   1  28
TORSDOF 11
ENDMDL
MODEL 5
REMARK VINA RESULT:      -6.5      1.325      2.153
REMARK  Name = 
REMARK  13 active torsions:
REMARK  status: ('A' for Active; 'I' for Inactive)
REMARK    1  A    between atoms: C_1  and  C_2
REMARK    2  A    between atoms: C_2  and  C_3
REMARK    3  A    between atoms: C_2  and  C_4
REMARK    4  A    between atoms: C_4  and  C_5
REMARK    5  A    between atoms: C_4  and  N_26
REMARK    6  A    between atoms: C_5  and  O_7
REMARK    7  A    between atoms: O_7  and  C_8
REMARK    8  A    between atoms: C_8  and  C_9
REMARK    9  A    between atoms: C_9  and  C_11
REMARK   10  A    between atoms: C_9  and  O_13
REMARK   11  A    between atoms: C_11  and  O_12
REMARK   12  A    between atoms: O_13  and  C_14
REMARK   13  A    between atoms: C_14  and  N_15
REMARK                            x       y       z     vdW  Elec       q    Type
REMARK                         _______ _______ _______ _____ _____    ______ ____
ROOT
ATOM      1  C   UNL     1       9.893  -2.150  23.419  0.00  0.00    +0.185 C 
ENDROOT
BRANCH   1   2
ATOM      2  C   UNL     1       9.597  -1.055  24.480  0.00  0.00    +0.266 C 
BRANCH   2   3
ATOM      3  O   UNL     1       9.377   0.240  23.850  0.00  0.00    -0.461 OA
BRANCH   3   4
ATOM      4  C   UNL     1      10.417   1.112  23.892  0.00  0.00    +0.324 C 
ATOM      5  O   UNL     1      11.454   0.922  24.520  0.00  0.00    -0.249 OA
BRANCH   4   6
ATOM      6  C   UNL     1      10.165   2.376  23.043  0.00  0.00    +0.163 C 
BRANCH   6   8
ATOM      7  C   UNL     1       9.300   4.493  24.166  0.00  0.00    +0.009 C 
ATOM      8  C   UNL     1       8.919   3.134  23.571  0.00  0.00    +0.010 C 
ATOM      9  C   UNL     1       7.853   3.349  22.487  0.00  0.00    +0.009 C 
ENDBRANCH   6   8
BRANCH   6  10
ATOM     10  N   UNL     1       9.945   1.973  21.633  0.00  0.00    -0.318 NA
ATOM     11  H   UNL     1      10.318   2.688  21.009  0.00  0.00    +0.119 HD
ATOM     12  H   UNL     1      10.500   1.132  21.449  0.00  0.00    +0.119 HD
ENDBRANCH   6  10
ENDBRANCH   4   6
ENDBRANCH   3   4
ENDBRANCH   2   3
ENDBRANCH   1   2
BRANCH   1  13
ATOM     13  O   UNL     1       9.631  -3.474  23.950  0.00  0.00    -0.333 OA
BRANCH  13  14
ATOM     14  C   UNL     1       9.010  -3.521  25.267  0.00  0.00    +0.400 C 
BRANCH  14  15
ATOM     15  N   UNL     1       7.568  -3.716  25.155  0.00  0.00    -0.154 N 
ATOM     16  C   UNL     1       6.829  -4.496  24.283  0.00  0.00    +0.338 C 
ATOM     17  N   UNL     1       7.012  -5.145  23.182  0.00  0.00    +0.023 NA
ATOM     18  C   UNL     1       5.964  -5.975  22.799  0.00  0.00    +0.450 C 
ATOM     19  N   UNL     1       5.723  -6.274  21.492  0.00  0.00    -0.241 N 
ATOM     20  H   UNL     1       5.006  -6.999  21.462  0.00  0.00    +0.242 HD
ATOM     21  H   UNL     1       5.326  -5.476  21.003  0.00  0.00    +0.242 HD
ATOM     22  N   UNL     1       5.122  -6.520  23.635  0.00  0.00    +0.008 NA
ATOM     23  C   UNL     1       5.166  -6.034  24.920  0.00  0.00    +0.347 C 
ATOM     24  O   UNL     1       4.952  -6.716  25.918  0.00  0.00    -0.251 OA
ATOM     25  C   UNL     1       5.448  -4.553  24.922  0.00  0.00    +0.329 C 
ATOM     26  N   UNL     1       5.557  -3.838  26.234  0.00  0.00    -0.228 NA
ATOM     27  C   UNL     1       6.768  -3.362  26.203  0.00  0.00    +0.304 C 
ENDBRANCH  14  15
ENDBRANCH  13  14
ENDBRANCH   1  13
BRANCH   1  28
ATOM     28  C   UNL     1       8.995  -1.824  22.204  0.00  0.00    +0.191 C 
BRANCH  28  29
ATOM     29  O   UNL     1       9.707  -1.096  21.212  0.00  0.00    -0.392 OA
ATOM     30  H   UNL     1       9.488  -0.155  21.334  0.00  0.00    +0.210 HD
ENDBRANCH  28  29
ENDBRANCH   1  28
TORSDOF 11
ENDMDL
MODEL 6
REMARK VINA RESULT:      -6.5      2.292      3.675
REMARK  Name = 
REMARK  13 active torsions:
REMARK  status: ('A' for Active; 'I' for Inactive)
REMARK    1  A    between atoms: C_1  and  C_2
REMARK    2  A    between atoms: C_2  and  C_3
REMARK    3  A    between atoms: C_2  and  C_4
REMARK    4  A    between atoms: C_4  and  C_5
REMARK    5  A    between atoms: C_4  and  N_26
REMARK    6  A    between atoms: C_5  and  O_7
REMARK    7  A    between atoms: O_7  and  C_8
REMARK    8  A    between atoms: C_8  and  C_9
REMARK    9  A    between atoms: C_9  and  C_11
REMARK   10  A    between atoms: C_9  and  O_13
REMARK   11  A    between atoms: C_11  and  O_12
REMARK   12  A    between atoms: O_13  and  C_14
REMARK   13  A    between atoms: C_14  and  N_15
REMARK                            x       y       z     vdW  Elec       q    Type
REMARK                         _______ _______ _______ _____ _____    ______ ____
ROOT
ATOM      1  C   UNL     1       6.301  -2.315  22.609  0.00  0.00    +0.185 C 
ENDROOT
BRANCH   1   2
ATOM      2  C   UNL     1       7.828  -2.389  22.330  0.00  0.00    +0.266 C 
BRANCH   2   3
ATOM      3  O   UNL     1       8.355  -1.085  21.953  0.00  0.00    -0.461 OA
BRANCH   3   4
ATOM      4  C   UNL     1       9.685  -0.895  22.157  0.00  0.00    +0.324 C 
ATOM      5  O   UNL     1      10.511  -1.799  22.223  0.00  0.00    -0.249 OA
BRANCH   4   6
ATOM      6  C   UNL     1      10.057   0.599  22.278  0.00  0.00    +0.163 C 
BRANCH   6   8
ATOM      7  C   UNL     1      10.813   0.619  24.711  0.00  0.00    +0.009 C 
ATOM      8  C   UNL     1       9.758   1.108  23.713  0.00  0.00    +0.010 C 
ATOM      9  C   UNL     1       9.674   2.639  23.792  0.00  0.00    +0.009 C 
ENDBRANCH   6   8
BRANCH   6  10
ATOM     10  N   UNL     1       9.262   1.375  21.296  0.00  0.00    -0.318 NA
ATOM     11  H   UNL     1       9.361   2.372  21.484  0.00  0.00    +0.119 HD
ATOM     12  H   UNL     1       9.668   1.228  20.367  0.00  0.00    +0.119 HD
ENDBRANCH   6  10
ENDBRANCH   4   6
ENDBRANCH   3   4
ENDBRANCH   2   3
ENDBRANCH   1   2
BRANCH   1  13
ATOM     13  O   UNL     1       5.725  -3.642  22.708  0.00  0.00    -0.333 OA
BRANCH  13  14
ATOM     14  C   UNL     1       4.655  -3.802  23.686  0.00  0.00    +0.400 C 
BRANCH  14  15
ATOM     15  N   UNL     1       4.991  -4.838  24.657  0.00  0.00    -0.154 N 
ATOM     16  C   UNL     1       6.209  -5.197  25.208  0.00  0.00    +0.338 C 
ATOM     17  N   UNL     1       7.463  -4.978  24.994  0.00  0.00    +0.023 NA
ATOM     18  C   UNL     1       8.322  -5.418  25.995  0.00  0.00    +0.450 C 
ATOM     19  N   UNL     1       9.608  -5.782  25.731  0.00  0.00    -0.241 N 
ATOM     20  H   UNL     1      10.083  -5.930  26.622  0.00  0.00    +0.242 HD
ATOM     21  H   UNL     1       9.642  -6.678  25.250  0.00  0.00    +0.242 HD
ATOM     22  N   UNL     1       7.982  -5.535  27.250  0.00  0.00    +0.008 NA
ATOM     23  C   UNL     1       6.636  -5.436  27.509  0.00  0.00    +0.347 C 
ATOM     24  O   UNL     1       6.170  -4.945  28.533  0.00  0.00    -0.251 OA
ATOM     25  C   UNL     1       5.830  -6.065  26.401  0.00  0.00    +0.329 C 
ATOM     26  N   UNL     1       4.335  -6.039  26.488  0.00  0.00    -0.228 NA
ATOM     27  C   UNL     1       3.996  -5.382  25.417  0.00  0.00    +0.304 C 
ENDBRANCH  14  15
ENDBRANCH  13  14
ENDBRANCH   1  13
BRANCH   1  28
ATOM     28  C   UNL     1       6.143  -1.515  23.922  0.00  0.00    +0.191 C 
BRANCH  28  29
ATOM     29  O   UNL     1       6.131  -0.114  23.678  0.00  0.00    -0.392 OA
ATOM     30  H   UNL     1       7.006   0.229  23.931  0.00  0.00    +0.210 HD
ENDBRANCH  28  29
ENDBRANCH   1  28
TORSDOF 11
ENDMDL
MODEL 7
REMARK VINA RESULT:      -6.4      2.242      2.995
REMARK  Name = 
REMARK  13 active torsions:
REMARK  status: ('A' for Active; 'I' for Inactive)
REMARK    1  A    between atoms: C_1  and  C_2
REMARK    2  A    between atoms: C_2  and  C_3
REMARK    3  A    between atoms: C_2  and  C_4
REMARK    4  A    between atoms: C_4  and  C_5
REMARK    5  A    between atoms: C_4  and  N_26
REMARK    6  A    between atoms: C_5  and  O_7
REMARK    7  A    between atoms: O_7  and  C_8
REMARK    8  A    between atoms: C_8  and  C_9
REMARK    9  A    between atoms: C_9  and  C_11
REMARK   10  A    between atoms: C_9  and  O_13
REMARK   11  A    between atoms: C_11  and  O_12
REMARK   12  A    between atoms: O_13  and  C_14
REMARK   13  A    between atoms: C_14  and  N_15
REMARK                            x       y       z     vdW  Elec       q    Type
REMARK                         _______ _______ _______ _____ _____    ______ ____
ROOT
ATOM      1  C   UNL     1      10.381   0.419  23.175  0.00  0.00    +0.185 C 
ENDROOT
BRANCH   1   2
ATOM      2  C   UNL     1      10.378   1.735  24.000  0.00  0.00    +0.266 C 
BRANCH   2   3
ATOM      3  O   UNL     1       9.059   2.000  24.558  0.00  0.00    -0.461 OA
BRANCH   3   4
ATOM      4  C   UNL     1       8.741   3.307  24.748  0.00  0.00    +0.324 C 
ATOM      5  O   UNL     1       8.058   3.725  25.677  0.00  0.00    -0.249 OA
BRANCH   4   6
ATOM      6  C   UNL     1       9.351   4.227  23.669  0.00  0.00    +0.163 C 
BRANCH   6   8
ATOM      7  C   UNL     1      11.220   5.931  23.986  0.00  0.00    +0.009 C 
ATOM      8  C   UNL     1       9.759   5.586  24.296  0.00  0.00    +0.010 C 
ATOM      9  C   UNL     1       8.867   6.745  23.829  0.00  0.00    +0.009 C 
ENDBRANCH   6   8
BRANCH   6  10
ATOM     10  N   UNL     1       8.349   4.450  22.601  0.00  0.00    -0.318 NA
ATOM     11  H   UNL     1       8.681   5.170  21.960  0.00  0.00    +0.119 HD
ATOM     12  H   UNL     1       8.280   3.594  22.041  0.00  0.00    +0.119 HD
ENDBRANCH   6  10
ENDBRANCH   4   6
ENDBRANCH   3   4
ENDBRANCH   2   3
ENDBRANCH   1   2
BRANCH   1  13
ATOM     13  O   UNL     1       9.745  -0.658  23.910  0.00  0.00    -0.333 OA
BRANCH  13  14
ATOM     14  C   UNL     1      10.112  -2.010  23.505  0.00  0.00    +0.400 C 
BRANCH  14  15
ATOM     15  N   UNL     1       8.937  -2.873  23.451  0.00  0.00    -0.154 N 
ATOM     16  C   UNL     1       8.387  -3.709  24.408  0.00  0.00    +0.338 C 
ATOM     17  N   UNL     1       8.723  -4.222  25.544  0.00  0.00    +0.023 NA
ATOM     18  C   UNL     1       7.697  -4.856  26.237  0.00  0.00    +0.450 C 
ATOM     19  N   UNL     1       7.939  -5.880  27.102  0.00  0.00    -0.241 N 
ATOM     20  H   UNL     1       7.070  -6.091  27.592  0.00  0.00    +0.242 HD
ATOM     21  H   UNL     1       8.185  -6.730  26.601  0.00  0.00    +0.242 HD
ATOM     22  N   UNL     1       6.435  -4.549  26.114  0.00  0.00    +0.008 NA
ATOM     23  C   UNL     1       6.129  -3.715  25.065  0.00  0.00    +0.347 C 
ATOM     24  O   UNL     1       5.232  -2.877  25.095  0.00  0.00    -0.251 OA
ATOM     25  C   UNL     1       6.996  -4.018  23.870  0.00  0.00    +0.329 C 
ATOM     26  N   UNL     1       6.830  -3.199  22.628  0.00  0.00    -0.228 NA
ATOM     27  C   UNL     1       8.007  -2.667  22.473  0.00  0.00    +0.304 C 
ENDBRANCH  14  15
ENDBRANCH  13  14
ENDBRANCH   1  13
BRANCH   1  28
ATOM     28  C   UNL     1       9.640   0.738  21.857  0.00  0.00    +0.191 C 
BRANCH  28  29
ATOM     29  O   UNL     1       9.924   2.056  21.406  0.00  0.00    -0.392 OA
ATOM     30  H   UNL     1       9.313   2.246  20.673  0.00  0.00    +0.210 HD
ENDBRANCH  28  29
ENDBRANCH   1  28
TORSDOF 11
ENDMDL
MODEL 8
REMARK VINA RESULT:      -6.4      2.360      3.173
REMARK  Name = 
REMARK  13 active torsions:
REMARK  status: ('A' for Active; 'I' for Inactive)
REMARK    1  A    between atoms: C_1  and  C_2
REMARK    2  A    between atoms: C_2  and  C_3
REMARK    3  A    between atoms: C_2  and  C_4
REMARK    4  A    between atoms: C_4  and  C_5
REMARK    5  A    between atoms: C_4  and  N_26
REMARK    6  A    between atoms: C_5  and  O_7
REMARK    7  A    between atoms: O_7  and  C_8
REMARK    8  A    between atoms: C_8  and  C_9
REMARK    9  A    between atoms: C_9  and  C_11
REMARK   10  A    between atoms: C_9  and  O_13
REMARK   11  A    between atoms: C_11  and  O_12
REMARK   12  A    between atoms: O_13  and  C_14
REMARK   13  A    between atoms: C_14  and  N_15
REMARK                            x       y       z     vdW  Elec       q    Type
REMARK                         _______ _______ _______ _____ _____    ______ ____
ROOT
ATOM      1  C   UNL     1       9.425  -1.041  23.971  0.00  0.00    +0.185 C 
ENDROOT
BRANCH   1   2
ATOM      2  C   UNL     1      10.306   0.213  24.228  0.00  0.00    +0.266 C 
BRANCH   2   3
ATOM      3  O   UNL     1      10.601   0.910  22.984  0.00  0.00    -0.461 OA
BRANCH   3   4
ATOM      4  C   UNL     1      10.264   2.225  22.939  0.00  0.00    +0.324 C 
ATOM      5  O   UNL     1      10.852   3.111  23.551  0.00  0.00    -0.249 OA
BRANCH   4   6
ATOM      6  C   UNL     1       9.061   2.496  22.010  0.00  0.00    +0.163 C 
BRANCH   6   8
ATOM      7  C   UNL     1       7.605   4.360  22.958  0.00  0.00    +0.009 C 
ATOM      8  C   UNL     1       7.806   2.845  22.852  0.00  0.00    +0.010 C 
ATOM      9  C   UNL     1       6.523   2.214  22.291  0.00  0.00    +0.009 C 
ENDBRANCH   6   8
BRANCH   6  10
ATOM     10  N   UNL     1       8.798   1.286  21.197  0.00  0.00    -0.318 NA
ATOM     11  H   UNL     1       9.464   1.236  20.427  0.00  0.00    +0.119 HD
ATOM     12  H   UNL     1       8.985   0.462  21.776  0.00  0.00    +0.119 HD
ENDBRANCH   6  10
ENDBRANCH   4   6
ENDBRANCH   3   4
ENDBRANCH   2   3
ENDBRANCH   1   2
BRANCH   1  13
ATOM     13  O   UNL     1       8.133  -0.666  23.427  0.00  0.00    -0.333 OA
BRANCH  13  14
ATOM     14  C   UNL     1       6.982  -0.922  24.284  0.00  0.00    +0.400 C 
BRANCH  14  15
ATOM     15  N   UNL     1       6.872  -2.344  24.593  0.00  0.00    -0.154 N 
ATOM     16  C   UNL     1       6.884  -3.452  23.763  0.00  0.00    +0.338 C 
ATOM     17  N   UNL     1       6.783  -3.709  22.502  0.00  0.00    +0.023 NA
ATOM     18  C   UNL     1       7.077  -5.018  22.137  0.00  0.00    +0.450 C 
ATOM     19  N   UNL     1       6.519  -5.602  21.040  0.00  0.00    -0.241 N 
ATOM     20  H   UNL     1       6.982  -6.499  20.891  0.00  0.00    +0.242 HD
ATOM     21  H   UNL     1       5.540  -5.823  21.204  0.00  0.00    +0.242 HD
ATOM     22  N   UNL     1       7.885  -5.798  22.804  0.00  0.00    +0.008 NA
ATOM     23  C   UNL     1       8.254  -5.342  24.047  0.00  0.00    +0.347 C 
ATOM     24  O   UNL     1       9.352  -5.549  24.553  0.00  0.00    -0.251 OA
ATOM     25  C   UNL     1       7.111  -4.620  24.713  0.00  0.00    +0.329 C 
ATOM     26  N   UNL     1       7.321  -4.028  26.072  0.00  0.00    -0.228 NA
ATOM     27  C   UNL     1       7.090  -2.763  25.874  0.00  0.00    +0.304 C 
ENDBRANCH  14  15
ENDBRANCH  13  14
ENDBRANCH   1  13
BRANCH   1  28
ATOM     28  C   UNL     1      10.226  -1.936  22.998  0.00  0.00    +0.191 C 
BRANCH  28  29
ATOM     29  O   UNL     1      10.000  -1.565  21.644  0.00  0.00    -0.392 OA
ATOM     30  H   UNL     1      10.873  -1.456  21.228  0.00  0.00    +0.210 HD
ENDBRANCH  28  29
ENDBRANCH   1  28
TORSDOF 11
ENDMDL
MODEL 9
REMARK VINA RESULT:      -6.1      3.135      6.745
REMARK  Name = 
REMARK  13 active torsions:
REMARK  status: ('A' for Active; 'I' for Inactive)
REMARK    1  A    between atoms: C_1  and  C_2
REMARK    2  A    between atoms: C_2  and  C_3
REMARK    3  A    between atoms: C_2  and  C_4
REMARK    4  A    between atoms: C_4  and  C_5
REMARK    5  A    between atoms: C_4  and  N_26
REMARK    6  A    between atoms: C_5  and  O_7
REMARK    7  A    between atoms: O_7  and  C_8
REMARK    8  A    between atoms: C_8  and  C_9
REMARK    9  A    between atoms: C_9  and  C_11
REMARK   10  A    between atoms: C_9  and  O_13
REMARK   11  A    between atoms: C_11  and  O_12
REMARK   12  A    between atoms: O_13  and  C_14
REMARK   13  A    between atoms: C_14  and  N_15
REMARK                            x       y       z     vdW  Elec       q    Type
REMARK                         _______ _______ _______ _____ _____    ______ ____
ROOT
ATOM      1  C   UNL     1       4.550  -5.559  22.664  0.00  0.00    +0.185 C 
ENDROOT
BRANCH   1   2
ATOM      2  C   UNL     1       4.725  -6.431  23.938  0.00  0.00    +0.266 C 
BRANCH   2   3
ATOM      3  O   UNL     1       5.654  -5.812  24.873  0.00  0.00    -0.461 OA
BRANCH   3   4
ATOM      4  C   UNL     1       5.434  -6.060  26.190  0.00  0.00    +0.324 C 
ATOM      5  O   UNL     1       5.066  -7.141  26.638  0.00  0.00    -0.249 OA
BRANCH   4   6
ATOM      6  C   UNL     1       5.717  -4.831  27.079  0.00  0.00    +0.163 C 
BRANCH   6   8
ATOM      7  C   UNL     1       3.714  -3.361  26.514  0.00  0.00    +0.009 C 
ATOM      8  C   UNL     1       5.229  -3.538  26.373  0.00  0.00    +0.010 C 
ATOM      9  C   UNL     1       5.927  -2.276  26.900  0.00  0.00    +0.009 C 
ENDBRANCH   6   8
BRANCH   6  10
ATOM     10  N   UNL     1       7.175  -4.743  27.331  0.00  0.00    -0.318 NA
ATOM     11  H   UNL     1       7.351  -4.139  28.133  0.00  0.00    +0.119 HD
ATOM     12  H   UNL     1       7.510  -5.671  27.608  0.00  0.00    +0.119 HD
ENDBRANCH   6  10
ENDBRANCH   4   6
ENDBRANCH   3   4
ENDBRANCH   2   3
ENDBRANCH   1   2
BRANCH   1  13
ATOM     13  O   UNL     1       4.622  -4.146  22.987  0.00  0.00    -0.333 OA
BRANCH  13  14
ATOM     14  C   UNL     1       5.556  -3.358  22.194  0.00  0.00    +0.400 C 
BRANCH  14  15
ATOM     15  N   UNL     1       6.565  -2.738  23.046  0.00  0.00    -0.154 N 
ATOM     16  C   UNL     1       7.631  -3.294  23.734  0.00  0.00    +0.338 C 
ATOM     17  N   UNL     1       8.044  -4.466  24.081  0.00  0.00    +0.023 NA
ATOM     18  C   UNL     1       9.332  -4.513  24.603  0.00  0.00    +0.450 C 
ATOM     19  N   UNL     1       9.714  -5.469  25.495  0.00  0.00    -0.241 N 
ATOM     20  H   UNL     1      10.723  -5.393  25.626  0.00  0.00    +0.242 HD
ATOM     21  H   UNL     1       9.304  -5.299  26.409  0.00  0.00    +0.242 HD
ATOM     22  N   UNL     1      10.271  -3.655  24.306  0.00  0.00    +0.008 NA
ATOM     23  C   UNL     1       9.854  -2.534  23.629  0.00  0.00    +0.347 C 
ATOM     24  O   UNL     1      10.533  -1.951  22.788  0.00  0.00    -0.251 OA
ATOM     25  C   UNL     1       8.494  -2.095  24.105  0.00  0.00    +0.329 C 
ATOM     26  N   UNL     1       7.855  -0.899  23.471  0.00  0.00    -0.228 NA
ATOM     27  C   UNL     1       6.755  -1.388  22.976  0.00  0.00    +0.304 C 
ENDBRANCH  14  15
ENDBRANCH  13  14
ENDBRANCH   1  13
BRANCH   1  28
ATOM     28  C   UNL     1       5.672  -5.989  21.692  0.00  0.00    +0.191 C 
BRANCH  28  29
ATOM     29  O   UNL     1       6.639  -6.803  22.343  0.00  0.00    -0.392 OA
ATOM     30  H   UNL     1       7.385  -6.908  21.726  0.00  0.00    +0.210 HD
ENDBRANCH  28  29
ENDBRANCH   1  28
TORSDOF 11
ENDMDL
