MODEL 1
REMARK VINA RESULT:      -5.9      0.000      0.000
REMARK  Name = 
REMARK  4 active torsions:
REMARK  status: ('A' for Active; 'I' for Inactive)
REMARK    1  A    between atoms: C_1  and  C_2
REMARK    2  A    between atoms: N_4  and  C_10
REMARK    3  A    between atoms: C_14  and  C_17
REMARK    4  A    between atoms: C_17  and  O_18
REMARK                            x       y       z     vdW  Elec       q    Type
REMARK                         _______ _______ _______ _____ _____    ______ ____
ROOT
ATOM      1  C   UNL     1       5.057  -5.703  22.726  0.00  0.00    +0.051 C 
ATOM      2  C   UNL     1       5.807  -5.498  24.001  0.00  0.00    +0.030 A 
ATOM      3  C   UNL     1       5.368  -6.269  25.187  0.00  0.00    +0.257 A 
ATOM      4  O   UNL     1       4.439  -7.066  25.137  0.00  0.00    -0.267 OA
ATOM      5  N   UNL     1       6.082  -6.056  26.328  0.00  0.00    -0.275 N 
ATOM      6  H   UNL     1       5.825  -6.608  27.131  0.00  0.00    +0.173 HD
ATOM      7  C   UNL     1       7.227  -5.312  26.439  0.00  0.00    +0.332 A 
ATOM      8  O   UNL     1       7.886  -5.352  27.476  0.00  0.00    -0.246 OA
ATOM      9  N   UNL     1       7.566  -4.556  25.321  0.00  0.00    -0.270 N 
ATOM     10  C   UNL     1       6.860  -4.683  24.136  0.00  0.00    +0.102 A 
ENDROOT
BRANCH   9  11
ATOM     11  C   UNL     1       8.785  -3.753  25.409  0.00  0.00    +0.248 C 
ATOM     12  O   UNL     1       9.436  -3.620  24.121  0.00  0.00    -0.343 OA
ATOM     13  C   UNL     1       9.160  -2.291  23.613  0.00  0.00    +0.169 C 
ATOM     14  C   UNL     1       8.735  -1.512  24.804  0.00  0.00    +0.007 C 
ATOM     15  C   UNL     1       8.492  -2.350  25.810  0.00  0.00    +0.025 C 
BRANCH  13  16
ATOM     16  C   UNL     1      10.395  -1.752  22.879  0.00  0.00    +0.191 C 
BRANCH  16  17
ATOM     17  O   UNL     1      10.155  -1.574  21.484  0.00  0.00    -0.392 OA
ATOM     18  H   UNL     1       9.187  -1.512  21.386  0.00  0.00    +0.210 HD
ENDBRANCH  16  17
ENDBRANCH  13  16
ENDBRANCH   9  11
TORSDOF 3
ENDMDL
MODEL 2
REMARK VINA RESULT:      -5.8      2.271      3.715
REMARK  Name = 
REMARK  4 active torsions:
REMARK  status: ('A' for Active; 'I' for Inactive)
REMARK    1  A    between atoms: C_1  and  C_2
REMARK    2  A    between atoms: N_4  and  C_10
REMARK    3  A    between atoms: C_14  and  C_17
REMARK    4  A    between atoms: C_17  and  O_18
REMARK                            x       y       z     vdW  Elec       q    Type
REMARK                         _______ _______ _______ _____ _____    ______ ____
ROOT
ATOM      1  C   UNL     1       9.072  -4.429  26.481  0.00  0.00    +0.051 C 
ATOM      2  C   UNL     1       8.471  -4.109  25.152  0.00  0.00    +0.030 A 
ATOM      3  C   UNL     1       7.196  -4.773  24.798  0.00  0.00    +0.257 A 
ATOM      4  O   UNL     1       6.630  -5.546  25.563  0.00  0.00    -0.267 OA
ATOM      5  N   UNL     1       6.679  -4.450  23.580  0.00  0.00    -0.275 N 
ATOM      6  H   UNL     1       5.789  -4.858  23.344  0.00  0.00    +0.173 HD
ATOM      7  C   UNL     1       7.152  -3.484  22.731  0.00  0.00    +0.332 A 
ATOM      8  O   UNL     1       6.489  -3.151  21.750  0.00  0.00    -0.246 OA
ATOM      9  N   UNL     1       8.383  -2.931  23.072  0.00  0.00    -0.270 N 
ATOM     10  C   UNL     1       8.994  -3.245  24.275  0.00  0.00    +0.102 A 
ENDROOT
BRANCH   9  11
ATOM     11  C   UNL     1       8.913  -1.895  22.186  0.00  0.00    +0.248 C 
ATOM     12  O   UNL     1       8.190  -0.647  22.324  0.00  0.00    -0.343 OA
ATOM     13  C   UNL     1       9.008   0.262  23.102  0.00  0.00    +0.169 C 
ATOM     14  C   UNL     1      10.380  -0.303  23.023  0.00  0.00    +0.007 C 
ATOM     15  C   UNL     1      10.315  -1.540  22.533  0.00  0.00    +0.025 C 
BRANCH  13  16
ATOM     16  C   UNL     1       8.851   1.689  22.561  0.00  0.00    +0.191 C 
BRANCH  16  17
ATOM     17  O   UNL     1       9.798   1.982  21.536  0.00  0.00    -0.392 OA
ATOM     18  H   UNL     1       9.342   2.580  20.915  0.00  0.00    +0.210 HD
ENDBRANCH  16  17
ENDBRANCH  13  16
ENDBRANCH   9  11
TORSDOF 3
ENDMDL
MODEL 3
REMARK VINA RESULT:      -5.7      2.270      2.487
REMARK  Name = 
REMARK  4 active torsions:
REMARK  status: ('A' for Active; 'I' for Inactive)
REMARK    1  A    between atoms: C_1  and  C_2
REMARK    2  A    between atoms: N_4  and  C_10
REMARK    3  A    between atoms: C_14  and  C_17
REMARK    4  A    between atoms: C_17  and  O_18
REMARK                            x       y       z     vdW  Elec       q    Type
REMARK                         _______ _______ _______ _____ _____    ______ ____
ROOT
ATOM      1  C   UNL     1       5.313  -3.747  27.493  0.00  0.00    +0.051 C 
ATOM      2  C   UNL     1       6.675  -4.049  26.961  0.00  0.00    +0.030 A 
ATOM      3  C   UNL     1       7.179  -5.433  27.113  0.00  0.00    +0.257 A 
ATOM      4  O   UNL     1       6.509  -6.316  27.635  0.00  0.00    -0.267 OA
ATOM      5  N   UNL     1       8.424  -5.667  26.610  0.00  0.00    -0.275 N 
ATOM      6  H   UNL     1       8.761  -6.616  26.664  0.00  0.00    +0.173 HD
ATOM      7  C   UNL     1       9.176  -4.792  25.872  0.00  0.00    +0.332 A 
ATOM      8  O   UNL     1      10.197  -5.184  25.311  0.00  0.00    -0.246 OA
ATOM      9  N   UNL     1       8.695  -3.488  25.809  0.00  0.00    -0.270 N 
ATOM     10  C   UNL     1       7.457  -3.161  26.337  0.00  0.00    +0.102 A 
ENDROOT
BRANCH   9  11
ATOM     11  C   UNL     1       9.476  -2.530  25.026  0.00  0.00    +0.248 C 
ATOM     12  O   UNL     1       9.310  -2.736  23.602  0.00  0.00    -0.343 OA
ATOM     13  C   UNL     1       8.422  -1.707  23.099  0.00  0.00    +0.169 C 
ATOM     14  C   UNL     1       8.442  -0.649  24.143  0.00  0.00    +0.007 C 
ATOM     15  C   UNL     1       9.011  -1.134  25.245  0.00  0.00    +0.025 C 
BRANCH  13  16
ATOM     16  C   UNL     1       8.882  -1.265  21.704  0.00  0.00    +0.191 C 
BRANCH  16  17
ATOM     17  O   UNL     1      10.255  -1.575  21.469  0.00  0.00    -0.392 OA
ATOM     18  H   UNL     1      10.557  -0.946  20.788  0.00  0.00    +0.210 HD
ENDBRANCH  16  17
ENDBRANCH  13  16
ENDBRANCH   9  11
TORSDOF 3
ENDMDL
MODEL 4
REMARK VINA RESULT:      -5.7      2.105      5.433
REMARK  Name = 
REMARK  4 active torsions:
REMARK  status: ('A' for Active; 'I' for Inactive)
REMARK    1  A    between atoms: C_1  and  C_2
REMARK    2  A    between atoms: N_4  and  C_10
REMARK    3  A    between atoms: C_14  and  C_17
REMARK    4  A    between atoms: C_17  and  O_18
REMARK                            x       y       z     vdW  Elec       q    Type
REMARK                         _______ _______ _______ _____ _____    ______ ____
ROOT
ATOM      1  C   UNL     1       7.114  -0.294  22.845  0.00  0.00    +0.051 C 
ATOM      2  C   UNL     1       7.850  -1.522  23.272  0.00  0.00    +0.030 A 
ATOM      3  C   UNL     1       9.177  -1.340  23.903  0.00  0.00    +0.257 A 
ATOM      4  O   UNL     1       9.660  -0.230  24.094  0.00  0.00    -0.267 OA
ATOM      5  N   UNL     1       9.814  -2.484  24.282  0.00  0.00    -0.275 N 
ATOM      6  H   UNL     1      10.697  -2.374  24.755  0.00  0.00    +0.173 HD
ATOM      7  C   UNL     1       9.288  -3.748  24.255  0.00  0.00    +0.332 A 
ATOM      8  O   UNL     1       9.887  -4.673  24.802  0.00  0.00    -0.246 OA
ATOM      9  N   UNL     1       8.069  -3.881  23.598  0.00  0.00    -0.270 N 
ATOM     10  C   UNL     1       7.381  -2.768  23.144  0.00  0.00    +0.102 A 
ENDROOT
BRANCH   9  11
ATOM     11  C   UNL     1       7.481  -5.220  23.555  0.00  0.00    +0.248 C 
ATOM     12  O   UNL     1       6.154  -5.244  24.138  0.00  0.00    -0.343 OA
ATOM     13  C   UNL     1       5.190  -5.299  23.057  0.00  0.00    +0.169 C 
ATOM     14  C   UNL     1       5.969  -5.762  21.880  0.00  0.00    +0.007 C 
ATOM     15  C   UNL     1       7.269  -5.683  22.157  0.00  0.00    +0.025 C 
BRANCH  13  16
ATOM     16  C   UNL     1       4.012  -6.194  23.462  0.00  0.00    +0.191 C 
BRANCH  16  17
ATOM     17  O   UNL     1       4.443  -7.479  23.908  0.00  0.00    -0.392 OA
ATOM     18  H   UNL     1       3.762  -8.108  23.605  0.00  0.00    +0.210 HD
ENDBRANCH  16  17
ENDBRANCH  13  16
ENDBRANCH   9  11
TORSDOF 3
ENDMDL
MODEL 5
REMARK VINA RESULT:      -5.5      2.085      2.849
REMARK  Name = 
REMARK  4 active torsions:
REMARK  status: ('A' for Active; 'I' for Inactive)
REMARK    1  A    between atoms: C_1  and  C_2
REMARK    2  A    between atoms: N_4  and  C_10
REMARK    3  A    between atoms: C_14  and  C_17
REMARK    4  A    between atoms: C_17  and  O_18
REMARK                            x       y       z     vdW  Elec       q    Type
REMARK                         _______ _______ _______ _____ _____    ______ ____
ROOT
ATOM      1  C   UNL     1       4.746  -3.401  23.969  0.00  0.00    +0.051 C 
ATOM      2  C   UNL     1       6.225  -3.503  24.149  0.00  0.00    +0.030 A 
ATOM      3  C   UNL     1       6.748  -4.678  24.883  0.00  0.00    +0.257 A 
ATOM      4  O   UNL     1       6.009  -5.555  25.316  0.00  0.00    -0.267 OA
ATOM      5  N   UNL     1       8.102  -4.734  25.020  0.00  0.00    -0.275 N 
ATOM      6  H   UNL     1       8.475  -5.552  25.477  0.00  0.00    +0.173 HD
ATOM      7  C   UNL     1       9.010  -3.892  24.436  0.00  0.00    +0.332 A 
ATOM      8  O   UNL     1      10.210  -4.160  24.477  0.00  0.00    -0.246 OA
ATOM      9  N   UNL     1       8.477  -2.769  23.811  0.00  0.00    -0.270 N 
ATOM     10  C   UNL     1       7.107  -2.617  23.671  0.00  0.00    +0.102 A 
ENDROOT
BRANCH   9  11
ATOM     11  C   UNL     1       9.422  -1.852  23.175  0.00  0.00    +0.248 C 
ATOM     12  O   UNL     1       8.803  -1.097  22.104  0.00  0.00    -0.343 OA
ATOM     13  C   UNL     1       8.552   0.246  22.589  0.00  0.00    +0.169 C 
ATOM     14  C   UNL     1       9.434   0.390  23.776  0.00  0.00    +0.007 C 
ATOM     15  C   UNL     1       9.898  -0.809  24.124  0.00  0.00    +0.025 C 
BRANCH  13  16
ATOM     16  C   UNL     1       8.795   1.255  21.460  0.00  0.00    +0.191 C 
BRANCH  16  17
ATOM     17  O   UNL     1      10.040   1.937  21.609  0.00  0.00    -0.392 OA
ATOM     18  H   UNL     1      10.654   1.288  21.999  0.00  0.00    +0.210 HD
ENDBRANCH  16  17
ENDBRANCH  13  16
ENDBRANCH   9  11
TORSDOF 3
ENDMDL
MODEL 6
REMARK VINA RESULT:      -5.5      2.124      2.714
REMARK  Name = 
REMARK  4 active torsions:
REMARK  status: ('A' for Active; 'I' for Inactive)
REMARK    1  A    between atoms: C_1  and  C_2
REMARK    2  A    between atoms: N_4  and  C_10
REMARK    3  A    between atoms: C_14  and  C_17
REMARK    4  A    between atoms: C_17  and  O_18
REMARK                            x       y       z     vdW  Elec       q    Type
REMARK                         _______ _______ _______ _____ _____    ______ ____
ROOT
ATOM      1  C   UNL     1       3.326  -3.624  24.977  0.00  0.00    +0.051 C 
ATOM      2  C   UNL     1       4.351  -4.415  24.233  0.00  0.00    +0.030 A 
ATOM      3  C   UNL     1       3.874  -5.332  23.173  0.00  0.00    +0.257 A 
ATOM      4  O   UNL     1       2.686  -5.437  22.891  0.00  0.00    -0.267 OA
ATOM      5  N   UNL     1       4.841  -6.030  22.516  0.00  0.00    -0.275 N 
ATOM      6  H   UNL     1       4.535  -6.624  21.761  0.00  0.00    +0.173 HD
ATOM      7  C   UNL     1       6.194  -5.862  22.651  0.00  0.00    +0.332 A 
ATOM      8  O   UNL     1       6.962  -6.413  21.865  0.00  0.00    -0.246 OA
ATOM      9  N   UNL     1       6.597  -5.040  23.699  0.00  0.00    -0.270 N 
ATOM     10  C   UNL     1       5.670  -4.330  24.443  0.00  0.00    +0.102 A 
ENDROOT
BRANCH   9  11
ATOM     11  C   UNL     1       8.037  -4.838  23.867  0.00  0.00    +0.248 C 
ATOM     12  O   UNL     1       8.554  -3.851  22.942  0.00  0.00    -0.343 OA
ATOM     13  C   UNL     1       8.773  -2.619  23.676  0.00  0.00    +0.169 C 
ATOM     14  C   UNL     1       8.811  -3.032  25.102  0.00  0.00    +0.007 C 
ATOM     15  C   UNL     1       8.360  -4.281  25.208  0.00  0.00    +0.025 C 
BRANCH  13  16
ATOM     16  C   UNL     1      10.039  -1.928  23.156  0.00  0.00    +0.191 C 
BRANCH  16  17
ATOM     17  O   UNL     1      10.018  -1.763  21.739  0.00  0.00    -0.392 OA
ATOM     18  H   UNL     1       9.800  -0.826  21.583  0.00  0.00    +0.210 HD
ENDBRANCH  16  17
ENDBRANCH  13  16
ENDBRANCH   9  11
TORSDOF 3
ENDMDL
MODEL 7
REMARK VINA RESULT:      -5.5      4.014      6.902
REMARK  Name = 
REMARK  4 active torsions:
REMARK  status: ('A' for Active; 'I' for Inactive)
REMARK    1  A    between atoms: C_1  and  C_2
REMARK    2  A    between atoms: N_4  and  C_10
REMARK    3  A    between atoms: C_14  and  C_17
REMARK    4  A    between atoms: C_17  and  O_18
REMARK                            x       y       z     vdW  Elec       q    Type
REMARK                         _______ _______ _______ _____ _____    ______ ____
ROOT
ATOM      1  C   UNL     1       7.000   2.851  21.998  0.00  0.00    +0.051 C 
ATOM      2  C   UNL     1       8.240   2.265  22.588  0.00  0.00    +0.030 A 
ATOM      3  C   UNL     1       9.080   3.146  23.432  0.00  0.00    +0.257 A 
ATOM      4  O   UNL     1       8.773   4.309  23.665  0.00  0.00    -0.267 OA
ATOM      5  N   UNL     1      10.200   2.571  23.954  0.00  0.00    -0.275 N 
ATOM      6  H   UNL     1      10.757   3.144  24.568  0.00  0.00    +0.173 HD
ATOM      7  C   UNL     1      10.538   1.246  23.881  0.00  0.00    +0.332 A 
ATOM      8  O   UNL     1      11.472   0.814  24.554  0.00  0.00    -0.246 OA
ATOM      9  N   UNL     1       9.759   0.471  23.028  0.00  0.00    -0.270 N 
ATOM     10  C   UNL     1       8.629   0.996  22.424  0.00  0.00    +0.102 A 
ENDROOT
BRANCH   9  11
ATOM     11  C   UNL     1      10.095  -0.950  22.931  0.00  0.00    +0.248 C 
ATOM     12  O   UNL     1       9.820  -1.654  24.167  0.00  0.00    -0.343 OA
ATOM     13  C   UNL     1       8.598  -2.414  23.989  0.00  0.00    +0.169 C 
ATOM     14  C   UNL     1       8.421  -2.504  22.516  0.00  0.00    +0.007 C 
ATOM     15  C   UNL     1       9.250  -1.647  21.923  0.00  0.00    +0.025 C 
BRANCH  13  16
ATOM     16  C   UNL     1       8.714  -3.756  24.722  0.00  0.00    +0.191 C 
BRANCH  16  17
ATOM     17  O   UNL     1      10.009  -4.338  24.575  0.00  0.00    -0.392 OA
ATOM     18  H   UNL     1      10.640  -3.595  24.614  0.00  0.00    +0.210 HD
ENDBRANCH  16  17
ENDBRANCH  13  16
ENDBRANCH   9  11
TORSDOF 3
ENDMDL
MODEL 8
REMARK VINA RESULT:      -5.4      3.028      6.168
REMARK  Name = 
REMARK  4 active torsions:
REMARK  status: ('A' for Active; 'I' for Inactive)
REMARK    1  A    between atoms: C_1  and  C_2
REMARK    2  A    between atoms: N_4  and  C_10
REMARK    3  A    between atoms: C_14  and  C_17
REMARK    4  A    between atoms: C_17  and  O_18
REMARK                            x       y       z     vdW  Elec       q    Type
REMARK                         _______ _______ _______ _____ _____    ______ ____
ROOT
ATOM      1  C   UNL     1       8.011   1.970  25.308  0.00  0.00    +0.051 C 
ATOM      2  C   UNL     1       8.618   0.952  24.400  0.00  0.00    +0.030 A 
ATOM      3  C   UNL     1       9.710   1.397  23.504  0.00  0.00    +0.257 A 
ATOM      4  O   UNL     1      10.126   2.550  23.508  0.00  0.00    -0.267 OA
ATOM      5  N   UNL     1      10.239   0.437  22.695  0.00  0.00    -0.275 N 
ATOM      6  H   UNL     1      11.014   0.714  22.113  0.00  0.00    +0.173 HD
ATOM      7  C   UNL     1       9.953  -0.902  22.733  0.00  0.00    +0.332 A 
ATOM      8  O   UNL     1      10.635  -1.694  22.087  0.00  0.00    -0.246 OA
ATOM      9  N   UNL     1       8.880  -1.266  23.542  0.00  0.00    -0.270 N 
ATOM     10  C   UNL     1       8.259  -0.337  24.360  0.00  0.00    +0.102 A 
ENDROOT
BRANCH   9  11
ATOM     11  C   UNL     1       8.550  -2.690  23.605  0.00  0.00    +0.248 C 
ATOM     12  O   UNL     1       9.483  -3.422  24.438  0.00  0.00    -0.343 OA
ATOM     13  C   UNL     1       8.834  -3.697  25.704  0.00  0.00    +0.169 C 
ATOM     14  C   UNL     1       7.384  -3.522  25.431  0.00  0.00    +0.007 C 
ATOM     15  C   UNL     1       7.231  -2.920  24.253  0.00  0.00    +0.025 C 
BRANCH  13  16
ATOM     16  C   UNL     1       9.248  -5.087  26.204  0.00  0.00    +0.191 C 
BRANCH  16  17
ATOM     17  O   UNL     1      10.126  -5.746  25.292  0.00  0.00    -0.392 OA
ATOM     18  H   UNL     1      10.130  -5.199  24.485  0.00  0.00    +0.210 HD
ENDBRANCH  16  17
ENDBRANCH  13  16
ENDBRANCH   9  11
TORSDOF 3
ENDMDL
MODEL 9
REMARK VINA RESULT:      -5.4      2.606      3.871
REMARK  Name = 
REMARK  4 active torsions:
REMARK  status: ('A' for Active; 'I' for Inactive)
REMARK    1  A    between atoms: C_1  and  C_2
REMARK    2  A    between atoms: N_4  and  C_10
REMARK    3  A    between atoms: C_14  and  C_17
REMARK    4  A    between atoms: C_17  and  O_18
REMARK                            x       y       z     vdW  Elec       q    Type
REMARK                         _______ _______ _______ _____ _____    ______ ____
ROOT
ATOM      1  C   UNL     1       5.973  -1.268  27.177  0.00  0.00    +0.051 C 
ATOM      2  C   UNL     1       7.130  -1.860  26.440  0.00  0.00    +0.030 A 
ATOM      3  C   UNL     1       7.283  -3.333  26.474  0.00  0.00    +0.257 A 
ATOM      4  O   UNL     1       6.488  -4.056  27.063  0.00  0.00    -0.267 OA
ATOM      5  N   UNL     1       8.348  -3.832  25.786  0.00  0.00    -0.275 N 
ATOM      6  H   UNL     1       8.438  -4.836  25.761  0.00  0.00    +0.173 HD
ATOM      7  C   UNL     1       9.191  -3.122  24.973  0.00  0.00    +0.332 A 
ATOM      8  O   UNL     1       9.994  -3.715  24.255  0.00  0.00    -0.246 OA
ATOM      9  N   UNL     1       9.051  -1.738  25.021  0.00  0.00    -0.270 N 
ATOM     10  C   UNL     1       8.019  -1.152  25.735  0.00  0.00    +0.102 A 
ENDROOT
BRANCH   9  11
ATOM     11  C   UNL     1       9.936  -0.952  24.161  0.00  0.00    +0.248 C 
ATOM     12  O   UNL     1       9.276  -0.545  22.937  0.00  0.00    -0.343 OA
ATOM     13  C   UNL     1       8.926   0.857  23.060  0.00  0.00    +0.169 C 
ATOM     14  C   UNL     1       9.785   1.364  24.162  0.00  0.00    +0.007 C 
ATOM     15  C   UNL     1      10.328   0.331  24.803  0.00  0.00    +0.025 C 
BRANCH  13  16
ATOM     16  C   UNL     1       9.109   1.554  21.707  0.00  0.00    +0.191 C 
BRANCH  16  17
ATOM     17  O   UNL     1      10.320   2.307  21.650  0.00  0.00    -0.392 OA
ATOM     18  H   UNL     1      10.987   1.710  21.263  0.00  0.00    +0.210 HD
ENDBRANCH  16  17
ENDBRANCH  13  16
ENDBRANCH   9  11
TORSDOF 3
ENDMDL
