MODEL 1
REMARK VINA RESULT:      -7.2      0.000      0.000
REMARK  Name = 
REMARK  17 active torsions:
REMARK  status: ('A' for Active; 'I' for Inactive)
REMARK    1  A    between atoms: C_1  and  C_2
REMARK    2  A    between atoms: C_2  and  C_3
REMARK    3  A    between atoms: C_2  and  C_4
REMARK    4  A    between atoms: C_2  and  N_5
REMARK    5  A    between atoms: C_6  and  C_8
REMARK    6  A    between atoms: N_20  and  C_21
REMARK    7  A    between atoms: C_21  and  C_22
REMARK    8  A    between atoms: C_22  and  C_24
REMARK    9  A    between atoms: C_22  and  O_55
REMARK   10  A    between atoms: C_24  and  C_26
REMARK   11  A    between atoms: C_24  and  N_33
REMARK   12  A    between atoms: C_26  and  C_27
REMARK   13  A    between atoms: C_34  and  C_36
REMARK   14  A    between atoms: C_36  and  C_38
REMARK   15  A    between atoms: C_36  and  N_42
REMARK   16  A    between atoms: C_38  and  C_39
REMARK   17  A    between atoms: C_43  and  C_45
REMARK                            x       y       z     vdW  Elec       q    Type
REMARK                         _______ _______ _______ _____ _____    ______ ____
ROOT
ATOM      1  C   UNL     1       6.653  -4.910  25.563  0.00  0.00    +0.107 C 
ENDROOT
BRANCH   1   2
ATOM      2  N   UNL     1       5.727  -5.054  26.700  0.00  0.00    -0.308 N 
ATOM      3  H   UNL     1       5.864  -4.478  27.530  0.00  0.00    +0.149 HD
ATOM      4  C   UNL     1       4.747  -6.018  26.737  0.00  0.00    +0.234 C 
ATOM      5  O   UNL     1       4.650  -6.898  25.902  0.00  0.00    -0.274 OA
BRANCH   4   6
ATOM      6  C   UNL     1       3.833  -5.938  27.980  0.00  0.00    +0.168 C 
BRANCH   6   7
ATOM      7  N   UNL     1       3.782  -4.533  28.385  0.00  0.00    -0.298 N 
ATOM      8  H   UNL     1       4.560  -4.101  28.879  0.00  0.00    +0.150 HD
ATOM      9  C   UNL     1       2.820  -3.682  27.889  0.00  0.00    +0.263 C 
ATOM     10  O   UNL     1       1.957  -4.043  27.102  0.00  0.00    -0.269 OA
BRANCH   9  11
ATOM     11  C   UNL     1       2.912  -2.255  28.343  0.00  0.00    +0.126 A 
ATOM     12  C   UNL     1       3.791  -1.945  29.367  0.00  0.00    +0.033 A 
ATOM     13  C   UNL     1       3.885  -0.618  29.781  0.00  0.00    +0.012 A 
ATOM     14  C   UNL     1       3.090   0.351  29.153  0.00  0.00    +0.000 A 
ATOM     15  C   UNL     1       2.209  -0.058  28.126  0.00  0.00    +0.072 A 
ATOM     16  C   UNL     1       1.429   0.927  27.534  0.00  0.00    +0.028 A 
ATOM     17  C   UNL     1       1.515   2.278  27.916  0.00  0.00    +0.002 A 
ATOM     18  C   UNL     1       2.403   2.655  28.925  0.00  0.00    +0.001 A 
ATOM     19  C   UNL     1       3.181   1.696  29.544  0.00  0.00    +0.010 A 
ATOM     20  N   UNL     1       2.108  -1.353  27.720  0.00  0.00    -0.242 NA
ENDBRANCH   9  11
ENDBRANCH   6   7
BRANCH   6  21
ATOM     21  C   UNL     1       4.404  -6.855  29.048  0.00  0.00    +0.127 C 
BRANCH  21  22
ATOM     22  C   UNL     1       5.817  -6.501  29.424  0.00  0.00    +0.213 C 
ATOM     23  N   UNL     1       6.697  -7.537  29.278  0.00  0.00    -0.329 N 
ATOM     24  H   UNL     1       7.671  -7.361  29.500  0.00  0.00    +0.145 HD
ATOM     25  H   UNL     1       6.444  -8.424  28.873  0.00  0.00    +0.145 HD
ATOM     26  O   UNL     1       6.174  -5.425  29.876  0.00  0.00    -0.276 OA
ENDBRANCH  21  22
ENDBRANCH   6  21
ENDBRANCH   4   6
ENDBRANCH   1   2
BRANCH   1  27
ATOM     27  C   UNL     1       8.078  -4.712  26.114  0.00  0.00    +0.149 C 
BRANCH  27  28
ATOM     28  O   UNL     1       8.177  -5.379  27.391  0.00  0.00    -0.389 OA
ATOM     29  H   UNL     1       7.447  -5.048  27.941  0.00  0.00    +0.210 HD
ENDBRANCH  27  28
BRANCH  27  30
ATOM     30  C   UNL     1       8.646  -3.264  26.298  0.00  0.00    +0.118 C 
BRANCH  30  32
ATOM     31  C   UNL     1       8.953  -0.863  25.897  0.00  0.00    +0.143 C 
ATOM     32  N   UNL     1       8.614  -2.188  25.227  0.00  0.00    -0.289 NA
ATOM     33  C   UNL     1       9.651  -2.559  24.214  0.00  0.00    +0.089 C 
ATOM     34  C   UNL     1      10.076  -1.531  23.139  0.00  0.00    +0.006 C 
ATOM     35  C   UNL     1      10.550  -0.235  23.786  0.00  0.00    -0.005 C 
ATOM     36  C   UNL     1      10.525   0.967  22.829  0.00  0.00    +0.004 C 
ATOM     37  C   UNL     1       9.168   1.110  22.162  0.00  0.00    +0.000 C 
ATOM     38  C   UNL     1       8.920  -0.075  21.250  0.00  0.00    +0.000 C 
ATOM     39  C   UNL     1       9.149  -1.441  21.905  0.00  0.00    +0.005 C 
ATOM     40  C   UNL     1       9.916   0.110  25.146  0.00  0.00    +0.032 C 
BRANCH  31  43
ATOM     41  N   UNL     1       7.796   1.387  26.527  0.00  0.00    -0.309 N 
ATOM     42  H   UNL     1       8.728   1.768  26.432  0.00  0.00    +0.149 HD
ATOM     43  C   UNL     1       7.732   0.006  26.485  0.00  0.00    +0.231 C 
ATOM     44  O   UNL     1       6.674  -0.555  26.798  0.00  0.00    -0.274 OA
BRANCH  41  46
ATOM     45  C   UNL     1       6.668   2.064  28.677  0.00  0.00    +0.031 C 
ATOM     46  C   UNL     1       6.751   2.276  27.150  0.00  0.00    +0.026 C 
ATOM     47  C   UNL     1       7.130   3.749  26.885  0.00  0.00    +0.031 C 
ATOM     48  C   UNL     1       5.314   2.102  26.590  0.00  0.00    +0.031 C 
ENDBRANCH  41  46
ENDBRANCH  31  43
ENDBRANCH  30  32
ENDBRANCH  27  30
ENDBRANCH   1  27
BRANCH   1  49
ATOM     49  C   UNL     1       6.060  -3.836  24.615  0.00  0.00    +0.060 C 
BRANCH  49  50
ATOM     50  C   UNL     1       6.346  -4.306  23.184  0.00  0.00    -0.046 A 
ATOM     51  C   UNL     1       6.737  -5.641  22.995  0.00  0.00    +0.004 A 
ATOM     52  C   UNL     1       6.648  -6.232  21.736  0.00  0.00    +0.000 A 
ATOM     53  C   UNL     1       6.232  -5.479  20.643  0.00  0.00    +0.000 A 
ATOM     54  C   UNL     1       5.930  -4.127  20.801  0.00  0.00    +0.000 A 
ATOM     55  C   UNL     1       5.986  -3.536  22.068  0.00  0.00    +0.004 A 
ENDBRANCH  49  50
ENDBRANCH   1  49
TORSDOF 14
ENDMDL
MODEL 2
REMARK VINA RESULT:      -7.0      2.459      6.943
REMARK  Name = 
REMARK  17 active torsions:
REMARK  status: ('A' for Active; 'I' for Inactive)
REMARK    1  A    between atoms: C_1  and  C_2
REMARK    2  A    between atoms: C_2  and  C_3
REMARK    3  A    between atoms: C_2  and  C_4
REMARK    4  A    between atoms: C_2  and  N_5
REMARK    5  A    between atoms: C_6  and  C_8
REMARK    6  A    between atoms: N_20  and  C_21
REMARK    7  A    between atoms: C_21  and  C_22
REMARK    8  A    between atoms: C_22  and  C_24
REMARK    9  A    between atoms: C_22  and  O_55
REMARK   10  A    between atoms: C_24  and  C_26
REMARK   11  A    between atoms: C_24  and  N_33
REMARK   12  A    between atoms: C_26  and  C_27
REMARK   13  A    between atoms: C_34  and  C_36
REMARK   14  A    between atoms: C_36  and  C_38
REMARK   15  A    between atoms: C_36  and  N_42
REMARK   16  A    between atoms: C_38  and  C_39
REMARK   17  A    between atoms: C_43  and  C_45
REMARK                            x       y       z     vdW  Elec       q    Type
REMARK                         _______ _______ _______ _____ _____    ______ ____
ROOT
ATOM      1  C   UNL     1       5.210  -3.610  26.395  0.00  0.00    +0.107 C 
ENDROOT
BRANCH   1   2
ATOM      2  N   UNL     1       6.217  -3.753  25.329  0.00  0.00    -0.308 N 
ATOM      3  H   UNL     1       6.629  -2.915  24.918  0.00  0.00    +0.149 HD
ATOM      4  C   UNL     1       6.545  -4.969  24.779  0.00  0.00    +0.234 C 
ATOM      5  O   UNL     1       5.947  -5.997  25.038  0.00  0.00    -0.274 OA
BRANCH   4   6
ATOM      6  C   UNL     1       7.684  -4.904  23.739  0.00  0.00    +0.168 C 
BRANCH   6   7
ATOM      7  N   UNL     1       7.960  -3.487  23.494  0.00  0.00    -0.298 N 
ATOM      8  H   UNL     1       7.205  -2.831  23.311  0.00  0.00    +0.150 HD
ATOM      9  C   UNL     1       9.197  -2.944  23.764  0.00  0.00    +0.263 C 
ATOM     10  O   UNL     1      10.127  -3.602  24.205  0.00  0.00    -0.269 OA
BRANCH   9  11
ATOM     11  C   UNL     1       9.330  -1.470  23.518  0.00  0.00    +0.126 A 
ATOM     12  C   UNL     1       9.924  -1.050  22.340  0.00  0.00    +0.033 A 
ATOM     13  C   UNL     1      10.038   0.320  22.107  0.00  0.00    +0.012 A 
ATOM     14  C   UNL     1       9.551   1.218  23.067  0.00  0.00    +0.000 A 
ATOM     15  C   UNL     1       8.971   0.700  24.247  0.00  0.00    +0.072 A 
ATOM     16  C   UNL     1       8.510   1.619  25.182  0.00  0.00    +0.028 A 
ATOM     17  C   UNL     1       8.592   3.006  24.967  0.00  0.00    +0.002 A 
ATOM     18  C   UNL     1       9.157   3.490  23.785  0.00  0.00    +0.001 A 
ATOM     19  C   UNL     1       9.640   2.601  22.845  0.00  0.00    +0.010 A 
ATOM     20  N   UNL     1       8.863  -0.636  24.485  0.00  0.00    -0.242 NA
ENDBRANCH   9  11
ENDBRANCH   6   7
BRANCH   6  21
ATOM     21  C   UNL     1       7.236  -5.656  22.497  0.00  0.00    +0.127 C 
BRANCH  21  22
ATOM     22  C   UNL     1       5.890  -5.206  21.999  0.00  0.00    +0.213 C 
ATOM     23  N   UNL     1       4.919  -6.162  22.110  0.00  0.00    -0.329 N 
ATOM     24  H   UNL     1       3.983  -5.918  21.806  0.00  0.00    +0.145 HD
ATOM     25  H   UNL     1       5.067  -7.050  22.564  0.00  0.00    +0.145 HD
ATOM     26  O   UNL     1       5.659  -4.124  21.483  0.00  0.00    -0.276 OA
ENDBRANCH  21  22
ENDBRANCH   6  21
ENDBRANCH   4   6
ENDBRANCH   1   2
BRANCH   1  27
ATOM     27  C   UNL     1       4.538  -2.232  26.253  0.00  0.00    +0.149 C 
BRANCH  27  28
ATOM     28  O   UNL     1       3.395  -2.361  25.380  0.00  0.00    -0.389 OA
ATOM     29  H   UNL     1       3.269  -3.310  25.219  0.00  0.00    +0.210 HD
ENDBRANCH  27  28
BRANCH  27  30
ATOM     30  C   UNL     1       5.375  -1.007  25.750  0.00  0.00    +0.118 C 
BRANCH  30  32
ATOM     31  C   UNL     1       4.246   1.045  26.480  0.00  0.00    +0.143 C 
ATOM     32  N   UNL     1       5.563   0.282  26.531  0.00  0.00    -0.289 NA
ATOM     33  C   UNL     1       5.902  -0.112  27.934  0.00  0.00    +0.089 C 
ATOM     34  C   UNL     1       5.878   0.953  29.056  0.00  0.00    +0.006 C 
ATOM     35  C   UNL     1       4.522   1.646  29.118  0.00  0.00    -0.005 C 
ATOM     36  C   UNL     1       4.563   3.000  29.843  0.00  0.00    +0.004 C 
ATOM     37  C   UNL     1       5.649   3.895  29.272  0.00  0.00    +0.000 C 
ATOM     38  C   UNL     1       7.010   3.296  29.564  0.00  0.00    +0.000 C 
ATOM     39  C   UNL     1       7.153   1.821  29.173  0.00  0.00    +0.005 C 
ATOM     40  C   UNL     1       3.750   1.736  27.789  0.00  0.00    +0.032 C 
BRANCH  31  43
ATOM     41  N   UNL     1       5.027   2.291  24.327  0.00  0.00    -0.309 N 
ATOM     42  H   UNL     1       5.947   1.982  24.612  0.00  0.00    +0.149 HD
ATOM     43  C   UNL     1       4.033   2.079  25.264  0.00  0.00    +0.231 C 
ATOM     44  O   UNL     1       2.926   2.608  25.093  0.00  0.00    -0.274 OA
BRANCH  41  46
ATOM     45  C   UNL     1       5.210   4.738  23.748  0.00  0.00    +0.031 C 
ATOM     46  C   UNL     1       4.960   3.309  23.218  0.00  0.00    +0.026 C 
ATOM     47  C   UNL     1       6.048   2.981  22.175  0.00  0.00    +0.031 C 
ATOM     48  C   UNL     1       3.620   3.346  22.434  0.00  0.00    +0.031 C 
ENDBRANCH  41  46
ENDBRANCH  31  43
ENDBRANCH  30  32
ENDBRANCH  27  30
ENDBRANCH   1  27
BRANCH   1  49
ATOM     49  C   UNL     1       5.899  -3.974  27.734  0.00  0.00    +0.060 C 
BRANCH  49  50
ATOM     50  C   UNL     1       4.925  -4.875  28.501  0.00  0.00    -0.046 A 
ATOM     51  C   UNL     1       3.897  -5.499  27.776  0.00  0.00    +0.004 A 
ATOM     52  C   UNL     1       3.224  -6.598  28.308  0.00  0.00    +0.000 A 
ATOM     53  C   UNL     1       3.523  -7.041  29.593  0.00  0.00    +0.000 A 
ATOM     54  C   UNL     1       4.476  -6.370  30.357  0.00  0.00    +0.000 A 
ATOM     55  C   UNL     1       5.179  -5.288  29.817  0.00  0.00    +0.004 A 
ENDBRANCH  49  50
ENDBRANCH   1  49
TORSDOF 14
ENDMDL
MODEL 3
REMARK VINA RESULT:      -6.9      2.395      6.511
REMARK  Name = 
REMARK  17 active torsions:
REMARK  status: ('A' for Active; 'I' for Inactive)
REMARK    1  A    between atoms: C_1  and  C_2
REMARK    2  A    between atoms: C_2  and  C_3
REMARK    3  A    between atoms: C_2  and  C_4
REMARK    4  A    between atoms: C_2  and  N_5
REMARK    5  A    between atoms: C_6  and  C_8
REMARK    6  A    between atoms: N_20  and  C_21
REMARK    7  A    between atoms: C_21  and  C_22
REMARK    8  A    between atoms: C_22  and  C_24
REMARK    9  A    between atoms: C_22  and  O_55
REMARK   10  A    between atoms: C_24  and  C_26
REMARK   11  A    between atoms: C_24  and  N_33
REMARK   12  A    between atoms: C_26  and  C_27
REMARK   13  A    between atoms: C_34  and  C_36
REMARK   14  A    between atoms: C_36  and  C_38
REMARK   15  A    between atoms: C_36  and  N_42
REMARK   16  A    between atoms: C_38  and  C_39
REMARK   17  A    between atoms: C_43  and  C_45
REMARK                            x       y       z     vdW  Elec       q    Type
REMARK                         _______ _______ _______ _____ _____    ______ ____
ROOT
ATOM      1  C   UNL     1       4.544  -3.393  27.729  0.00  0.00    +0.107 C 
ENDROOT
BRANCH   1   2
ATOM      2  N   UNL     1       5.438  -3.897  26.671  0.00  0.00    -0.308 N 
ATOM      3  H   UNL     1       6.367  -3.488  26.568  0.00  0.00    +0.149 HD
ATOM      4  C   UNL     1       5.032  -4.819  25.737  0.00  0.00    +0.234 C 
ATOM      5  O   UNL     1       3.879  -5.194  25.634  0.00  0.00    -0.274 OA
BRANCH   4   6
ATOM      6  C   UNL     1       6.149  -5.274  24.773  0.00  0.00    +0.168 C 
BRANCH   6   7
ATOM      7  N   UNL     1       6.752  -4.063  24.215  0.00  0.00    -0.298 N 
ATOM      8  H   UNL     1       6.215  -3.204  24.124  0.00  0.00    +0.150 HD
ATOM      9  C   UNL     1       8.115  -3.957  24.044  0.00  0.00    +0.263 C 
ATOM     10  O   UNL     1       8.890  -4.856  24.333  0.00  0.00    -0.269 OA
BRANCH   9  11
ATOM     11  C   UNL     1       8.607  -2.644  23.512  0.00  0.00    +0.126 A 
ATOM     12  C   UNL     1       8.303  -2.307  22.205  0.00  0.00    +0.033 A 
ATOM     13  C   UNL     1       8.750  -1.081  21.714  0.00  0.00    +0.012 A 
ATOM     14  C   UNL     1       9.489  -0.238  22.557  0.00  0.00    +0.000 A 
ATOM     15  C   UNL     1       9.765  -0.669  23.874  0.00  0.00    +0.072 A 
ATOM     16  C   UNL     1      10.509   0.186  24.676  0.00  0.00    +0.028 A 
ATOM     17  C   UNL     1      10.958   1.438  24.218  0.00  0.00    +0.002 A 
ATOM     18  C   UNL     1      10.659   1.844  22.916  0.00  0.00    +0.001 A 
ATOM     19  C   UNL     1       9.935   1.008  22.088  0.00  0.00    +0.010 A 
ATOM     20  N   UNL     1       9.337  -1.867  24.357  0.00  0.00    -0.242 NA
ENDBRANCH   9  11
ENDBRANCH   6   7
BRANCH   6  21
ATOM     21  C   UNL     1       5.530  -6.181  23.723  0.00  0.00    +0.127 C 
BRANCH  21  22
ATOM     22  C   UNL     1       5.335  -5.490  22.401  0.00  0.00    +0.213 C 
ATOM     23  N   UNL     1       5.913  -6.148  21.351  0.00  0.00    -0.329 N 
ATOM     24  H   UNL     1       5.806  -5.744  20.427  0.00  0.00    +0.145 HD
ATOM     25  H   UNL     1       6.350  -7.052  21.438  0.00  0.00    +0.145 HD
ATOM     26  O   UNL     1       4.774  -4.417  22.246  0.00  0.00    -0.276 OA
ENDBRANCH  21  22
ENDBRANCH   6  21
ENDBRANCH   4   6
ENDBRANCH   1   2
BRANCH   1  27
ATOM     27  C   UNL     1       4.690  -1.862  27.805  0.00  0.00    +0.149 C 
BRANCH  27  28
ATOM     28  O   UNL     1       4.272  -1.421  29.116  0.00  0.00    -0.389 OA
ATOM     29  H   UNL     1       3.376  -1.768  29.257  0.00  0.00    +0.210 HD
ENDBRANCH  27  28
BRANCH  27  30
ATOM     30  C   UNL     1       3.963  -0.957  26.754  0.00  0.00    +0.118 C 
BRANCH  30  32
ATOM     31  C   UNL     1       5.025   1.211  27.191  0.00  0.00    +0.143 C 
ATOM     32  N   UNL     1       4.589   0.256  26.088  0.00  0.00    -0.289 NA
ATOM     33  C   UNL     1       5.767  -0.241  25.310  0.00  0.00    +0.089 C 
ATOM     34  C   UNL     1       6.793   0.769  24.744  0.00  0.00    +0.006 C 
ATOM     35  C   UNL     1       7.350   1.655  25.851  0.00  0.00    -0.005 C 
ATOM     36  C   UNL     1       7.977   2.958  25.330  0.00  0.00    +0.004 C 
ATOM     37  C   UNL     1       7.020   3.700  24.415  0.00  0.00    +0.000 C 
ATOM     38  C   UNL     1       6.787   2.891  23.155  0.00  0.00    +0.000 C 
ATOM     39  C   UNL     1       6.401   1.428  23.400  0.00  0.00    +0.005 C 
ATOM     40  C   UNL     1       6.411   1.915  27.043  0.00  0.00    +0.032 C 
BRANCH  31  43
ATOM     41  N   UNL     1       3.928   3.575  27.117  0.00  0.00    -0.309 N 
ATOM     42  H   UNL     1       4.762   3.828  26.605  0.00  0.00    +0.149 HD
ATOM     43  C   UNL     1       3.960   2.314  27.683  0.00  0.00    +0.231 C 
ATOM     44  O   UNL     1       3.080   1.999  28.495  0.00  0.00    -0.274 OA
BRANCH  41  46
ATOM     45  C   UNL     1       3.257   5.013  29.076  0.00  0.00    +0.031 C 
ATOM     46  C   UNL     1       3.039   4.701  27.580  0.00  0.00    +0.026 C 
ATOM     47  C   UNL     1       3.378   5.968  26.765  0.00  0.00    +0.031 C 
ATOM     48  C   UNL     1       1.517   4.467  27.383  0.00  0.00    +0.031 C 
ENDBRANCH  41  46
ENDBRANCH  31  43
ENDBRANCH  30  32
ENDBRANCH  27  30
ENDBRANCH   1  27
BRANCH   1  49
ATOM     49  C   UNL     1       4.813  -4.236  29.002  0.00  0.00    +0.060 C 
BRANCH  49  50
ATOM     50  C   UNL     1       3.598  -5.152  29.188  0.00  0.00    -0.046 A 
ATOM     51  C   UNL     1       2.329  -4.633  28.883  0.00  0.00    +0.004 A 
ATOM     52  C   UNL     1       1.250  -5.487  28.666  0.00  0.00    +0.000 A 
ATOM     53  C   UNL     1       1.409  -6.861  28.816  0.00  0.00    +0.000 A 
ATOM     54  C   UNL     1       2.641  -7.381  29.210  0.00  0.00    +0.000 A 
ATOM     55  C   UNL     1       3.738  -6.532  29.397  0.00  0.00    +0.004 A 
ENDBRANCH  49  50
ENDBRANCH   1  49
TORSDOF 14
ENDMDL
MODEL 4
REMARK VINA RESULT:      -6.9      2.725      7.633
REMARK  Name = 
REMARK  17 active torsions:
REMARK  status: ('A' for Active; 'I' for Inactive)
REMARK    1  A    between atoms: C_1  and  C_2
REMARK    2  A    between atoms: C_2  and  C_3
REMARK    3  A    between atoms: C_2  and  C_4
REMARK    4  A    between atoms: C_2  and  N_5
REMARK    5  A    between atoms: C_6  and  C_8
REMARK    6  A    between atoms: N_20  and  C_21
REMARK    7  A    between atoms: C_21  and  C_22
REMARK    8  A    between atoms: C_22  and  C_24
REMARK    9  A    between atoms: C_22  and  O_55
REMARK   10  A    between atoms: C_24  and  C_26
REMARK   11  A    between atoms: C_24  and  N_33
REMARK   12  A    between atoms: C_26  and  C_27
REMARK   13  A    between atoms: C_34  and  C_36
REMARK   14  A    between atoms: C_36  and  C_38
REMARK   15  A    between atoms: C_36  and  N_42
REMARK   16  A    between atoms: C_38  and  C_39
REMARK   17  A    between atoms: C_43  and  C_45
REMARK                            x       y       z     vdW  Elec       q    Type
REMARK                         _______ _______ _______ _____ _____    ______ ____
ROOT
ATOM      1  C   UNL     1       6.216  -3.236  23.743  0.00  0.00    +0.107 C 
ENDROOT
BRANCH   1   2
ATOM      2  N   UNL     1       6.216  -2.180  24.772  0.00  0.00    -0.308 N 
ATOM      3  H   UNL     1       7.105  -1.798  25.092  0.00  0.00    +0.149 HD
ATOM      4  C   UNL     1       5.069  -1.766  25.406  0.00  0.00    +0.234 C 
ATOM      5  O   UNL     1       3.995  -2.319  25.262  0.00  0.00    -0.274 OA
BRANCH   4   6
ATOM      6  C   UNL     1       5.281  -0.592  26.387  0.00  0.00    +0.168 C 
BRANCH   6   7
ATOM      7  N   UNL     1       5.770   0.541  25.599  0.00  0.00    -0.298 N 
ATOM      8  H   UNL     1       6.635   0.475  25.069  0.00  0.00    +0.150 HD
ATOM      9  C   UNL     1       4.963   1.624  25.329  0.00  0.00    +0.263 C 
ATOM     10  O   UNL     1       3.812   1.709  25.732  0.00  0.00    -0.269 OA
BRANCH   9  11
ATOM     11  C   UNL     1       5.569   2.691  24.467  0.00  0.00    +0.126 A 
ATOM     12  C   UNL     1       5.061   2.877  23.193  0.00  0.00    +0.033 A 
ATOM     13  C   UNL     1       5.618   3.877  22.397  0.00  0.00    +0.012 A 
ATOM     14  C   UNL     1       6.667   4.653  22.910  0.00  0.00    +0.000 A 
ATOM     15  C   UNL     1       7.132   4.384  24.217  0.00  0.00    +0.072 A 
ATOM     16  C   UNL     1       8.179   5.165  24.688  0.00  0.00    +0.028 A 
ATOM     17  C   UNL     1       8.749   6.194  23.918  0.00  0.00    +0.002 A 
ATOM     18  C   UNL     1       8.260   6.447  22.634  0.00  0.00    +0.001 A 
ATOM     19  C   UNL     1       7.230   5.676  22.131  0.00  0.00    +0.010 A 
ATOM     20  N   UNL     1       6.598   3.406  24.998  0.00  0.00    -0.242 NA
ENDBRANCH   9  11
ENDBRANCH   6   7
BRANCH   6  21
ATOM     21  C   UNL     1       6.251  -1.043  27.465  0.00  0.00    +0.127 C 
BRANCH  21  22
ATOM     22  C   UNL     1       7.373  -0.065  27.683  0.00  0.00    +0.213 C 
ATOM     23  N   UNL     1       8.581  -0.507  27.220  0.00  0.00    -0.329 N 
ATOM     24  H   UNL     1       9.378   0.111  27.322  0.00  0.00    +0.145 HD
ATOM     25  H   UNL     1       8.694  -1.364  26.701  0.00  0.00    +0.145 HD
ATOM     26  O   UNL     1       7.270   1.003  28.266  0.00  0.00    -0.276 OA
ENDBRANCH  21  22
ENDBRANCH   6  21
ENDBRANCH   4   6
ENDBRANCH   1   2
BRANCH   1  27
ATOM     27  C   UNL     1       7.196  -4.342  24.177  0.00  0.00    +0.149 C 
BRANCH  27  28
ATOM     28  O   UNL     1       7.086  -5.446  23.252  0.00  0.00    -0.389 OA
ATOM     29  H   UNL     1       7.494  -6.216  23.683  0.00  0.00    +0.210 HD
ENDBRANCH  27  28
BRANCH  27  30
ATOM     30  C   UNL     1       7.110  -4.933  25.624  0.00  0.00    +0.118 C 
BRANCH  30  32
ATOM     31  C   UNL     1       5.313  -6.419  26.387  0.00  0.00    +0.143 C 
ATOM     32  N   UNL     1       5.839  -4.991  26.453  0.00  0.00    -0.289 NA
ATOM     33  C   UNL     1       6.220  -4.623  27.852  0.00  0.00    +0.089 C 
ATOM     34  C   UNL     1       5.219  -4.858  29.007  0.00  0.00    +0.006 C 
ATOM     35  C   UNL     1       4.774  -6.315  29.051  0.00  0.00    -0.005 C 
ATOM     36  C   UNL     1       3.460  -6.527  29.821  0.00  0.00    +0.004 C 
ATOM     37  C   UNL     1       2.371  -5.600  29.312  0.00  0.00    +0.000 C 
ATOM     38  C   UNL     1       2.737  -4.163  29.625  0.00  0.00    +0.000 C 
ATOM     39  C   UNL     1       4.149  -3.756  29.191  0.00  0.00    +0.005 C 
ATOM     40  C   UNL     1       4.768  -7.059  27.703  0.00  0.00    +0.032 C 
BRANCH  31  43
ATOM     41  N   UNL     1       2.938  -6.496  25.315  0.00  0.00    -0.309 N 
ATOM     42  H   UNL     1       2.623  -6.320  26.260  0.00  0.00    +0.149 HD
ATOM     43  C   UNL     1       4.286  -6.779  25.201  0.00  0.00    +0.231 C 
ATOM     44  O   UNL     1       4.719  -7.208  24.122  0.00  0.00    -0.274 OA
BRANCH  41  46
ATOM     45  C   UNL     1       1.932  -8.399  24.004  0.00  0.00    +0.031 C 
ATOM     46  C   UNL     1       1.889  -6.886  24.305  0.00  0.00    +0.026 C 
ATOM     47  C   UNL     1       0.497  -6.543  24.876  0.00  0.00    +0.031 C 
ATOM     48  C   UNL     1       1.979  -6.150  22.940  0.00  0.00    +0.031 C 
ENDBRANCH  41  46
ENDBRANCH  31  43
ENDBRANCH  30  32
ENDBRANCH  27  30
ENDBRANCH   1  27
BRANCH   1  49
ATOM     49  C   UNL     1       6.425  -2.544  22.372  0.00  0.00    +0.060 C 
BRANCH  49  50
ATOM     50  C   UNL     1       7.582  -1.554  22.550  0.00  0.00    -0.046 A 
ATOM     51  C   UNL     1       8.885  -2.010  22.288  0.00  0.00    +0.004 A 
ATOM     52  C   UNL     1       9.918  -1.103  22.063  0.00  0.00    +0.000 A 
ATOM     53  C   UNL     1       9.678   0.264  22.162  0.00  0.00    +0.000 A 
ATOM     54  C   UNL     1       8.410   0.725  22.513  0.00  0.00    +0.000 A 
ATOM     55  C   UNL     1       7.360  -0.179  22.709  0.00  0.00    +0.004 A 
ENDBRANCH  49  50
ENDBRANCH   1  49
TORSDOF 14
ENDMDL
MODEL 5
REMARK VINA RESULT:      -6.9      2.673      6.308
REMARK  Name = 
REMARK  17 active torsions:
REMARK  status: ('A' for Active; 'I' for Inactive)
REMARK    1  A    between atoms: C_1  and  C_2
REMARK    2  A    between atoms: C_2  and  C_3
REMARK    3  A    between atoms: C_2  and  C_4
REMARK    4  A    between atoms: C_2  and  N_5
REMARK    5  A    between atoms: C_6  and  C_8
REMARK    6  A    between atoms: N_20  and  C_21
REMARK    7  A    between atoms: C_21  and  C_22
REMARK    8  A    between atoms: C_22  and  C_24
REMARK    9  A    between atoms: C_22  and  O_55
REMARK   10  A    between atoms: C_24  and  C_26
REMARK   11  A    between atoms: C_24  and  N_33
REMARK   12  A    between atoms: C_26  and  C_27
REMARK   13  A    between atoms: C_34  and  C_36
REMARK   14  A    between atoms: C_36  and  C_38
REMARK   15  A    between atoms: C_36  and  N_42
REMARK   16  A    between atoms: C_38  and  C_39
REMARK   17  A    between atoms: C_43  and  C_45
REMARK                            x       y       z     vdW  Elec       q    Type
REMARK                         _______ _______ _______ _____ _____    ______ ____
ROOT
ATOM      1  C   UNL     1       5.281  -2.252  27.058  0.00  0.00    +0.107 C 
ENDROOT
BRANCH   1   2
ATOM      2  N   UNL     1       5.439  -0.894  27.610  0.00  0.00    -0.308 N 
ATOM      3  H   UNL     1       6.147  -0.276  27.215  0.00  0.00    +0.149 HD
ATOM      4  C   UNL     1       4.749  -0.461  28.716  0.00  0.00    +0.234 C 
ATOM      5  O   UNL     1       4.055  -1.196  29.395  0.00  0.00    -0.274 OA
BRANCH   4   6
ATOM      6  C   UNL     1       4.999   1.020  29.075  0.00  0.00    +0.168 C 
BRANCH   6   7
ATOM      7  N   UNL     1       5.369   1.704  27.835  0.00  0.00    -0.298 N 
ATOM      8  H   UNL     1       5.824   1.203  27.076  0.00  0.00    +0.150 HD
ATOM      9  C   UNL     1       4.884   2.959  27.541  0.00  0.00    +0.263 C 
ATOM     10  O   UNL     1       4.138   3.573  28.288  0.00  0.00    -0.269 OA
BRANCH   9  11
ATOM     11  C   UNL     1       5.299   3.525  26.215  0.00  0.00    +0.126 A 
ATOM     12  C   UNL     1       4.382   3.515  25.178  0.00  0.00    +0.033 A 
ATOM     13  C   UNL     1       4.764   4.051  23.949  0.00  0.00    +0.012 A 
ATOM     14  C   UNL     1       6.056   4.576  23.806  0.00  0.00    +0.000 A 
ATOM     15  C   UNL     1       6.932   4.532  24.915  0.00  0.00    +0.072 A 
ATOM     16  C   UNL     1       8.207   5.051  24.733  0.00  0.00    +0.028 A 
ATOM     17  C   UNL     1       8.616   5.617  23.512  0.00  0.00    +0.002 A 
ATOM     18  C   UNL     1       7.725   5.659  22.438  0.00  0.00    +0.001 A 
ATOM     19  C   UNL     1       6.455   5.135  22.582  0.00  0.00    +0.010 A 
ATOM     20  N   UNL     1       6.568   4.005  26.115  0.00  0.00    -0.242 NA
ENDBRANCH   9  11
ENDBRANCH   6   7
BRANCH   6  21
ATOM     21  C   UNL     1       6.079   1.074  30.141  0.00  0.00    +0.127 C 
BRANCH  21  22
ATOM     22  C   UNL     1       7.356   1.695  29.644  0.00  0.00    +0.213 C 
ATOM     23  N   UNL     1       8.323   0.781  29.334  0.00  0.00    -0.329 N 
ATOM     24  H   UNL     1       9.206   1.133  28.978  0.00  0.00    +0.145 HD
ATOM     25  H   UNL     1       8.169  -0.215  29.349  0.00  0.00    +0.145 HD
ATOM     26  O   UNL     1       7.569   2.895  29.568  0.00  0.00    -0.276 OA
ENDBRANCH  21  22
ENDBRANCH   6  21
ENDBRANCH   4   6
ENDBRANCH   1   2
BRANCH   1  27
ATOM     27  C   UNL     1       6.659  -2.752  26.585  0.00  0.00    +0.149 C 
BRANCH  27  28
ATOM     28  O   UNL     1       7.097  -3.806  27.469  0.00  0.00    -0.389 OA
ATOM     29  H   UNL     1       7.209  -4.603  26.924  0.00  0.00    +0.210 HD
ENDBRANCH  27  28
BRANCH  27  30
ATOM     30  C   UNL     1       7.845  -1.740  26.439  0.00  0.00    +0.118 C 
BRANCH  30  32
ATOM     31  C   UNL     1       7.138  -1.327  24.126  0.00  0.00    +0.143 C 
ATOM     32  N   UNL     1       8.255  -1.083  25.132  0.00  0.00    -0.289 NA
ATOM     33  C   UNL     1       8.413   0.378  25.416  0.00  0.00    +0.089 C 
ATOM     34  C   UNL     1       8.546   1.377  24.243  0.00  0.00    +0.006 C 
ATOM     35  C   UNL     1       7.369   1.249  23.284  0.00  0.00    -0.005 C 
ATOM     36  C   UNL     1       7.654   1.831  21.890  0.00  0.00    +0.004 C 
ATOM     37  C   UNL     1       8.940   1.267  21.313  0.00  0.00    +0.000 C 
ATOM     38  C   UNL     1      10.119   1.737  22.141  0.00  0.00    +0.000 C 
ATOM     39  C   UNL     1       9.968   1.515  23.649  0.00  0.00    +0.005 C 
ATOM     40  C   UNL     1       6.720  -0.144  23.196  0.00  0.00    +0.032 C 
BRANCH  31  43
ATOM     41  N   UNL     1       6.289  -3.663  23.340  0.00  0.00    -0.309 N 
ATOM     42  H   UNL     1       5.740  -3.629  24.188  0.00  0.00    +0.149 HD
ATOM     43  C   UNL     1       7.229  -2.657  23.223  0.00  0.00    +0.231 C 
ATOM     44  O   UNL     1       8.082  -2.735  22.328  0.00  0.00    -0.274 OA
BRANCH  41  46
ATOM     45  C   UNL     1       6.193  -4.796  21.090  0.00  0.00    +0.031 C 
ATOM     46  C   UNL     1       6.348  -4.983  22.615  0.00  0.00    +0.026 C 
ATOM     47  C   UNL     1       7.719  -5.639  22.887  0.00  0.00    +0.031 C 
ATOM     48  C   UNL     1       5.286  -6.027  23.053  0.00  0.00    +0.031 C 
ENDBRANCH  41  46
ENDBRANCH  31  43
ENDBRANCH  30  32
ENDBRANCH  27  30
ENDBRANCH   1  27
BRANCH   1  49
ATOM     49  C   UNL     1       4.111  -2.204  26.042  0.00  0.00    +0.060 C 
BRANCH  49  50
ATOM     50  C   UNL     1       3.531  -3.622  25.972  0.00  0.00    -0.046 A 
ATOM     51  C   UNL     1       3.490  -4.376  27.156  0.00  0.00    +0.004 A 
ATOM     52  C   UNL     1       2.658  -5.489  27.256  0.00  0.00    +0.000 A 
ATOM     53  C   UNL     1       1.911  -5.900  26.156  0.00  0.00    +0.000 A 
ATOM     54  C   UNL     1       2.016  -5.214  24.947  0.00  0.00    +0.000 A 
ATOM     55  C   UNL     1       2.824  -4.076  24.849  0.00  0.00    +0.004 A 
ENDBRANCH  49  50
ENDBRANCH   1  49
TORSDOF 14
ENDMDL
MODEL 6
REMARK VINA RESULT:      -6.9      2.409      7.535
REMARK  Name = 
REMARK  17 active torsions:
REMARK  status: ('A' for Active; 'I' for Inactive)
REMARK    1  A    between atoms: C_1  and  C_2
REMARK    2  A    between atoms: C_2  and  C_3
REMARK    3  A    between atoms: C_2  and  C_4
REMARK    4  A    between atoms: C_2  and  N_5
REMARK    5  A    between atoms: C_6  and  C_8
REMARK    6  A    between atoms: N_20  and  C_21
REMARK    7  A    between atoms: C_21  and  C_22
REMARK    8  A    between atoms: C_22  and  C_24
REMARK    9  A    between atoms: C_22  and  O_55
REMARK   10  A    between atoms: C_24  and  C_26
REMARK   11  A    between atoms: C_24  and  N_33
REMARK   12  A    between atoms: C_26  and  C_27
REMARK   13  A    between atoms: C_34  and  C_36
REMARK   14  A    between atoms: C_36  and  C_38
REMARK   15  A    between atoms: C_36  and  N_42
REMARK   16  A    between atoms: C_38  and  C_39
REMARK   17  A    between atoms: C_43  and  C_45
REMARK                            x       y       z     vdW  Elec       q    Type
REMARK                         _______ _______ _______ _____ _____    ______ ____
ROOT
ATOM      1  C   UNL     1       7.830  -3.001  25.814  0.00  0.00    +0.107 C 
ENDROOT
BRANCH   1   2
ATOM      2  N   UNL     1       6.967  -1.913  26.310  0.00  0.00    -0.308 N 
ATOM      3  H   UNL     1       7.064  -1.603  27.276  0.00  0.00    +0.149 HD
ATOM      4  C   UNL     1       5.952  -1.373  25.556  0.00  0.00    +0.234 C 
ATOM      5  O   UNL     1       5.609  -1.830  24.482  0.00  0.00    -0.274 OA
BRANCH   4   6
ATOM      6  C   UNL     1       5.228  -0.189  26.233  0.00  0.00    +0.168 C 
BRANCH   6   7
ATOM      7  N   UNL     1       5.917   1.032  25.811  0.00  0.00    -0.298 N 
ATOM      8  H   UNL     1       6.925   1.125  25.910  0.00  0.00    +0.150 HD
ATOM      9  C   UNL     1       5.284   1.975  25.032  0.00  0.00    +0.263 C 
ATOM     10  O   UNL     1       4.126   1.859  24.660  0.00  0.00    -0.269 OA
BRANCH   9  11
ATOM     11  C   UNL     1       6.119   3.153  24.626  0.00  0.00    +0.126 A 
ATOM     12  C   UNL     1       5.481   4.348  24.345  0.00  0.00    +0.033 A 
ATOM     13  C   UNL     1       6.258   5.446  23.979  0.00  0.00    +0.012 A 
ATOM     14  C   UNL     1       7.651   5.302  23.907  0.00  0.00    +0.000 A 
ATOM     15  C   UNL     1       8.217   4.040  24.198  0.00  0.00    +0.072 A 
ATOM     16  C   UNL     1       9.599   3.930  24.105  0.00  0.00    +0.028 A 
ATOM     17  C   UNL     1      10.412   5.024  23.758  0.00  0.00    +0.002 A 
ATOM     18  C   UNL     1       9.826   6.262  23.489  0.00  0.00    +0.001 A 
ATOM     19  C   UNL     1       8.454   6.398  23.556  0.00  0.00    +0.010 A 
ATOM     20  N   UNL     1       7.464   2.962  24.549  0.00  0.00    -0.242 NA
ENDBRANCH   9  11
ENDBRANCH   6   7
BRANCH   6  21
ATOM     21  C   UNL     1       5.256  -0.412  27.735  0.00  0.00    +0.127 C 
BRANCH  21  22
ATOM     22  C   UNL     1       5.876   0.739  28.482  0.00  0.00    +0.213 C 
ATOM     23  N   UNL     1       4.963   1.526  29.126  0.00  0.00    -0.329 N 
ATOM     24  H   UNL     1       5.316   2.312  29.662  0.00  0.00    +0.145 HD
ATOM     25  H   UNL     1       3.980   1.308  29.173  0.00  0.00    +0.145 HD
ATOM     26  O   UNL     1       7.065   1.012  28.487  0.00  0.00    -0.276 OA
ENDBRANCH  21  22
ENDBRANCH   6  21
ENDBRANCH   4   6
ENDBRANCH   1   2
BRANCH   1  27
ATOM     27  C   UNL     1       7.672  -4.215  26.748  0.00  0.00    +0.149 C 
BRANCH  27  28
ATOM     28  O   UNL     1       8.069  -5.405  26.031  0.00  0.00    -0.389 OA
ATOM     29  H   UNL     1       7.594  -5.395  25.183  0.00  0.00    +0.210 HD
ENDBRANCH  27  28
BRANCH  27  30
ATOM     30  C   UNL     1       6.285  -4.511  27.412  0.00  0.00    +0.118 C 
BRANCH  30  32
ATOM     31  C   UNL     1       4.584  -5.704  26.107  0.00  0.00    +0.143 C 
ATOM     32  N   UNL     1       4.947  -4.353  26.710  0.00  0.00    -0.289 NA
ATOM     33  C   UNL     1       3.958  -3.948  27.757  0.00  0.00    +0.089 C 
ATOM     34  C   UNL     1       2.445  -3.979  27.435  0.00  0.00    +0.006 C 
ATOM     35  C   UNL     1       2.021  -5.362  26.954  0.00  0.00    -0.005 C 
ATOM     36  C   UNL     1       0.697  -5.356  26.175  0.00  0.00    +0.004 C 
ATOM     37  C   UNL     1       0.725  -4.331  25.054  0.00  0.00    +0.000 C 
ATOM     38  C   UNL     1       0.798  -2.936  25.640  0.00  0.00    +0.000 C 
ATOM     39  C   UNL     1       1.901  -2.741  26.686  0.00  0.00    +0.005 C 
ATOM     40  C   UNL     1       3.102  -6.183  26.228  0.00  0.00    +0.032 C 
BRANCH  31  43
ATOM     41  N   UNL     1       5.747  -5.043  23.870  0.00  0.00    -0.309 N 
ATOM     42  H   UNL     1       5.650  -4.101  24.222  0.00  0.00    +0.149 HD
ATOM     43  C   UNL     1       5.080  -6.005  24.606  0.00  0.00    +0.231 C 
ATOM     44  O   UNL     1       4.969  -7.147  24.139  0.00  0.00    -0.274 OA
BRANCH  41  46
ATOM     45  C   UNL     1       6.065  -3.855  21.670  0.00  0.00    +0.031 C 
ATOM     46  C   UNL     1       6.158  -5.197  22.428  0.00  0.00    +0.026 C 
ATOM     47  C   UNL     1       7.622  -5.683  22.377  0.00  0.00    +0.031 C 
ATOM     48  C   UNL     1       5.339  -6.235  21.614  0.00  0.00    +0.031 C 
ENDBRANCH  41  46
ENDBRANCH  31  43
ENDBRANCH  30  32
ENDBRANCH  27  30
ENDBRANCH   1  27
BRANCH   1  49
ATOM     49  C   UNL     1       9.243  -2.405  25.592  0.00  0.00    +0.060 C 
BRANCH  49  50
ATOM     50  C   UNL     1       9.184  -1.604  24.286  0.00  0.00    -0.046 A 
ATOM     51  C   UNL     1       9.635  -0.275  24.307  0.00  0.00    +0.004 A 
ATOM     52  C   UNL     1       9.961   0.380  23.121  0.00  0.00    +0.000 A 
ATOM     53  C   UNL     1       9.778  -0.262  21.900  0.00  0.00    +0.000 A 
ATOM     54  C   UNL     1       9.243  -1.549  21.862  0.00  0.00    +0.000 A 
ATOM     55  C   UNL     1       8.944  -2.224  23.051  0.00  0.00    +0.004 A 
ENDBRANCH  49  50
ENDBRANCH   1  49
TORSDOF 14
ENDMDL
MODEL 7
REMARK VINA RESULT:      -6.7      2.499      6.435
REMARK  Name = 
REMARK  17 active torsions:
REMARK  status: ('A' for Active; 'I' for Inactive)
REMARK    1  A    between atoms: C_1  and  C_2
REMARK    2  A    between atoms: C_2  and  C_3
REMARK    3  A    between atoms: C_2  and  C_4
REMARK    4  A    between atoms: C_2  and  N_5
REMARK    5  A    between atoms: C_6  and  C_8
REMARK    6  A    between atoms: N_20  and  C_21
REMARK    7  A    between atoms: C_21  and  C_22
REMARK    8  A    between atoms: C_22  and  C_24
REMARK    9  A    between atoms: C_22  and  O_55
REMARK   10  A    between atoms: C_24  and  C_26
REMARK   11  A    between atoms: C_24  and  N_33
REMARK   12  A    between atoms: C_26  and  C_27
REMARK   13  A    between atoms: C_34  and  C_36
REMARK   14  A    between atoms: C_36  and  C_38
REMARK   15  A    between atoms: C_36  and  N_42
REMARK   16  A    between atoms: C_38  and  C_39
REMARK   17  A    between atoms: C_43  and  C_45
REMARK                            x       y       z     vdW  Elec       q    Type
REMARK                         _______ _______ _______ _____ _____    ______ ____
ROOT
ATOM      1  C   UNL     1       4.888   1.561  26.433  0.00  0.00    +0.107 C 
ENDROOT
BRANCH   1   2
ATOM      2  N   UNL     1       4.559   0.181  26.833  0.00  0.00    -0.308 N 
ATOM      3  H   UNL     1       4.344  -0.508  26.113  0.00  0.00    +0.149 HD
ATOM      4  C   UNL     1       4.416  -0.194  28.148  0.00  0.00    +0.234 C 
ATOM      5  O   UNL     1       4.426   0.602  29.068  0.00  0.00    -0.274 OA
BRANCH   4   6
ATOM      6  C   UNL     1       4.156  -1.703  28.348  0.00  0.00    +0.168 C 
BRANCH   6   7
ATOM      7  N   UNL     1       4.795  -2.400  27.231  0.00  0.00    -0.298 N 
ATOM      8  H   UNL     1       5.014  -1.912  26.366  0.00  0.00    +0.150 HD
ATOM      9  C   UNL     1       5.361  -3.644  27.397  0.00  0.00    +0.263 C 
ATOM     10  O   UNL     1       5.355  -4.238  28.465  0.00  0.00    -0.269 OA
BRANCH   9  11
ATOM     11  C   UNL     1       6.029  -4.224  26.186  0.00  0.00    +0.126 A 
ATOM     12  C   UNL     1       7.361  -4.592  26.280  0.00  0.00    +0.033 A 
ATOM     13  C   UNL     1       7.978  -5.141  25.158  0.00  0.00    +0.012 A 
ATOM     14  C   UNL     1       7.235  -5.300  23.980  0.00  0.00    +0.000 A 
ATOM     15  C   UNL     1       5.884  -4.884  23.970  0.00  0.00    +0.072 A 
ATOM     16  C   UNL     1       5.182  -5.047  22.782  0.00  0.00    +0.028 A 
ATOM     17  C   UNL     1       5.771  -5.616  21.639  0.00  0.00    +0.002 A 
ATOM     18  C   UNL     1       7.103  -6.030  21.682  0.00  0.00    +0.001 A 
ATOM     19  C   UNL     1       7.833  -5.866  22.843  0.00  0.00    +0.010 A 
ATOM     20  N   UNL     1       5.277  -4.341  25.059  0.00  0.00    -0.242 NA
ENDBRANCH   9  11
ENDBRANCH   6   7
BRANCH   6  21
ATOM     21  C   UNL     1       2.653  -1.919  28.416  0.00  0.00    +0.127 C 
BRANCH  21  22
ATOM     22  C   UNL     1       2.081  -2.431  27.123  0.00  0.00    +0.213 C 
ATOM     23  N   UNL     1       1.447  -3.636  27.245  0.00  0.00    -0.329 N 
ATOM     24  H   UNL     1       1.024  -4.031  26.412  0.00  0.00    +0.145 HD
ATOM     25  H   UNL     1       1.298  -4.095  28.130  0.00  0.00    +0.145 HD
ATOM     26  O   UNL     1       2.200  -1.884  26.038  0.00  0.00    -0.276 OA
ENDBRANCH  21  22
ENDBRANCH   6  21
ENDBRANCH   4   6
ENDBRANCH   1   2
BRANCH   1  27
ATOM     27  C   UNL     1       6.169   1.992  27.173  0.00  0.00    +0.149 C 
BRANCH  27  28
ATOM     28  O   UNL     1       6.331   3.420  27.024  0.00  0.00    -0.389 OA
ATOM     29  H   UNL     1       5.447   3.814  27.107  0.00  0.00    +0.210 HD
ENDBRANCH  27  28
BRANCH  27  30
ATOM     30  C   UNL     1       7.539   1.326  26.810  0.00  0.00    +0.118 C 
BRANCH  30  32
ATOM     31  C   UNL     1       9.172   1.429  24.982  0.00  0.00    +0.143 C 
ATOM     32  N   UNL     1       7.882   0.762  25.442  0.00  0.00    -0.289 NA
ATOM     33  C   UNL     1       8.073  -0.711  25.620  0.00  0.00    +0.089 C 
ATOM     34  C   UNL     1       8.708  -1.545  24.482  0.00  0.00    +0.006 C 
ATOM     35  C   UNL     1      10.068  -0.979  24.089  0.00  0.00    -0.005 C 
ATOM     36  C   UNL     1      10.531  -1.425  22.693  0.00  0.00    +0.004 C 
ATOM     37  C   UNL     1       9.463  -1.156  21.648  0.00  0.00    +0.000 C 
ATOM     38  C   UNL     1       8.255  -2.031  21.916  0.00  0.00    +0.000 C 
ATOM     39  C   UNL     1       7.739  -1.979  23.358  0.00  0.00    +0.005 C 
ATOM     40  C   UNL     1      10.250   0.536  24.290  0.00  0.00    +0.032 C 
BRANCH  31  43
ATOM     41  N   UNL     1       8.080   3.735  24.448  0.00  0.00    -0.309 N 
ATOM     42  H   UNL     1       7.326   3.391  25.028  0.00  0.00    +0.149 HD
ATOM     43  C   UNL     1       9.043   2.793  24.137  0.00  0.00    +0.231 C 
ATOM     44  O   UNL     1       9.886   3.061  23.271  0.00  0.00    -0.274 OA
BRANCH  41  46
ATOM     45  C   UNL     1       7.290   4.662  22.241  0.00  0.00    +0.031 C 
ATOM     46  C   UNL     1       7.817   4.990  23.655  0.00  0.00    +0.026 C 
ATOM     47  C   UNL     1       6.750   5.827  24.389  0.00  0.00    +0.031 C 
ATOM     48  C   UNL     1       9.042   5.928  23.475  0.00  0.00    +0.031 C 
ENDBRANCH  41  46
ENDBRANCH  31  43
ENDBRANCH  30  32
ENDBRANCH  27  30
ENDBRANCH   1  27
BRANCH   1  49
ATOM     49  C   UNL     1       3.603   2.410  26.602  0.00  0.00    +0.060 C 
BRANCH  49  50
ATOM     50  C   UNL     1       3.282   3.002  25.225  0.00  0.00    -0.046 A 
ATOM     51  C   UNL     1       4.290   2.978  24.247  0.00  0.00    +0.004 A 
ATOM     52  C   UNL     1       3.972   3.141  22.900  0.00  0.00    +0.000 A 
ATOM     53  C   UNL     1       2.657   3.396  22.523  0.00  0.00    +0.000 A 
ATOM     54  C   UNL     1       1.664   3.516  23.493  0.00  0.00    +0.000 A 
ATOM     55  C   UNL     1       1.970   3.320  24.845  0.00  0.00    +0.004 A 
ENDBRANCH  49  50
ENDBRANCH   1  49
TORSDOF 14
ENDMDL
MODEL 8
REMARK VINA RESULT:      -6.7      2.571      6.822
REMARK  Name = 
REMARK  17 active torsions:
REMARK  status: ('A' for Active; 'I' for Inactive)
REMARK    1  A    between atoms: C_1  and  C_2
REMARK    2  A    between atoms: C_2  and  C_3
REMARK    3  A    between atoms: C_2  and  C_4
REMARK    4  A    between atoms: C_2  and  N_5
REMARK    5  A    between atoms: C_6  and  C_8
REMARK    6  A    between atoms: N_20  and  C_21
REMARK    7  A    between atoms: C_21  and  C_22
REMARK    8  A    between atoms: C_22  and  C_24
REMARK    9  A    between atoms: C_22  and  O_55
REMARK   10  A    between atoms: C_24  and  C_26
REMARK   11  A    between atoms: C_24  and  N_33
REMARK   12  A    between atoms: C_26  and  C_27
REMARK   13  A    between atoms: C_34  and  C_36
REMARK   14  A    between atoms: C_36  and  C_38
REMARK   15  A    between atoms: C_36  and  N_42
REMARK   16  A    between atoms: C_38  and  C_39
REMARK   17  A    between atoms: C_43  and  C_45
REMARK                            x       y       z     vdW  Elec       q    Type
REMARK                         _______ _______ _______ _____ _____    ______ ____
ROOT
ATOM      1  C   UNL     1       7.062   0.385  26.738  0.00  0.00    +0.107 C 
ENDROOT
BRANCH   1   2
ATOM      2  N   UNL     1       5.841  -0.228  27.291  0.00  0.00    -0.308 N 
ATOM      3  H   UNL     1       5.790  -0.420  28.291  0.00  0.00    +0.149 HD
ATOM      4  C   UNL     1       4.806  -0.661  26.497  0.00  0.00    +0.234 C 
ATOM      5  O   UNL     1       4.869  -0.687  25.282  0.00  0.00    -0.274 OA
BRANCH   4   6
ATOM      6  C   UNL     1       3.588  -1.193  27.283  0.00  0.00    +0.168 C 
BRANCH   6   7
ATOM      7  N   UNL     1       2.966  -2.230  26.459  0.00  0.00    -0.298 N 
ATOM      8  H   UNL     1       2.783  -2.074  25.471  0.00  0.00    +0.150 HD
ATOM      9  C   UNL     1       2.853  -3.527  26.910  0.00  0.00    +0.263 C 
ATOM     10  O   UNL     1       3.248  -3.883  28.010  0.00  0.00    -0.269 OA
BRANCH   9  11
ATOM     11  C   UNL     1       2.243  -4.502  25.947  0.00  0.00    +0.126 A 
ATOM     12  C   UNL     1       1.493  -4.007  24.894  0.00  0.00    +0.033 A 
ATOM     13  C   UNL     1       0.937  -4.913  23.993  0.00  0.00    +0.012 A 
ATOM     14  C   UNL     1       1.153  -6.285  24.183  0.00  0.00    +0.000 A 
ATOM     15  C   UNL     1       1.920  -6.702  25.294  0.00  0.00    +0.072 A 
ATOM     16  C   UNL     1       2.104  -8.069  25.458  0.00  0.00    +0.028 A 
ATOM     17  C   UNL     1       1.573  -9.007  24.556  0.00  0.00    +0.002 A 
ATOM     18  C   UNL     1       0.830  -8.566  23.459  0.00  0.00    +0.001 A 
ATOM     19  C   UNL     1       0.615  -7.213  23.278  0.00  0.00    +0.010 A 
ATOM     20  N   UNL     1       2.461  -5.824  26.182  0.00  0.00    -0.242 NA
ENDBRANCH   9  11
ENDBRANCH   6   7
BRANCH   6  21
ATOM     21  C   UNL     1       2.667  -0.022  27.580  0.00  0.00    +0.127 C 
BRANCH  21  22
ATOM     22  C   UNL     1       1.214  -0.363  27.393  0.00  0.00    +0.213 C 
ATOM     23  N   UNL     1       0.527  -0.486  28.568  0.00  0.00    -0.329 N 
ATOM     24  H   UNL     1      -0.463  -0.701  28.513  0.00  0.00    +0.145 HD
ATOM     25  H   UNL     1       0.930  -0.280  29.468  0.00  0.00    +0.145 HD
ATOM     26  O   UNL     1       0.676  -0.578  26.318  0.00  0.00    -0.276 OA
ENDBRANCH  21  22
ENDBRANCH   6  21
ENDBRANCH   4   6
ENDBRANCH   1   2
BRANCH   1  27
ATOM     27  C   UNL     1       8.261  -0.519  27.080  0.00  0.00    +0.149 C 
BRANCH  27  28
ATOM     28  O   UNL     1       9.445   0.025  26.455  0.00  0.00    -0.389 OA
ATOM     29  H   UNL     1       9.150   0.504  25.663  0.00  0.00    +0.210 HD
ENDBRANCH  27  28
BRANCH  27  30
ATOM     30  C   UNL     1       8.209  -2.045  26.735  0.00  0.00    +0.118 C 
BRANCH  30  32
ATOM     31  C   UNL     1       8.761  -2.902  24.503  0.00  0.00    +0.143 C 
ATOM     32  N   UNL     1       7.612  -2.616  25.460  0.00  0.00    -0.289 NA
ATOM     33  C   UNL     1       6.904  -3.877  25.844  0.00  0.00    +0.089 C 
ATOM     34  C   UNL     1       6.429  -4.855  24.744  0.00  0.00    +0.006 C 
ATOM     35  C   UNL     1       7.589  -5.267  23.846  0.00  0.00    -0.005 C 
ATOM     36  C   UNL     1       7.138  -5.823  22.485  0.00  0.00    +0.004 C 
ATOM     37  C   UNL     1       6.176  -4.871  21.796  0.00  0.00    +0.000 C 
ATOM     38  C   UNL     1       4.888  -4.785  22.588  0.00  0.00    +0.000 C 
ATOM     39  C   UNL     1       5.076  -4.500  24.082  0.00  0.00    +0.005 C 
ATOM     40  C   UNL     1       8.720  -4.235  23.690  0.00  0.00    +0.032 C 
BRANCH  31  43
ATOM     41  N   UNL     1       8.548  -0.507  23.496  0.00  0.00    -0.309 N 
ATOM     42  H   UNL     1       7.641  -0.517  23.943  0.00  0.00    +0.149 HD
ATOM     43  C   UNL     1       9.204  -1.724  23.499  0.00  0.00    +0.231 C 
ATOM     44  O   UNL     1      10.217  -1.861  22.800  0.00  0.00    -0.274 OA
BRANCH  41  46
ATOM     45  C   UNL     1       7.578   1.507  22.331  0.00  0.00    +0.031 C 
ATOM     46  C   UNL     1       8.822   0.615  22.527  0.00  0.00    +0.026 C 
ATOM     47  C   UNL     1       9.963   1.489  23.090  0.00  0.00    +0.031 C 
ATOM     48  C   UNL     1       9.288   0.170  21.115  0.00  0.00    +0.031 C 
ENDBRANCH  41  46
ENDBRANCH  31  43
ENDBRANCH  30  32
ENDBRANCH  27  30
ENDBRANCH   1  27
BRANCH   1  49
ATOM     49  C   UNL     1       7.084   1.865  27.195  0.00  0.00    +0.060 C 
BRANCH  49  50
ATOM     50  C   UNL     1       6.998   2.720  25.925  0.00  0.00    -0.046 A 
ATOM     51  C   UNL     1       5.734   2.902  25.339  0.00  0.00    +0.004 A 
ATOM     52  C   UNL     1       5.518   3.940  24.436  0.00  0.00    +0.000 A 
ATOM     53  C   UNL     1       6.574   4.764  24.058  0.00  0.00    +0.000 A 
ATOM     54  C   UNL     1       7.853   4.534  24.562  0.00  0.00    +0.000 A 
ATOM     55  C   UNL     1       8.070   3.514  25.495  0.00  0.00    +0.004 A 
ENDBRANCH  49  50
ENDBRANCH   1  49
TORSDOF 14
ENDMDL
MODEL 9
REMARK VINA RESULT:      -6.7      2.829      5.752
REMARK  Name = 
REMARK  17 active torsions:
REMARK  status: ('A' for Active; 'I' for Inactive)
REMARK    1  A    between atoms: C_1  and  C_2
REMARK    2  A    between atoms: C_2  and  C_3
REMARK    3  A    between atoms: C_2  and  C_4
REMARK    4  A    between atoms: C_2  and  N_5
REMARK    5  A    between atoms: C_6  and  C_8
REMARK    6  A    between atoms: N_20  and  C_21
REMARK    7  A    between atoms: C_21  and  C_22
REMARK    8  A    between atoms: C_22  and  C_24
REMARK    9  A    between atoms: C_22  and  O_55
REMARK   10  A    between atoms: C_24  and  C_26
REMARK   11  A    between atoms: C_24  and  N_33
REMARK   12  A    between atoms: C_26  and  C_27
REMARK   13  A    between atoms: C_34  and  C_36
REMARK   14  A    between atoms: C_36  and  C_38
REMARK   15  A    between atoms: C_36  and  N_42
REMARK   16  A    between atoms: C_38  and  C_39
REMARK   17  A    between atoms: C_43  and  C_45
REMARK                            x       y       z     vdW  Elec       q    Type
REMARK                         _______ _______ _______ _____ _____    ______ ____
ROOT
ATOM      1  C   UNL     1       8.754  -1.002  23.938  0.00  0.00    +0.107 C 
ENDROOT
BRANCH   1   2
ATOM      2  N   UNL     1       7.698  -1.108  24.961  0.00  0.00    -0.308 N 
ATOM      3  H   UNL     1       6.742  -0.849  24.718  0.00  0.00    +0.149 HD
ATOM      4  C   UNL     1       7.967  -1.432  26.270  0.00  0.00    +0.234 C 
ATOM      5  O   UNL     1       9.097  -1.533  26.709  0.00  0.00    -0.274 OA
BRANCH   4   6
ATOM      6  C   UNL     1       6.709  -1.572  27.155  0.00  0.00    +0.168 C 
BRANCH   6   7
ATOM      7  N   UNL     1       5.861  -2.593  26.536  0.00  0.00    -0.298 N 
ATOM      8  H   UNL     1       5.221  -2.355  25.782  0.00  0.00    +0.150 HD
ATOM      9  C   UNL     1       6.085  -3.934  26.755  0.00  0.00    +0.263 C 
ATOM     10  O   UNL     1       6.981  -4.348  27.475  0.00  0.00    -0.269 OA
BRANCH   9  11
ATOM     11  C   UNL     1       5.178  -4.876  26.019  0.00  0.00    +0.126 A 
ATOM     12  C   UNL     1       5.362  -6.237  26.188  0.00  0.00    +0.033 A 
ATOM     13  C   UNL     1       4.512  -7.111  25.514  0.00  0.00    +0.012 A 
ATOM     14  C   UNL     1       3.506  -6.585  24.691  0.00  0.00    +0.000 A 
ATOM     15  C   UNL     1       3.399  -5.181  24.565  0.00  0.00    +0.072 A 
ATOM     16  C   UNL     1       2.398  -4.696  23.733  0.00  0.00    +0.028 A 
ATOM     17  C   UNL     1       1.512  -5.550  23.054  0.00  0.00    +0.002 A 
ATOM     18  C   UNL     1       1.633  -6.933  23.207  0.00  0.00    +0.001 A 
ATOM     19  C   UNL     1       2.628  -7.447  24.015  0.00  0.00    +0.010 A 
ATOM     20  N   UNL     1       4.230  -4.322  25.216  0.00  0.00    -0.242 NA
ENDBRANCH   9  11
ENDBRANCH   6   7
BRANCH   6  21
ATOM     21  C   UNL     1       6.043  -0.210  27.252  0.00  0.00    +0.127 C 
BRANCH  21  22
ATOM     22  C   UNL     1       4.851  -0.080  26.343  0.00  0.00    +0.213 C 
ATOM     23  N   UNL     1       5.009   0.863  25.367  0.00  0.00    -0.329 N 
ATOM     24  H   UNL     1       4.248   0.992  24.709  0.00  0.00    +0.145 HD
ATOM     25  H   UNL     1       5.873   1.360  25.212  0.00  0.00    +0.145 HD
ATOM     26  O   UNL     1       3.803  -0.694  26.467  0.00  0.00    -0.276 OA
ENDBRANCH  21  22
ENDBRANCH   6  21
ENDBRANCH   4   6
ENDBRANCH   1   2
BRANCH   1  27
ATOM     27  C   UNL     1       9.393   0.395  24.038  0.00  0.00    +0.149 C 
BRANCH  27  28
ATOM     28  O   UNL     1      10.781   0.244  24.411  0.00  0.00    -0.389 OA
ATOM     29  H   UNL     1      10.945   0.862  25.143  0.00  0.00    +0.210 HD
ENDBRANCH  27  28
BRANCH  27  30
ATOM     30  C   UNL     1       8.768   1.471  24.989  0.00  0.00    +0.118 C 
BRANCH  30  32
ATOM     31  C   UNL     1       7.899   3.760  25.159  0.00  0.00    +0.143 C 
ATOM     32  N   UNL     1       7.600   2.368  24.617  0.00  0.00    -0.289 NA
ATOM     33  C   UNL     1       7.523   2.377  23.123  0.00  0.00    +0.089 C 
ATOM     34  C   UNL     1       6.625   3.414  22.408  0.00  0.00    +0.006 C 
ATOM     35  C   UNL     1       6.992   4.832  22.830  0.00  0.00    -0.005 C 
ATOM     36  C   UNL     1       5.876   5.855  22.560  0.00  0.00    +0.004 C 
ATOM     37  C   UNL     1       4.555   5.393  23.151  0.00  0.00    +0.000 C 
ATOM     38  C   UNL     1       4.079   4.151  22.427  0.00  0.00    +0.000 C 
ATOM     39  C   UNL     1       5.128   3.039  22.311  0.00  0.00    +0.005 C 
ATOM     40  C   UNL     1       7.571   4.985  24.248  0.00  0.00    +0.032 C 
BRANCH  31  43
ATOM     41  N   UNL     1       6.506   3.274  27.307  0.00  0.00    -0.309 N 
ATOM     42  H   UNL     1       6.006   2.631  26.708  0.00  0.00    +0.149 HD
ATOM     43  C   UNL     1       7.395   4.102  26.649  0.00  0.00    +0.231 C 
ATOM     44  O   UNL     1       7.895   5.054  27.263  0.00  0.00    -0.274 OA
BRANCH  41  46
ATOM     45  C   UNL     1       6.955   3.462  29.781  0.00  0.00    +0.031 C 
ATOM     46  C   UNL     1       5.900   3.563  28.657  0.00  0.00    +0.026 C 
ATOM     47  C   UNL     1       5.333   4.998  28.650  0.00  0.00    +0.031 C 
ATOM     48  C   UNL     1       4.717   2.643  29.063  0.00  0.00    +0.031 C 
ENDBRANCH  41  46
ENDBRANCH  31  43
ENDBRANCH  30  32
ENDBRANCH  27  30
ENDBRANCH   1  27
BRANCH   1  49
ATOM     49  C   UNL     1       8.136  -1.449  22.589  0.00  0.00    +0.060 C 
BRANCH  49  50
ATOM     50  C   UNL     1       7.495  -2.821  22.831  0.00  0.00    -0.046 A 
ATOM     51  C   UNL     1       6.302  -3.118  22.153  0.00  0.00    +0.004 A 
ATOM     52  C   UNL     1       5.873  -4.438  22.024  0.00  0.00    +0.000 A 
ATOM     53  C   UNL     1       6.593  -5.465  22.627  0.00  0.00    +0.000 A 
ATOM     54  C   UNL     1       7.728  -5.171  23.381  0.00  0.00    +0.000 A 
ATOM     55  C   UNL     1       8.183  -3.852  23.487  0.00  0.00    +0.004 A 
ENDBRANCH  49  50
ENDBRANCH   1  49
TORSDOF 14
ENDMDL
