MODEL 1
REMARK VINA RESULT:      -6.0      0.000      0.000
REMARK  Name = 
REMARK  11 active torsions:
REMARK  status: ('A' for Active; 'I' for Inactive)
REMARK    1  A    between atoms: C_1  and  C_2
REMARK    2  A    between atoms: C_2  and  O_4
REMARK    3  A    between atoms: O_4  and  C_5
REMARK    4  A    between atoms: C_5  and  C_6
REMARK    5  A    between atoms: C_6  and  C_7
REMARK    6  A    between atoms: C_6  and  C_19
REMARK    7  A    between atoms: C_7  and  C_8
REMARK    8  A    between atoms: C_8  and  N_9
REMARK    9  A    between atoms: C_19  and  O_20
REMARK   10  A    between atoms: O_20  and  C_21
REMARK   11  A    between atoms: C_21  and  C_23
REMARK                            x       y       z     vdW  Elec       q    Type
REMARK                         _______ _______ _______ _____ _____    ______ ____
ROOT
ATOM      1  C   UNL     1       8.273  -2.558  24.969  0.00  0.00    +0.125 C 
ENDROOT
BRANCH   1   2
ATOM      2  N   UNL     1       8.956  -1.877  23.892  0.00  0.00    -0.315 N 
ATOM      3  C   UNL     1       8.519  -0.773  23.221  0.00  0.00    +0.165 A 
ATOM      4  C   UNL     1       9.490  -0.543  22.261  0.00  0.00    +0.126 A 
ATOM      5  C   UNL     1       9.277   0.553  21.441  0.00  0.00    +0.145 A 
ATOM      6  N   UNL     1       8.154   1.300  21.606  0.00  0.00    -0.221 NA
ATOM      7  C   UNL     1       7.272   0.945  22.560  0.00  0.00    +0.215 A 
ATOM      8  N   UNL     1       6.141   1.727  22.672  0.00  0.00    -0.327 N 
ATOM      9  H   UNL     1       5.771   1.675  23.609  0.00  0.00    +0.145 HD
ATOM     10  H   UNL     1       6.323   2.645  22.288  0.00  0.00    +0.145 HD
ATOM     11  N   UNL     1      10.486  -1.489  22.326  0.00  0.00    -0.233 NA
ATOM     12  N   UNL     1       7.398  -0.068  23.432  0.00  0.00    -0.195 NA
ATOM     13  C   UNL     1      10.122  -2.290  23.305  0.00  0.00    +0.201 A 
ENDBRANCH   1   2
BRANCH   1  14
ATOM     14  C   UNL     1       8.862  -3.940  25.261  0.00  0.00    +0.032 C 
BRANCH  14  15
ATOM     15  C   UNL     1       7.960  -5.127  24.840  0.00  0.00    +0.066 C 
BRANCH  15  16
ATOM     16  C   UNL     1       7.805  -5.163  23.307  0.00  0.00    +0.239 C 
BRANCH  16  17
ATOM     17  O   UNL     1       6.432  -5.319  22.914  0.00  0.00    -0.464 OA
BRANCH  17  19
ATOM     18  C   UNL     1       5.809  -3.207  22.097  0.00  0.00    +0.136 C 
ATOM     19  C   UNL     1       6.066  -4.647  21.786  0.00  0.00    +0.304 C 
ATOM     20  O   UNL     1       5.933  -5.148  20.679  0.00  0.00    -0.251 OA
ENDBRANCH  17  19
ENDBRANCH  16  17
ENDBRANCH  15  16
BRANCH  15  21
ATOM     21  C   UNL     1       6.552  -5.094  25.467  0.00  0.00    +0.239 C 
BRANCH  21  22
ATOM     22  O   UNL     1       6.364  -6.114  26.462  0.00  0.00    -0.464 OA
BRANCH  22  23
ATOM     23  C   UNL     1       6.396  -5.705  27.761  0.00  0.00    +0.304 C 
ATOM     24  C   UNL     1       5.761  -4.354  27.902  0.00  0.00    +0.136 C 
ATOM     25  O   UNL     1       6.914  -6.318  28.680  0.00  0.00    -0.251 OA
ENDBRANCH  22  23
ENDBRANCH  21  22
ENDBRANCH  15  21
ENDBRANCH  14  15
ENDBRANCH   1  14
TORSDOF 9
ENDMDL
MODEL 2
REMARK VINA RESULT:      -6.0      4.532      7.440
REMARK  Name = 
REMARK  11 active torsions:
REMARK  status: ('A' for Active; 'I' for Inactive)
REMARK    1  A    between atoms: C_1  and  C_2
REMARK    2  A    between atoms: C_2  and  O_4
REMARK    3  A    between atoms: O_4  and  C_5
REMARK    4  A    between atoms: C_5  and  C_6
REMARK    5  A    between atoms: C_6  and  C_7
REMARK    6  A    between atoms: C_6  and  C_19
REMARK    7  A    between atoms: C_7  and  C_8
REMARK    8  A    between atoms: C_8  and  N_9
REMARK    9  A    between atoms: C_19  and  O_20
REMARK   10  A    between atoms: O_20  and  C_21
REMARK   11  A    between atoms: C_21  and  C_23
REMARK                            x       y       z     vdW  Elec       q    Type
REMARK                         _______ _______ _______ _____ _____    ______ ____
ROOT
ATOM      1  C   UNL     1      10.092  -1.244  22.580  0.00  0.00    +0.125 C 
ENDROOT
BRANCH   1   2
ATOM      2  N   UNL     1       8.895  -1.992  22.891  0.00  0.00    -0.315 N 
ATOM      3  C   UNL     1       8.808  -3.090  23.695  0.00  0.00    +0.165 A 
ATOM      4  C   UNL     1       7.476  -3.463  23.630  0.00  0.00    +0.126 A 
ATOM      5  C   UNL     1       7.124  -4.571  24.386  0.00  0.00    +0.145 A 
ATOM      6  N   UNL     1       8.080  -5.217  25.105  0.00  0.00    -0.221 NA
ATOM      7  C   UNL     1       9.347  -4.766  25.052  0.00  0.00    +0.215 A 
ATOM      8  N   UNL     1      10.279  -5.471  25.786  0.00  0.00    -0.327 N 
ATOM      9  H   UNL     1      11.054  -4.874  26.033  0.00  0.00    +0.145 HD
ATOM     10  H   UNL     1       9.816  -5.973  26.531  0.00  0.00    +0.145 HD
ATOM     11  N   UNL     1       6.767  -2.631  22.795  0.00  0.00    -0.233 NA
ATOM     12  N   UNL     1       9.788  -3.686  24.389  0.00  0.00    -0.195 NA
ATOM     13  C   UNL     1       7.656  -1.770  22.350  0.00  0.00    +0.201 A 
ENDBRANCH   1   2
BRANCH   1  14
ATOM     14  C   UNL     1      10.419  -0.186  23.637  0.00  0.00    +0.032 C 
BRANCH  14  15
ATOM     15  C   UNL     1       9.816   1.213  23.356  0.00  0.00    +0.066 C 
BRANCH  15  16
ATOM     16  C   UNL     1       9.662   1.433  21.838  0.00  0.00    +0.239 C 
BRANCH  16  17
ATOM     17  O   UNL     1       8.282   1.466  21.442  0.00  0.00    -0.464 OA
BRANCH  17  19
ATOM     18  C   UNL     1       7.520   3.567  22.163  0.00  0.00    +0.136 C 
ATOM     19  C   UNL     1       7.437   2.081  22.315  0.00  0.00    +0.304 C 
ATOM     20  O   UNL     1       6.729   1.511  23.133  0.00  0.00    -0.251 OA
ENDBRANCH  17  19
ENDBRANCH  16  17
ENDBRANCH  15  16
BRANCH  15  21
ATOM     21  C   UNL     1      10.645   2.378  23.931  0.00  0.00    +0.239 C 
BRANCH  21  22
ATOM     22  O   UNL     1      11.040   3.327  22.926  0.00  0.00    -0.464 OA
BRANCH  22  23
ATOM     23  C   UNL     1      11.663   4.454  23.369  0.00  0.00    +0.304 C 
ATOM     24  C   UNL     1      10.655   5.465  23.826  0.00  0.00    +0.136 C 
ATOM     25  O   UNL     1      12.868   4.647  23.350  0.00  0.00    -0.251 OA
ENDBRANCH  22  23
ENDBRANCH  21  22
ENDBRANCH  15  21
ENDBRANCH  14  15
ENDBRANCH   1  14
TORSDOF 9
ENDMDL
MODEL 3
REMARK VINA RESULT:      -6.0      3.821      6.123
REMARK  Name = 
REMARK  11 active torsions:
REMARK  status: ('A' for Active; 'I' for Inactive)
REMARK    1  A    between atoms: C_1  and  C_2
REMARK    2  A    between atoms: C_2  and  O_4
REMARK    3  A    between atoms: O_4  and  C_5
REMARK    4  A    between atoms: C_5  and  C_6
REMARK    5  A    between atoms: C_6  and  C_7
REMARK    6  A    between atoms: C_6  and  C_19
REMARK    7  A    between atoms: C_7  and  C_8
REMARK    8  A    between atoms: C_8  and  N_9
REMARK    9  A    between atoms: C_19  and  O_20
REMARK   10  A    between atoms: O_20  and  C_21
REMARK   11  A    between atoms: C_21  and  C_23
REMARK                            x       y       z     vdW  Elec       q    Type
REMARK                         _______ _______ _______ _____ _____    ______ ____
ROOT
ATOM      1  C   UNL     1       6.354  -2.312  25.112  0.00  0.00    +0.125 C 
ENDROOT
BRANCH   1   2
ATOM      2  N   UNL     1       5.738  -3.314  24.272  0.00  0.00    -0.315 N 
ATOM      3  C   UNL     1       5.371  -4.573  24.644  0.00  0.00    +0.165 A 
ATOM      4  C   UNL     1       4.882  -5.150  23.484  0.00  0.00    +0.126 A 
ATOM      5  C   UNL     1       4.428  -6.454  23.605  0.00  0.00    +0.145 A 
ATOM      6  N   UNL     1       4.508  -7.077  24.811  0.00  0.00    -0.221 NA
ATOM      7  C   UNL     1       5.037  -6.410  25.853  0.00  0.00    +0.215 A 
ATOM      8  N   UNL     1       5.111  -7.096  27.047  0.00  0.00    -0.327 N 
ATOM      9  H   UNL     1       5.110  -6.451  27.823  0.00  0.00    +0.145 HD
ATOM     10  H   UNL     1       4.427  -7.841  27.054  0.00  0.00    +0.145 HD
ATOM     11  N   UNL     1       4.962  -4.277  22.424  0.00  0.00    -0.233 NA
ATOM     12  N   UNL     1       5.468  -5.138  25.856  0.00  0.00    -0.195 NA
ATOM     13  C   UNL     1       5.502  -3.189  22.929  0.00  0.00    +0.201 A 
ENDBRANCH   1   2
BRANCH   1  14
ATOM     14  C   UNL     1       7.318  -1.406  24.341  0.00  0.00    +0.032 C 
BRANCH  14  15
ATOM     15  C   UNL     1       8.814  -1.620  24.681  0.00  0.00    +0.066 C 
BRANCH  15  16
ATOM     16  C   UNL     1       9.570  -0.278  24.633  0.00  0.00    +0.239 C 
BRANCH  16  17
ATOM     17  O   UNL     1      10.357  -0.152  23.438  0.00  0.00    -0.464 OA
BRANCH  17  19
ATOM     18  C   UNL     1       9.304   0.410  21.416  0.00  0.00    +0.136 C 
ATOM     19  C   UNL     1      10.030   0.895  22.630  0.00  0.00    +0.304 C 
ATOM     20  O   UNL     1      10.313   2.066  22.842  0.00  0.00    -0.251 OA
ENDBRANCH  17  19
ENDBRANCH  16  17
ENDBRANCH  15  16
BRANCH  15  21
ATOM     21  C   UNL     1       9.532  -2.612  23.746  0.00  0.00    +0.239 C 
BRANCH  21  22
ATOM     22  O   UNL     1      10.039  -3.764  24.441  0.00  0.00    -0.464 OA
BRANCH  22  23
ATOM     23  C   UNL     1       9.135  -4.738  24.738  0.00  0.00    +0.304 C 
ATOM     24  C   UNL     1       8.971  -4.866  26.223  0.00  0.00    +0.136 C 
ATOM     25  O   UNL     1       8.572  -5.450  23.923  0.00  0.00    -0.251 OA
ENDBRANCH  22  23
ENDBRANCH  21  22
ENDBRANCH  15  21
ENDBRANCH  14  15
ENDBRANCH   1  14
TORSDOF 9
ENDMDL
MODEL 4
REMARK VINA RESULT:      -6.0      3.497      6.810
REMARK  Name = 
REMARK  11 active torsions:
REMARK  status: ('A' for Active; 'I' for Inactive)
REMARK    1  A    between atoms: C_1  and  C_2
REMARK    2  A    between atoms: C_2  and  O_4
REMARK    3  A    between atoms: O_4  and  C_5
REMARK    4  A    between atoms: C_5  and  C_6
REMARK    5  A    between atoms: C_6  and  C_7
REMARK    6  A    between atoms: C_6  and  C_19
REMARK    7  A    between atoms: C_7  and  C_8
REMARK    8  A    between atoms: C_8  and  N_9
REMARK    9  A    between atoms: C_19  and  O_20
REMARK   10  A    between atoms: O_20  and  C_21
REMARK   11  A    between atoms: C_21  and  C_23
REMARK                            x       y       z     vdW  Elec       q    Type
REMARK                         _______ _______ _______ _____ _____    ______ ____
ROOT
ATOM      1  C   UNL     1       8.839  -1.970  22.087  0.00  0.00    +0.125 C 
ENDROOT
BRANCH   1   2
ATOM      2  N   UNL     1       7.939  -2.377  23.142  0.00  0.00    -0.315 N 
ATOM      3  C   UNL     1       8.176  -3.325  24.093  0.00  0.00    +0.165 A 
ATOM      4  C   UNL     1       7.003  -3.381  24.828  0.00  0.00    +0.126 A 
ATOM      5  C   UNL     1       6.996  -4.282  25.881  0.00  0.00    +0.145 A 
ATOM      6  N   UNL     1       8.095  -5.048  26.110  0.00  0.00    -0.221 NA
ATOM      7  C   UNL     1       9.160  -4.915  25.296  0.00  0.00    +0.215 A 
ATOM      8  N   UNL     1      10.241  -5.730  25.563  0.00  0.00    -0.327 N 
ATOM      9  H   UNL     1      11.091  -5.307  25.221  0.00  0.00    +0.145 HD
ATOM     10  H   UNL     1      10.216  -6.021  26.530  0.00  0.00    +0.145 HD
ATOM     11  N   UNL     1       6.064  -2.507  24.332  0.00  0.00    -0.233 NA
ATOM     12  N   UNL     1       9.288  -4.051  24.278  0.00  0.00    -0.195 NA
ATOM     13  C   UNL     1       6.652  -1.934  23.304  0.00  0.00    +0.201 A 
ENDBRANCH   1   2
BRANCH   1  14
ATOM     14  C   UNL     1      10.125  -1.333  22.620  0.00  0.00    +0.032 C 
BRANCH  14  15
ATOM     15  C   UNL     1      10.134   0.215  22.596  0.00  0.00    +0.066 C 
BRANCH  15  16
ATOM     16  C   UNL     1       9.787   0.775  23.990  0.00  0.00    +0.239 C 
BRANCH  16  17
ATOM     17  O   UNL     1       9.986  -0.204  25.021  0.00  0.00    -0.464 OA
BRANCH  17  19
ATOM     18  C   UNL     1       7.948   0.746  25.698  0.00  0.00    +0.136 C 
ATOM     19  C   UNL     1       8.965  -0.330  25.914  0.00  0.00    +0.304 C 
ATOM     20  O   UNL     1       8.895  -1.179  26.792  0.00  0.00    -0.251 OA
ENDBRANCH  17  19
ENDBRANCH  16  17
ENDBRANCH  15  16
BRANCH  15  21
ATOM     21  C   UNL     1       9.159   0.830  21.573  0.00  0.00    +0.239 C 
BRANCH  21  22
ATOM     22  O   UNL     1       8.807   2.188  21.888  0.00  0.00    -0.464 OA
BRANCH  22  23
ATOM     23  C   UNL     1       7.484   2.439  22.090  0.00  0.00    +0.304 C 
ATOM     24  C   UNL     1       7.237   3.916  22.171  0.00  0.00    +0.136 C 
ATOM     25  O   UNL     1       6.619   1.591  22.240  0.00  0.00    -0.251 OA
ENDBRANCH  22  23
ENDBRANCH  21  22
ENDBRANCH  15  21
ENDBRANCH  14  15
ENDBRANCH   1  14
TORSDOF 9
ENDMDL
MODEL 5
REMARK VINA RESULT:      -6.0      3.301      4.645
REMARK  Name = 
REMARK  11 active torsions:
REMARK  status: ('A' for Active; 'I' for Inactive)
REMARK    1  A    between atoms: C_1  and  C_2
REMARK    2  A    between atoms: C_2  and  O_4
REMARK    3  A    between atoms: O_4  and  C_5
REMARK    4  A    between atoms: C_5  and  C_6
REMARK    5  A    between atoms: C_6  and  C_7
REMARK    6  A    between atoms: C_6  and  C_19
REMARK    7  A    between atoms: C_7  and  C_8
REMARK    8  A    between atoms: C_8  and  N_9
REMARK    9  A    between atoms: C_19  and  O_20
REMARK   10  A    between atoms: O_20  and  C_21
REMARK   11  A    between atoms: C_21  and  C_23
REMARK                            x       y       z     vdW  Elec       q    Type
REMARK                         _______ _______ _______ _____ _____    ______ ____
ROOT
ATOM      1  C   UNL     1      10.432   0.636  23.324  0.00  0.00    +0.125 C 
ENDROOT
BRANCH   1   2
ATOM      2  N   UNL     1       9.762   1.901  23.529  0.00  0.00    -0.315 N 
ATOM      3  C   UNL     1      10.339   3.136  23.534  0.00  0.00    +0.165 A 
ATOM      4  C   UNL     1       9.300   4.004  23.822  0.00  0.00    +0.126 A 
ATOM      5  C   UNL     1       9.635   5.348  23.874  0.00  0.00    +0.145 A 
ATOM      6  N   UNL     1      10.927   5.720  23.670  0.00  0.00    -0.221 NA
ATOM      7  C   UNL     1      11.847   4.767  23.431  0.00  0.00    +0.215 A 
ATOM      8  N   UNL     1      13.145   5.199  23.249  0.00  0.00    -0.327 N 
ATOM      9  H   UNL     1      13.659   4.536  22.689  0.00  0.00    +0.145 HD
ATOM     10  H   UNL     1      13.142   6.165  22.952  0.00  0.00    +0.145 HD
ATOM     11  N   UNL     1       8.120   3.322  24.007  0.00  0.00    -0.233 NA
ATOM     12  N   UNL     1      11.626   3.448  23.319  0.00  0.00    -0.195 NA
ATOM     13  C   UNL     1       8.438   2.056  23.845  0.00  0.00    +0.201 A 
ENDBRANCH   1   2
BRANCH   1  14
ATOM     14  C   UNL     1       9.834  -0.167  22.166  0.00  0.00    +0.032 C 
BRANCH  14  15
ATOM     15  C   UNL     1       9.453  -1.625  22.523  0.00  0.00    +0.066 C 
BRANCH  15  16
ATOM     16  C   UNL     1       7.956  -1.870  22.244  0.00  0.00    +0.239 C 
BRANCH  16  17
ATOM     17  O   UNL     1       7.650  -3.271  22.166  0.00  0.00    -0.464 OA
BRANCH  17  19
ATOM     18  C   UNL     1       6.127  -4.521  23.444  0.00  0.00    +0.136 C 
ATOM     19  C   UNL     1       6.332  -3.590  22.290  0.00  0.00    +0.304 C 
ATOM     20  O   UNL     1       5.439  -3.203  21.550  0.00  0.00    -0.251 OA
ENDBRANCH  17  19
ENDBRANCH  16  17
ENDBRANCH  15  16
BRANCH  15  21
ATOM     21  C   UNL     1       9.737  -2.005  23.989  0.00  0.00    +0.239 C 
BRANCH  21  22
ATOM     22  O   UNL     1      10.241  -3.344  24.128  0.00  0.00    -0.464 OA
BRANCH  22  23
ATOM     23  C   UNL     1       9.468  -4.211  24.839  0.00  0.00    +0.304 C 
ATOM     24  C   UNL     1       8.760  -3.493  25.949  0.00  0.00    +0.136 C 
ATOM     25  O   UNL     1       9.395  -5.413  24.645  0.00  0.00    -0.251 OA
ENDBRANCH  22  23
ENDBRANCH  21  22
ENDBRANCH  15  21
ENDBRANCH  14  15
ENDBRANCH   1  14
TORSDOF 9
ENDMDL
MODEL 6
REMARK VINA RESULT:      -6.0      1.775      3.438
REMARK  Name = 
REMARK  11 active torsions:
REMARK  status: ('A' for Active; 'I' for Inactive)
REMARK    1  A    between atoms: C_1  and  C_2
REMARK    2  A    between atoms: C_2  and  O_4
REMARK    3  A    between atoms: O_4  and  C_5
REMARK    4  A    between atoms: C_5  and  C_6
REMARK    5  A    between atoms: C_6  and  C_7
REMARK    6  A    between atoms: C_6  and  C_19
REMARK    7  A    between atoms: C_7  and  C_8
REMARK    8  A    between atoms: C_8  and  N_9
REMARK    9  A    between atoms: C_19  and  O_20
REMARK   10  A    between atoms: O_20  and  C_21
REMARK   11  A    between atoms: C_21  and  C_23
REMARK                            x       y       z     vdW  Elec       q    Type
REMARK                         _______ _______ _______ _____ _____    ______ ____
ROOT
ATOM      1  C   UNL     1       7.800  -2.227  25.194  0.00  0.00    +0.125 C 
ENDROOT
BRANCH   1   2
ATOM      2  N   UNL     1       8.657  -1.768  24.123  0.00  0.00    -0.315 N 
ATOM      3  C   UNL     1       8.454  -0.679  23.329  0.00  0.00    +0.165 A 
ATOM      4  C   UNL     1       9.513  -0.698  22.436  0.00  0.00    +0.126 A 
ATOM      5  C   UNL     1       9.539   0.335  21.512  0.00  0.00    +0.145 A 
ATOM      6  N   UNL     1       8.544   1.262  21.521  0.00  0.00    -0.221 NA
ATOM      7  C   UNL     1       7.554   1.142  22.425  0.00  0.00    +0.215 A 
ATOM      8  N   UNL     1       6.562   2.100  22.377  0.00  0.00    -0.327 N 
ATOM      9  H   UNL     1       6.125   2.197  23.282  0.00  0.00    +0.145 HD
ATOM     10  H   UNL     1       6.917   2.936  21.935  0.00  0.00    +0.145 HD
ATOM     11  N   UNL     1      10.334  -1.778  22.662  0.00  0.00    -0.233 NA
ATOM     12  N   UNL     1       7.453   0.211  23.386  0.00  0.00    -0.195 NA
ATOM     13  C   UNL     1       9.778  -2.413  23.671  0.00  0.00    +0.201 A 
ENDBRANCH   1   2
BRANCH   1  14
ATOM     14  C   UNL     1       6.913  -3.403  24.777  0.00  0.00    +0.032 C 
BRANCH  14  15
ATOM     15  C   UNL     1       5.606  -2.998  24.051  0.00  0.00    +0.066 C 
BRANCH  15  16
ATOM     16  C   UNL     1       4.451  -3.928  24.473  0.00  0.00    +0.239 C 
BRANCH  16  17
ATOM     17  O   UNL     1       4.917  -5.249  24.786  0.00  0.00    -0.464 OA
BRANCH  17  19
ATOM     18  C   UNL     1       3.219  -5.728  23.236  0.00  0.00    +0.136 C 
ATOM     19  C   UNL     1       4.231  -6.268  24.196  0.00  0.00    +0.304 C 
ATOM     20  O   UNL     1       4.390  -7.457  24.434  0.00  0.00    -0.251 OA
ENDBRANCH  17  19
ENDBRANCH  16  17
ENDBRANCH  15  16
BRANCH  15  21
ATOM     21  C   UNL     1       5.710  -3.025  22.514  0.00  0.00    +0.239 C 
BRANCH  21  22
ATOM     22  O   UNL     1       6.833  -3.790  22.047  0.00  0.00    -0.464 OA
BRANCH  22  23
ATOM     23  C   UNL     1       6.550  -4.989  21.467  0.00  0.00    +0.304 C 
ATOM     24  C   UNL     1       7.291  -6.094  22.160  0.00  0.00    +0.136 C 
ATOM     25  O   UNL     1       5.840  -5.149  20.488  0.00  0.00    -0.251 OA
ENDBRANCH  22  23
ENDBRANCH  21  22
ENDBRANCH  15  21
ENDBRANCH  14  15
ENDBRANCH   1  14
TORSDOF 9
ENDMDL
MODEL 7
REMARK VINA RESULT:      -6.0      4.164      6.965
REMARK  Name = 
REMARK  11 active torsions:
REMARK  status: ('A' for Active; 'I' for Inactive)
REMARK    1  A    between atoms: C_1  and  C_2
REMARK    2  A    between atoms: C_2  and  O_4
REMARK    3  A    between atoms: O_4  and  C_5
REMARK    4  A    between atoms: C_5  and  C_6
REMARK    5  A    between atoms: C_6  and  C_7
REMARK    6  A    between atoms: C_6  and  C_19
REMARK    7  A    between atoms: C_7  and  C_8
REMARK    8  A    between atoms: C_8  and  N_9
REMARK    9  A    between atoms: C_19  and  O_20
REMARK   10  A    between atoms: O_20  and  C_21
REMARK   11  A    between atoms: C_21  and  C_23
REMARK                            x       y       z     vdW  Elec       q    Type
REMARK                         _______ _______ _______ _____ _____    ______ ____
ROOT
ATOM      1  C   UNL     1       9.982  -2.434  23.642  0.00  0.00    +0.125 C 
ENDROOT
BRANCH   1   2
ATOM      2  N   UNL     1       8.652  -2.974  23.466  0.00  0.00    -0.315 N 
ATOM      3  C   UNL     1       8.018  -3.857  24.289  0.00  0.00    +0.165 A 
ATOM      4  C   UNL     1       6.805  -4.102  23.667  0.00  0.00    +0.126 A 
ATOM      5  C   UNL     1       5.957  -4.978  24.326  0.00  0.00    +0.145 A 
ATOM      6  N   UNL     1       6.362  -5.545  25.493  0.00  0.00    -0.221 NA
ATOM      7  C   UNL     1       7.584  -5.245  25.971  0.00  0.00    +0.215 A 
ATOM      8  N   UNL     1       7.950  -5.863  27.149  0.00  0.00    -0.327 N 
ATOM      9  H   UNL     1       8.636  -5.307  27.638  0.00  0.00    +0.145 HD
ATOM     10  H   UNL     1       7.122  -6.143  27.658  0.00  0.00    +0.145 HD
ATOM     11  N   UNL     1       6.703  -3.404  22.486  0.00  0.00    -0.233 NA
ATOM     12  N   UNL     1       8.464  -4.383  25.439  0.00  0.00    -0.195 NA
ATOM     13  C   UNL     1       7.841  -2.753  22.385  0.00  0.00    +0.201 A 
ENDBRANCH   1   2
BRANCH   1  14
ATOM     14  C   UNL     1      10.280  -1.276  22.686  0.00  0.00    +0.032 C 
BRANCH  14  15
ATOM     15  C   UNL     1      10.518   0.087  23.382  0.00  0.00    +0.066 C 
BRANCH  15  16
ATOM     16  C   UNL     1      10.214  -0.021  24.889  0.00  0.00    +0.239 C 
BRANCH  16  17
ATOM     17  O   UNL     1       8.970   0.611  25.229  0.00  0.00    -0.464 OA
BRANCH  17  19
ATOM     18  C   UNL     1       8.376  -0.869  26.953  0.00  0.00    +0.136 C 
ATOM     19  C   UNL     1       7.986  -0.227  25.659  0.00  0.00    +0.304 C 
ATOM     20  O   UNL     1       6.942  -0.454  25.064  0.00  0.00    -0.251 OA
ENDBRANCH  17  19
ENDBRANCH  16  17
ENDBRANCH  15  16
BRANCH  15  21
ATOM     21  C   UNL     1       9.675   1.240  22.802  0.00  0.00    +0.239 C 
BRANCH  21  22
ATOM     22  O   UNL     1      10.480   2.338  22.340  0.00  0.00    -0.464 OA
BRANCH  22  23
ATOM     23  C   UNL     1      10.728   3.329  23.241  0.00  0.00    +0.304 C 
ATOM     24  C   UNL     1       9.459   3.747  23.923  0.00  0.00    +0.136 C 
ATOM     25  O   UNL     1      11.814   3.849  23.437  0.00  0.00    -0.251 OA
ENDBRANCH  22  23
ENDBRANCH  21  22
ENDBRANCH  15  21
ENDBRANCH  14  15
ENDBRANCH   1  14
TORSDOF 9
ENDMDL
MODEL 8
REMARK VINA RESULT:      -5.9      1.146      3.783
REMARK  Name = 
REMARK  11 active torsions:
REMARK  status: ('A' for Active; 'I' for Inactive)
REMARK    1  A    between atoms: C_1  and  C_2
REMARK    2  A    between atoms: C_2  and  O_4
REMARK    3  A    between atoms: O_4  and  C_5
REMARK    4  A    between atoms: C_5  and  C_6
REMARK    5  A    between atoms: C_6  and  C_7
REMARK    6  A    between atoms: C_6  and  C_19
REMARK    7  A    between atoms: C_7  and  C_8
REMARK    8  A    between atoms: C_8  and  N_9
REMARK    9  A    between atoms: C_19  and  O_20
REMARK   10  A    between atoms: O_20  and  C_21
REMARK   11  A    between atoms: C_21  and  C_23
REMARK                            x       y       z     vdW  Elec       q    Type
REMARK                         _______ _______ _______ _____ _____    ______ ____
ROOT
ATOM      1  C   UNL     1       8.275  -2.016  25.593  0.00  0.00    +0.125 C 
ENDROOT
BRANCH   1   2
ATOM      2  N   UNL     1       8.966  -1.712  24.360  0.00  0.00    -0.315 N 
ATOM      3  C   UNL     1       8.683  -0.693  23.499  0.00  0.00    +0.165 A 
ATOM      4  C   UNL     1       9.582  -0.858  22.458  0.00  0.00    +0.126 A 
ATOM      5  C   UNL     1       9.501   0.079  21.440  0.00  0.00    +0.145 A 
ATOM      6  N   UNL     1       8.561   1.058  21.509  0.00  0.00    -0.221 NA
ATOM      7  C   UNL     1       7.726   1.083  22.564  0.00  0.00    +0.215 A 
ATOM      8  N   UNL     1       6.780   2.087  22.574  0.00  0.00    -0.327 N 
ATOM      9  H   UNL     1       6.499   2.295  23.521  0.00  0.00    +0.145 HD
ATOM     10  H   UNL     1       7.094   2.856  21.997  0.00  0.00    +0.145 HD
ATOM     11  N   UNL     1      10.382  -1.958  22.663  0.00  0.00    -0.233 NA
ATOM     12  N   UNL     1       7.742   0.255  23.620  0.00  0.00    -0.195 NA
ATOM     13  C   UNL     1       9.970  -2.461  23.807  0.00  0.00    +0.201 A 
ENDBRANCH   1   2
BRANCH   1  14
ATOM     14  C   UNL     1       8.354  -3.499  25.964  0.00  0.00    +0.032 C 
BRANCH  14  15
ATOM     15  C   UNL     1       6.982  -4.211  26.068  0.00  0.00    +0.066 C 
BRANCH  15  16
ATOM     16  C   UNL     1       7.063  -5.385  27.064  0.00  0.00    +0.239 C 
BRANCH  16  17
ATOM     17  O   UNL     1       6.109  -6.413  26.755  0.00  0.00    -0.464 OA
BRANCH  17  19
ATOM     18  C   UNL     1       3.936  -6.222  27.626  0.00  0.00    +0.136 C 
ATOM     19  C   UNL     1       5.308  -6.797  27.788  0.00  0.00    +0.304 C 
ATOM     20  O   UNL     1       5.659  -7.488  28.734  0.00  0.00    -0.251 OA
ENDBRANCH  17  19
ENDBRANCH  16  17
ENDBRANCH  15  16
BRANCH  15  21
ATOM     21  C   UNL     1       6.457  -4.754  24.725  0.00  0.00    +0.239 C 
BRANCH  21  22
ATOM     22  O   UNL     1       7.501  -4.944  23.756  0.00  0.00    -0.464 OA
BRANCH  22  23
ATOM     23  C   UNL     1       7.198  -4.625  22.467  0.00  0.00    +0.304 C 
ATOM     24  C   UNL     1       7.039  -5.868  21.643  0.00  0.00    +0.136 C 
ATOM     25  O   UNL     1       7.117  -3.493  22.021  0.00  0.00    -0.251 OA
ENDBRANCH  22  23
ENDBRANCH  21  22
ENDBRANCH  15  21
ENDBRANCH  14  15
ENDBRANCH   1  14
TORSDOF 9
ENDMDL
MODEL 9
REMARK VINA RESULT:      -5.9      2.999      6.046
REMARK  Name = 
REMARK  11 active torsions:
REMARK  status: ('A' for Active; 'I' for Inactive)
REMARK    1  A    between atoms: C_1  and  C_2
REMARK    2  A    between atoms: C_2  and  O_4
REMARK    3  A    between atoms: O_4  and  C_5
REMARK    4  A    between atoms: C_5  and  C_6
REMARK    5  A    between atoms: C_6  and  C_7
REMARK    6  A    between atoms: C_6  and  C_19
REMARK    7  A    between atoms: C_7  and  C_8
REMARK    8  A    between atoms: C_8  and  N_9
REMARK    9  A    between atoms: C_19  and  O_20
REMARK   10  A    between atoms: O_20  and  C_21
REMARK   11  A    between atoms: C_21  and  C_23
REMARK                            x       y       z     vdW  Elec       q    Type
REMARK                         _______ _______ _______ _____ _____    ______ ____
ROOT
ATOM      1  C   UNL     1       7.472  -1.092  24.673  0.00  0.00    +0.125 C 
ENDROOT
BRANCH   1   2
ATOM      2  N   UNL     1       6.925  -2.016  25.640  0.00  0.00    -0.315 N 
ATOM      3  C   UNL     1       7.428  -3.239  25.972  0.00  0.00    +0.165 A 
ATOM      4  C   UNL     1       6.527  -3.747  26.894  0.00  0.00    +0.126 A 
ATOM      5  C   UNL     1       6.828  -5.001  27.401  0.00  0.00    +0.145 A 
ATOM      6  N   UNL     1       7.940  -5.648  26.961  0.00  0.00    -0.221 NA
ATOM      7  C   UNL     1       8.714  -5.052  26.034  0.00  0.00    +0.215 A 
ATOM      8  N   UNL     1       9.819  -5.761  25.611  0.00  0.00    -0.327 N 
ATOM      9  H   UNL     1      10.531  -5.130  25.275  0.00  0.00    +0.145 HD
ATOM     10  H   UNL     1      10.082  -6.434  26.317  0.00  0.00    +0.145 HD
ATOM     11  N   UNL     1       5.489  -2.870  27.109  0.00  0.00    -0.233 NA
ATOM     12  N   UNL     1       8.539  -3.829  25.509  0.00  0.00    -0.195 NA
ATOM     13  C   UNL     1       5.749  -1.848  26.322  0.00  0.00    +0.201 A 
ENDBRANCH   1   2
BRANCH   1  14
ATOM     14  C   UNL     1       6.898  -1.299  23.269  0.00  0.00    +0.032 C 
BRANCH  14  15
ATOM     15  C   UNL     1       7.859  -2.003  22.278  0.00  0.00    +0.066 C 
BRANCH  15  16
ATOM     16  C   UNL     1       7.569  -3.516  22.235  0.00  0.00    +0.239 C 
BRANCH  16  17
ATOM     17  O   UNL     1       6.258  -3.822  22.737  0.00  0.00    -0.464 OA
BRANCH  17  19
ATOM     18  C   UNL     1       6.279  -5.955  21.755  0.00  0.00    +0.136 C 
ATOM     19  C   UNL     1       6.018  -5.140  22.982  0.00  0.00    +0.304 C 
ATOM     20  O   UNL     1       5.615  -5.599  24.041  0.00  0.00    -0.251 OA
ENDBRANCH  17  19
ENDBRANCH  16  17
ENDBRANCH  15  16
BRANCH  15  21
ATOM     21  C   UNL     1       9.351  -1.807  22.608  0.00  0.00    +0.239 C 
BRANCH  21  22
ATOM     22  O   UNL     1       9.935  -0.699  21.904  0.00  0.00    -0.464 OA
BRANCH  22  23
ATOM     23  C   UNL     1      10.185   0.421  22.638  0.00  0.00    +0.304 C 
ATOM     24  C   UNL     1       9.818   1.650  21.860  0.00  0.00    +0.136 C 
ATOM     25  O   UNL     1      10.687   0.439  23.750  0.00  0.00    -0.251 OA
ENDBRANCH  22  23
ENDBRANCH  21  22
ENDBRANCH  15  21
ENDBRANCH  14  15
ENDBRANCH   1  14
TORSDOF 9
ENDMDL
