MODEL 1
REMARK VINA RESULT:      -6.5      0.000      0.000
REMARK  Name = 
REMARK  19 active torsions:
REMARK  status: ('A' for Active; 'I' for Inactive)
REMARK    1  A    between atoms: C_1  and  C_2
REMARK    2  A    between atoms: C_2  and  C_3
REMARK    3  A    between atoms: C_3  and  C_4
REMARK    4  A    between atoms: C_4  and  C_6
REMARK    5  A    between atoms: C_4  and  N_15
REMARK    6  A    between atoms: C_6  and  C_8
REMARK    7  A    between atoms: C_6  and  O_14
REMARK    8  A    between atoms: N_10  and  C_11
REMARK    9  A    between atoms: C_16  and  C_18
REMARK   10  A    between atoms: C_29  and  C_31
REMARK   11  A    between atoms: C_31  and  C_33
REMARK   12  A    between atoms: C_31  and  N_37
REMARK   13  A    between atoms: C_33  and  C_34
REMARK   14  A    between atoms: C_33  and  C_35
REMARK   15  A    between atoms: C_33  and  C_36
REMARK   16  A    between atoms: C_38  and  C_40
REMARK   17  A    between atoms: C_40  and  C_42
REMARK   18  A    between atoms: C_40  and  N_48
REMARK   19  A    between atoms: C_49  and  C_51
REMARK                            x       y       z     vdW  Elec       q    Type
REMARK                         _______ _______ _______ _____ _____    ______ ____
ROOT
ATOM      1  C   UNL     1       5.553   2.590  23.365  0.00  0.00    +0.165 C 
ATOM      2  N   UNL     1       5.425   2.194  24.791  0.00  0.00    -0.288 N 
ATOM      3  C   UNL     1       6.047   1.059  25.305  0.00  0.00    +0.237 C 
ATOM      4  O   UNL     1       6.943   0.522  24.651  0.00  0.00    -0.274 OA
ATOM      5  C   UNL     1       4.414   2.995  25.466  0.00  0.00    +0.112 C 
ATOM      6  C   UNL     1       3.754   3.860  24.403  0.00  0.00    +0.012 C 
ATOM      7  C   UNL     1       2.468   3.278  23.809  0.00  0.00    +0.005 C 
ATOM      8  C   UNL     1       2.593   3.360  22.290  0.00  0.00    +0.001 C 
ATOM      9  C   UNL     1       3.900   4.085  22.010  0.00  0.00    +0.006 C 
ATOM     10  C   UNL     1       4.760   3.914  23.261  0.00  0.00    +0.023 C 
ENDROOT
BRANCH   1  13
ATOM     11  N   UNL     1       7.889   3.292  23.569  0.00  0.00    -0.308 N 
ATOM     12  H   UNL     1       7.505   4.017  24.183  0.00  0.00    +0.149 HD
ATOM     13  C   UNL     1       6.950   2.754  22.702  0.00  0.00    +0.234 C 
ATOM     14  O   UNL     1       7.209   2.392  21.558  0.00  0.00    -0.274 OA
BRANCH  11  15
ATOM     15  C   UNL     1       9.329   3.308  23.274  0.00  0.00    +0.110 C 
BRANCH  15  16
ATOM     16  C   UNL     1       9.954   4.656  23.710  0.00  0.00    +0.025 C 
BRANCH  16  18
ATOM     17  C   UNL     1      12.067   5.980  24.112  0.00  0.00    +0.004 C 
ATOM     18  C   UNL     1      11.458   4.759  23.436  0.00  0.00    -0.001 C 
ENDBRANCH  16  18
ENDBRANCH  15  16
BRANCH  15  19
ATOM     19  C   UNL     1      10.056   2.126  23.993  0.00  0.00    +0.220 C 
BRANCH  19  20
ATOM     20  C   UNL     1      10.063   0.868  23.114  0.00  0.00    +0.244 C 
ATOM     21  N   UNL     1       9.940  -0.311  23.827  0.00  0.00    -0.310 N 
ATOM     22  H   UNL     1       9.815  -0.244  24.837  0.00  0.00    +0.149 HD
ATOM     23  O   UNL     1      10.183   0.916  21.892  0.00  0.00    -0.273 OA
BRANCH  21  24
ATOM     24  C   UNL     1       9.963  -1.583  23.185  0.00  0.00    +0.073 C 
ATOM     25  C   UNL     1       8.710  -2.257  22.703  0.00  0.00    +0.024 C 
ATOM     26  C   UNL     1       9.437  -2.800  23.897  0.00  0.00    +0.024 C 
ENDBRANCH  21  24
ENDBRANCH  19  20
BRANCH  19  27
ATOM     27  O   UNL     1       9.420   1.780  25.235  0.00  0.00    -0.381 OA
ATOM     28  H   UNL     1       9.576   2.515  25.854  0.00  0.00    +0.211 HD
ENDBRANCH  19  27
ENDBRANCH  15  19
ENDBRANCH  11  15
ENDBRANCH   1  13
BRANCH   3  29
ATOM     29  C   UNL     1       5.533   0.423  26.664  0.00  0.00    +0.164 C 
BRANCH  29  30
ATOM     30  N   UNL     1       5.235  -1.022  26.511  0.00  0.00    -0.302 N 
ATOM     31  H   UNL     1       6.021  -1.641  26.326  0.00  0.00    +0.150 HD
ATOM     32  C   UNL     1       3.981  -1.603  26.561  0.00  0.00    +0.234 C 
ATOM     33  O   UNL     1       2.943  -0.971  26.736  0.00  0.00    -0.274 OA
BRANCH  32  34
ATOM     34  C   UNL     1       3.941  -3.149  26.518  0.00  0.00    +0.162 C 
BRANCH  34  35
ATOM     35  C   UNL     1       4.067  -3.872  27.891  0.00  0.00    +0.018 C 
ATOM     36  C   UNL     1       5.510  -4.260  28.267  0.00  0.00    +0.006 C 
ATOM     37  C   UNL     1       5.956  -5.605  27.719  0.00  0.00    +0.000 C 
ATOM     38  C   UNL     1       4.952  -6.690  28.063  0.00  0.00    +0.000 C 
ATOM     39  C   UNL     1       3.550  -6.369  27.582  0.00  0.00    +0.000 C 
ATOM     40  C   UNL     1       3.080  -5.032  28.120  0.00  0.00    +0.006 C 
ENDBRANCH  34  35
BRANCH  34  41
ATOM     41  N   UNL     1       4.874  -3.688  25.525  0.00  0.00    -0.298 N 
ATOM     42  H   UNL     1       5.769  -3.236  25.359  0.00  0.00    +0.150 HD
ATOM     43  C   UNL     1       4.418  -4.488  24.490  0.00  0.00    +0.264 C 
ATOM     44  O   UNL     1       3.269  -4.896  24.386  0.00  0.00    -0.268 OA
BRANCH  43  45
ATOM     45  C   UNL     1       5.429  -4.829  23.458  0.00  0.00    +0.143 A 
ATOM     46  C   UNL     1       6.663  -5.329  23.854  0.00  0.00    +0.143 A 
ATOM     47  N   UNL     1       7.623  -5.669  22.958  0.00  0.00    -0.259 NA
ATOM     48  C   UNL     1       7.292  -5.485  21.660  0.00  0.00    +0.130 A 
ATOM     49  C   UNL     1       6.059  -4.978  21.269  0.00  0.00    +0.131 A 
ATOM     50  N   UNL     1       5.089  -4.636  22.151  0.00  0.00    -0.247 NA
ENDBRANCH  43  45
ENDBRANCH  34  41
ENDBRANCH  32  34
ENDBRANCH  29  30
BRANCH  29  51
ATOM     51  C   UNL     1       6.329   0.798  27.964  0.00  0.00    -0.011 C 
ATOM     52  C   UNL     1       7.647  -0.018  28.015  0.00  0.00    +0.013 C 
ATOM     53  C   UNL     1       5.516   0.411  29.218  0.00  0.00    +0.013 C 
ATOM     54  C   UNL     1       6.701   2.284  28.064  0.00  0.00    +0.013 C 
ENDBRANCH  29  51
ENDBRANCH   3  29
TORSDOF 15
ENDMDL
MODEL 2
REMARK VINA RESULT:      -6.4      1.731      3.680
REMARK  Name = 
REMARK  19 active torsions:
REMARK  status: ('A' for Active; 'I' for Inactive)
REMARK    1  A    between atoms: C_1  and  C_2
REMARK    2  A    between atoms: C_2  and  C_3
REMARK    3  A    between atoms: C_3  and  C_4
REMARK    4  A    between atoms: C_4  and  C_6
REMARK    5  A    between atoms: C_4  and  N_15
REMARK    6  A    between atoms: C_6  and  C_8
REMARK    7  A    between atoms: C_6  and  O_14
REMARK    8  A    between atoms: N_10  and  C_11
REMARK    9  A    between atoms: C_16  and  C_18
REMARK   10  A    between atoms: C_29  and  C_31
REMARK   11  A    between atoms: C_31  and  C_33
REMARK   12  A    between atoms: C_31  and  N_37
REMARK   13  A    between atoms: C_33  and  C_34
REMARK   14  A    between atoms: C_33  and  C_35
REMARK   15  A    between atoms: C_33  and  C_36
REMARK   16  A    between atoms: C_38  and  C_40
REMARK   17  A    between atoms: C_40  and  C_42
REMARK   18  A    between atoms: C_40  and  N_48
REMARK   19  A    between atoms: C_49  and  C_51
REMARK                            x       y       z     vdW  Elec       q    Type
REMARK                         _______ _______ _______ _____ _____    ______ ____
ROOT
ATOM      1  C   UNL     1       6.254   2.437  24.767  0.00  0.00    +0.165 C 
ATOM      2  N   UNL     1       5.317   1.923  25.799  0.00  0.00    -0.288 N 
ATOM      3  C   UNL     1       5.538   0.724  26.472  0.00  0.00    +0.237 C 
ATOM      4  O   UNL     1       6.657   0.212  26.426  0.00  0.00    -0.274 OA
ATOM      5  C   UNL     1       4.086   2.701  25.819  0.00  0.00    +0.112 C 
ATOM      6  C   UNL     1       4.164   3.681  24.658  0.00  0.00    +0.012 C 
ATOM      7  C   UNL     1       3.489   3.203  23.369  0.00  0.00    +0.005 C 
ATOM      8  C   UNL     1       4.485   3.412  22.232  0.00  0.00    +0.001 C 
ATOM      9  C   UNL     1       5.691   4.108  22.845  0.00  0.00    +0.006 C 
ATOM     10  C   UNL     1       5.649   3.794  24.340  0.00  0.00    +0.023 C 
ENDROOT
BRANCH   1  13
ATOM     11  N   UNL     1       8.544   1.623  24.477  0.00  0.00    -0.308 N 
ATOM     12  H   UNL     1       8.101   0.699  24.479  0.00  0.00    +0.149 HD
ATOM     13  C   UNL     1       7.769   2.603  25.075  0.00  0.00    +0.234 C 
ATOM     14  O   UNL     1       8.234   3.535  25.726  0.00  0.00    -0.274 OA
BRANCH  11  15
ATOM     15  C   UNL     1      10.011   1.702  24.399  0.00  0.00    +0.110 C 
BRANCH  15  16
ATOM     16  C   UNL     1      10.633   0.288  24.500  0.00  0.00    +0.025 C 
BRANCH  16  18
ATOM     17  C   UNL     1      10.133  -1.522  22.811  0.00  0.00    +0.004 C 
ATOM     18  C   UNL     1       9.677  -0.839  24.093  0.00  0.00    -0.001 C 
ENDBRANCH  16  18
ENDBRANCH  15  16
BRANCH  15  19
ATOM     19  C   UNL     1      10.459   2.389  23.069  0.00  0.00    +0.220 C 
BRANCH  19  20
ATOM     20  C   UNL     1      10.914   3.833  23.321  0.00  0.00    +0.244 C 
ATOM     21  N   UNL     1       9.871   4.737  23.423  0.00  0.00    -0.310 N 
ATOM     22  H   UNL     1       8.920   4.372  23.368  0.00  0.00    +0.149 HD
ATOM     23  O   UNL     1      12.098   4.148  23.407  0.00  0.00    -0.273 OA
BRANCH  21  24
ATOM     24  C   UNL     1      10.099   6.129  23.620  0.00  0.00    +0.073 C 
ATOM     25  C   UNL     1      10.226   6.731  24.990  0.00  0.00    +0.024 C 
ATOM     26  C   UNL     1       9.005   7.006  24.165  0.00  0.00    +0.024 C 
ENDBRANCH  21  24
ENDBRANCH  19  20
BRANCH  19  27
ATOM     27  O   UNL     1       9.396   2.434  22.102  0.00  0.00    -0.381 OA
ATOM     28  H   UNL     1       8.557   2.438  22.595  0.00  0.00    +0.211 HD
ENDBRANCH  19  27
ENDBRANCH  15  19
ENDBRANCH  11  15
ENDBRANCH   1  13
BRANCH   3  29
ATOM     29  C   UNL     1       4.332  -0.007  27.201  0.00  0.00    +0.164 C 
BRANCH  29  30
ATOM     30  N   UNL     1       4.351  -1.468  26.948  0.00  0.00    -0.302 N 
ATOM     31  H   UNL     1       5.247  -1.943  27.033  0.00  0.00    +0.150 HD
ATOM     32  C   UNL     1       3.268  -2.242  26.573  0.00  0.00    +0.234 C 
ATOM     33  O   UNL     1       2.139  -1.793  26.395  0.00  0.00    -0.274 OA
BRANCH  32  34
ATOM     34  C   UNL     1       3.506  -3.769  26.510  0.00  0.00    +0.162 C 
BRANCH  34  35
ATOM     35  C   UNL     1       2.726  -4.623  27.552  0.00  0.00    +0.018 C 
ATOM     36  C   UNL     1       2.817  -4.092  28.995  0.00  0.00    +0.006 C 
ATOM     37  C   UNL     1       4.030  -4.584  29.765  0.00  0.00    +0.000 C 
ATOM     38  C   UNL     1       4.141  -6.097  29.693  0.00  0.00    +0.000 C 
ATOM     39  C   UNL     1       4.179  -6.617  28.268  0.00  0.00    +0.000 C 
ATOM     40  C   UNL     1       2.975  -6.142  27.480  0.00  0.00    +0.006 C 
ENDBRANCH  34  35
BRANCH  34  41
ATOM     41  N   UNL     1       4.935  -4.094  26.491  0.00  0.00    -0.298 N 
ATOM     42  H   UNL     1       5.570  -3.671  27.162  0.00  0.00    +0.150 HD
ATOM     43  C   UNL     1       5.533  -4.577  25.339  0.00  0.00    +0.264 C 
ATOM     44  O   UNL     1       4.927  -4.875  24.318  0.00  0.00    -0.268 OA
BRANCH  43  45
ATOM     45  C   UNL     1       7.010  -4.706  25.397  0.00  0.00    +0.143 A 
ATOM     46  C   UNL     1       7.722  -4.913  24.223  0.00  0.00    +0.143 A 
ATOM     47  N   UNL     1       9.074  -5.027  24.211  0.00  0.00    -0.259 NA
ATOM     48  C   UNL     1       9.672  -4.927  25.420  0.00  0.00    +0.130 A 
ATOM     49  C   UNL     1       8.955  -4.727  26.593  0.00  0.00    +0.131 A 
ATOM     50  N   UNL     1       7.606  -4.608  26.621  0.00  0.00    -0.247 NA
ENDBRANCH  43  45
ENDBRANCH  34  41
ENDBRANCH  32  34
ENDBRANCH  29  30
BRANCH  29  51
ATOM     51  C   UNL     1       4.057   0.402  28.691  0.00  0.00    -0.011 C 
ATOM     52  C   UNL     1       2.642   1.025  28.803  0.00  0.00    +0.013 C 
ATOM     53  C   UNL     1       5.060   1.486  29.141  0.00  0.00    +0.013 C 
ATOM     54  C   UNL     1       4.127  -0.768  29.683  0.00  0.00    +0.013 C 
ENDBRANCH  29  51
ENDBRANCH   3  29
TORSDOF 15
ENDMDL
MODEL 3
REMARK VINA RESULT:      -6.3      2.312      6.567
REMARK  Name = 
REMARK  19 active torsions:
REMARK  status: ('A' for Active; 'I' for Inactive)
REMARK    1  A    between atoms: C_1  and  C_2
REMARK    2  A    between atoms: C_2  and  C_3
REMARK    3  A    between atoms: C_3  and  C_4
REMARK    4  A    between atoms: C_4  and  C_6
REMARK    5  A    between atoms: C_4  and  N_15
REMARK    6  A    between atoms: C_6  and  C_8
REMARK    7  A    between atoms: C_6  and  O_14
REMARK    8  A    between atoms: N_10  and  C_11
REMARK    9  A    between atoms: C_16  and  C_18
REMARK   10  A    between atoms: C_29  and  C_31
REMARK   11  A    between atoms: C_31  and  C_33
REMARK   12  A    between atoms: C_31  and  N_37
REMARK   13  A    between atoms: C_33  and  C_34
REMARK   14  A    between atoms: C_33  and  C_35
REMARK   15  A    between atoms: C_33  and  C_36
REMARK   16  A    between atoms: C_38  and  C_40
REMARK   17  A    between atoms: C_40  and  C_42
REMARK   18  A    between atoms: C_40  and  N_48
REMARK   19  A    between atoms: C_49  and  C_51
REMARK                            x       y       z     vdW  Elec       q    Type
REMARK                         _______ _______ _______ _____ _____    ______ ____
ROOT
ATOM      1  C   UNL     1       7.463  -3.768  24.040  0.00  0.00    +0.165 C 
ATOM      2  N   UNL     1       6.498  -3.361  25.094  0.00  0.00    -0.288 N 
ATOM      3  C   UNL     1       6.815  -3.409  26.449  0.00  0.00    +0.237 C 
ATOM      4  O   UNL     1       7.996  -3.521  26.782  0.00  0.00    -0.274 OA
ATOM      5  C   UNL     1       5.171  -3.149  24.533  0.00  0.00    +0.112 C 
ATOM      6  C   UNL     1       5.238  -3.567  23.071  0.00  0.00    +0.012 C 
ATOM      7  C   UNL     1       4.798  -5.008  22.795  0.00  0.00    +0.005 C 
ATOM      8  C   UNL     1       5.878  -5.654  21.933  0.00  0.00    +0.001 C 
ATOM      9  C   UNL     1       6.886  -4.558  21.622  0.00  0.00    +0.006 C 
ATOM     10  C   UNL     1       6.717  -3.501  22.712  0.00  0.00    +0.023 C 
ENDROOT
BRANCH   1  13
ATOM     11  N   UNL     1       8.872  -1.797  23.688  0.00  0.00    -0.308 N 
ATOM     12  H   UNL     1       8.154  -1.540  23.003  0.00  0.00    +0.149 HD
ATOM     13  C   UNL     1       8.890  -3.151  23.981  0.00  0.00    +0.234 C 
ATOM     14  O   UNL     1       9.915  -3.781  24.226  0.00  0.00    -0.274 OA
BRANCH  11  15
ATOM     15  C   UNL     1      10.055  -0.935  23.828  0.00  0.00    +0.110 C 
BRANCH  15  16
ATOM     16  C   UNL     1      10.246  -0.072  22.557  0.00  0.00    +0.025 C 
BRANCH  16  18
ATOM     17  C   UNL     1       8.472   1.250  21.338  0.00  0.00    +0.004 C 
ATOM     18  C   UNL     1       9.062  -0.132  21.585  0.00  0.00    -0.001 C 
ENDBRANCH  16  18
ENDBRANCH  15  16
BRANCH  15  19
ATOM     19  C   UNL     1       9.926  -0.014  25.084  0.00  0.00    +0.220 C 
BRANCH  19  20
ATOM     20  C   UNL     1       8.781   0.993  24.912  0.00  0.00    +0.244 C 
ATOM     21  N   UNL     1       9.203   2.308  24.819  0.00  0.00    -0.310 N 
ATOM     22  H   UNL     1      10.208   2.485  24.829  0.00  0.00    +0.149 HD
ATOM     23  O   UNL     1       7.601   0.653  24.877  0.00  0.00    -0.273 OA
BRANCH  21  24
ATOM     24  C   UNL     1       8.281   3.386  24.693  0.00  0.00    +0.073 C 
ATOM     25  C   UNL     1       8.531   4.548  23.774  0.00  0.00    +0.024 C 
ATOM     26  C   UNL     1       8.616   4.739  25.259  0.00  0.00    +0.024 C 
ENDBRANCH  21  24
ENDBRANCH  19  20
BRANCH  19  27
ATOM     27  O   UNL     1      11.128   0.737  25.325  0.00  0.00    -0.381 OA
ATOM     28  H   UNL     1      10.941   1.664  25.096  0.00  0.00    +0.211 HD
ENDBRANCH  19  27
ENDBRANCH  15  19
ENDBRANCH  11  15
ENDBRANCH   1  13
BRANCH   3  29
ATOM     29  C   UNL     1       5.655  -3.418  27.532  0.00  0.00    +0.164 C 
BRANCH  29  30
ATOM     30  N   UNL     1       4.791  -2.218  27.412  0.00  0.00    -0.302 N 
ATOM     31  H   UNL     1       3.805  -2.374  27.212  0.00  0.00    +0.150 HD
ATOM     32  C   UNL     1       5.206  -0.903  27.514  0.00  0.00    +0.234 C 
ATOM     33  O   UNL     1       6.371  -0.570  27.713  0.00  0.00    -0.274 OA
BRANCH  32  34
ATOM     34  C   UNL     1       4.093   0.170  27.498  0.00  0.00    +0.162 C 
BRANCH  34  35
ATOM     35  C   UNL     1       2.648  -0.343  27.772  0.00  0.00    +0.018 C 
ATOM     36  C   UNL     1       1.543   0.533  27.152  0.00  0.00    +0.006 C 
ATOM     37  C   UNL     1       1.105   1.695  28.027  0.00  0.00    +0.000 C 
ATOM     38  C   UNL     1       0.755   1.218  29.425  0.00  0.00    +0.000 C 
ATOM     39  C   UNL     1       1.890   0.462  30.090  0.00  0.00    +0.000 C 
ATOM     40  C   UNL     1       2.342  -0.706  29.237  0.00  0.00    +0.006 C 
ENDBRANCH  34  35
BRANCH  34  41
ATOM     41  N   UNL     1       4.162   1.005  26.296  0.00  0.00    -0.298 N 
ATOM     42  H   UNL     1       4.362   0.590  25.391  0.00  0.00    +0.150 HD
ATOM     43  C   UNL     1       4.425   2.362  26.394  0.00  0.00    +0.264 C 
ATOM     44  O   UNL     1       4.501   2.977  27.449  0.00  0.00    -0.268 OA
BRANCH  43  45
ATOM     45  C   UNL     1       4.637   3.061  25.103  0.00  0.00    +0.143 A 
ATOM     46  C   UNL     1       4.740   4.446  25.087  0.00  0.00    +0.143 A 
ATOM     47  N   UNL     1       4.945   5.141  23.940  0.00  0.00    -0.259 NA
ATOM     48  C   UNL     1       5.040   4.389  22.821  0.00  0.00    +0.130 A 
ATOM     49  C   UNL     1       4.930   3.004  22.839  0.00  0.00    +0.131 A 
ATOM     50  N   UNL     1       4.728   2.296  23.976  0.00  0.00    -0.247 NA
ENDBRANCH  43  45
ENDBRANCH  34  41
ENDBRANCH  32  34
ENDBRANCH  29  30
BRANCH  29  51
ATOM     51  C   UNL     1       4.883  -4.770  27.727  0.00  0.00    -0.011 C 
ATOM     52  C   UNL     1       3.399  -4.582  27.319  0.00  0.00    +0.013 C 
ATOM     53  C   UNL     1       4.888  -5.177  29.216  0.00  0.00    +0.013 C 
ATOM     54  C   UNL     1       5.445  -5.936  26.902  0.00  0.00    +0.013 C 
ENDBRANCH  29  51
ENDBRANCH   3  29
TORSDOF 15
ENDMDL
MODEL 4
REMARK VINA RESULT:      -6.2      1.426      2.051
REMARK  Name = 
REMARK  19 active torsions:
REMARK  status: ('A' for Active; 'I' for Inactive)
REMARK    1  A    between atoms: C_1  and  C_2
REMARK    2  A    between atoms: C_2  and  C_3
REMARK    3  A    between atoms: C_3  and  C_4
REMARK    4  A    between atoms: C_4  and  C_6
REMARK    5  A    between atoms: C_4  and  N_15
REMARK    6  A    between atoms: C_6  and  C_8
REMARK    7  A    between atoms: C_6  and  O_14
REMARK    8  A    between atoms: N_10  and  C_11
REMARK    9  A    between atoms: C_16  and  C_18
REMARK   10  A    between atoms: C_29  and  C_31
REMARK   11  A    between atoms: C_31  and  C_33
REMARK   12  A    between atoms: C_31  and  N_37
REMARK   13  A    between atoms: C_33  and  C_34
REMARK   14  A    between atoms: C_33  and  C_35
REMARK   15  A    between atoms: C_33  and  C_36
REMARK   16  A    between atoms: C_38  and  C_40
REMARK   17  A    between atoms: C_40  and  C_42
REMARK   18  A    between atoms: C_40  and  N_48
REMARK   19  A    between atoms: C_49  and  C_51
REMARK                            x       y       z     vdW  Elec       q    Type
REMARK                         _______ _______ _______ _____ _____    ______ ____
ROOT
ATOM      1  C   UNL     1       5.121   2.831  23.199  0.00  0.00    +0.165 C 
ATOM      2  N   UNL     1       4.958   2.268  24.564  0.00  0.00    -0.288 N 
ATOM      3  C   UNL     1       5.677   1.159  25.001  0.00  0.00    +0.237 C 
ATOM      4  O   UNL     1       6.666   0.800  24.360  0.00  0.00    -0.274 OA
ATOM      5  C   UNL     1       3.821   2.873  25.245  0.00  0.00    +0.112 C 
ATOM      6  C   UNL     1       3.128   3.773  24.233  0.00  0.00    +0.012 C 
ATOM      7  C   UNL     1       1.956   3.122  23.492  0.00  0.00    +0.005 C 
ATOM      8  C   UNL     1       2.160   3.385  22.003  0.00  0.00    +0.001 C 
ATOM      9  C   UNL     1       3.387   4.277  21.893  0.00  0.00    +0.006 C 
ATOM     10  C   UNL     1       4.186   4.063  23.177  0.00  0.00    +0.023 C 
ENDROOT
BRANCH   1  13
ATOM     11  N   UNL     1       7.329   3.797  23.630  0.00  0.00    -0.308 N 
ATOM     12  H   UNL     1       6.816   4.415  24.267  0.00  0.00    +0.149 HD
ATOM     13  C   UNL     1       6.526   3.221  22.658  0.00  0.00    +0.234 C 
ATOM     14  O   UNL     1       6.904   2.990  21.513  0.00  0.00    -0.274 OA
BRANCH  11  15
ATOM     15  C   UNL     1       8.772   4.014  23.447  0.00  0.00    +0.110 C 
BRANCH  15  16
ATOM     16  C   UNL     1       9.191   5.378  24.049  0.00  0.00    +0.025 C 
BRANCH  16  18
ATOM     17  C   UNL     1      11.471   6.320  24.594  0.00  0.00    +0.004 C 
ATOM     18  C   UNL     1      10.507   5.925  23.483  0.00  0.00    -0.001 C 
ENDBRANCH  16  18
ENDBRANCH  15  16
BRANCH  15  19
ATOM     19  C   UNL     1       9.595   2.863  24.109  0.00  0.00    +0.220 C 
BRANCH  19  20
ATOM     20  C   UNL     1       9.853   1.726  23.111  0.00  0.00    +0.244 C 
ATOM     21  N   UNL     1       9.666   0.463  23.644  0.00  0.00    -0.310 N 
ATOM     22  H   UNL     1       9.343   0.398  24.609  0.00  0.00    +0.149 HD
ATOM     23  O   UNL     1      10.206   1.931  21.952  0.00  0.00    -0.273 OA
BRANCH  21  24
ATOM     24  C   UNL     1       9.894  -0.717  22.878  0.00  0.00    +0.073 C 
ATOM     25  C   UNL     1       8.803  -1.712  22.600  0.00  0.00    +0.024 C 
ATOM     26  C   UNL     1       9.911  -2.064  23.548  0.00  0.00    +0.024 C 
ENDBRANCH  21  24
ENDBRANCH  19  20
BRANCH  19  27
ATOM     27  O   UNL     1       8.913   2.296  25.241  0.00  0.00    -0.381 OA
ATOM     28  H   UNL     1       8.120   2.838  25.402  0.00  0.00    +0.211 HD
ENDBRANCH  19  27
ENDBRANCH  15  19
ENDBRANCH  11  15
ENDBRANCH   1  13
BRANCH   3  29
ATOM     29  C   UNL     1       5.162   0.323  26.248  0.00  0.00    +0.164 C 
BRANCH  29  30
ATOM     30  N   UNL     1       4.920  -1.095  25.889  0.00  0.00    -0.302 N 
ATOM     31  H   UNL     1       5.688  -1.602  25.453  0.00  0.00    +0.150 HD
ATOM     32  C   UNL     1       3.735  -1.787  26.061  0.00  0.00    +0.234 C 
ATOM     33  O   UNL     1       2.719  -1.289  26.537  0.00  0.00    -0.274 OA
BRANCH  32  34
ATOM     34  C   UNL     1       3.773  -3.300  25.744  0.00  0.00    +0.162 C 
BRANCH  34  35
ATOM     35  C   UNL     1       2.696  -4.173  26.453  0.00  0.00    +0.018 C 
ATOM     36  C   UNL     1       3.246  -5.474  27.066  0.00  0.00    +0.006 C 
ATOM     37  C   UNL     1       3.299  -6.644  26.099  0.00  0.00    +0.000 C 
ATOM     38  C   UNL     1       1.959  -6.843  25.414  0.00  0.00    +0.000 C 
ATOM     39  C   UNL     1       1.472  -5.596  24.700  0.00  0.00    +0.000 C 
ATOM     40  C   UNL     1       1.406  -4.414  25.647  0.00  0.00    +0.006 C 
ENDBRANCH  34  35
BRANCH  34  41
ATOM     41  N   UNL     1       5.121  -3.854  25.903  0.00  0.00    -0.298 N 
ATOM     42  H   UNL     1       5.608  -3.779  26.792  0.00  0.00    +0.150 HD
ATOM     43  C   UNL     1       5.935  -4.055  24.800  0.00  0.00    +0.264 C 
ATOM     44  O   UNL     1       5.577  -3.909  23.639  0.00  0.00    -0.268 OA
BRANCH  43  45
ATOM     45  C   UNL     1       7.331  -4.458  25.108  0.00  0.00    +0.143 A 
ATOM     46  C   UNL     1       8.048  -5.194  24.174  0.00  0.00    +0.143 A 
ATOM     47  N   UNL     1       9.330  -5.581  24.393  0.00  0.00    -0.259 NA
ATOM     48  C   UNL     1       9.852  -5.200  25.580  0.00  0.00    +0.130 A 
ATOM     49  C   UNL     1       9.129  -4.470  26.515  0.00  0.00    +0.131 A 
ATOM     50  N   UNL     1       7.849  -4.073  26.310  0.00  0.00    -0.247 NA
ENDBRANCH  43  45
ENDBRANCH  34  41
ENDBRANCH  32  34
ENDBRANCH  29  30
BRANCH  29  51
ATOM     51  C   UNL     1       5.920   0.541  27.605  0.00  0.00    -0.011 C 
ATOM     52  C   UNL     1       5.026   0.067  28.778  0.00  0.00    +0.013 C 
ATOM     53  C   UNL     1       6.192   2.044  27.828  0.00  0.00    +0.013 C 
ATOM     54  C   UNL     1       7.253  -0.215  27.704  0.00  0.00    +0.013 C 
ENDBRANCH  29  51
ENDBRANCH   3  29
TORSDOF 15
ENDMDL
MODEL 5
REMARK VINA RESULT:      -6.1      2.586      9.441
REMARK  Name = 
REMARK  19 active torsions:
REMARK  status: ('A' for Active; 'I' for Inactive)
REMARK    1  A    between atoms: C_1  and  C_2
REMARK    2  A    between atoms: C_2  and  C_3
REMARK    3  A    between atoms: C_3  and  C_4
REMARK    4  A    between atoms: C_4  and  C_6
REMARK    5  A    between atoms: C_4  and  N_15
REMARK    6  A    between atoms: C_6  and  C_8
REMARK    7  A    between atoms: C_6  and  O_14
REMARK    8  A    between atoms: N_10  and  C_11
REMARK    9  A    between atoms: C_16  and  C_18
REMARK   10  A    between atoms: C_29  and  C_31
REMARK   11  A    between atoms: C_31  and  C_33
REMARK   12  A    between atoms: C_31  and  N_37
REMARK   13  A    between atoms: C_33  and  C_34
REMARK   14  A    between atoms: C_33  and  C_35
REMARK   15  A    between atoms: C_33  and  C_36
REMARK   16  A    between atoms: C_38  and  C_40
REMARK   17  A    between atoms: C_40  and  C_42
REMARK   18  A    between atoms: C_40  and  N_48
REMARK   19  A    between atoms: C_49  and  C_51
REMARK                            x       y       z     vdW  Elec       q    Type
REMARK                         _______ _______ _______ _____ _____    ______ ____
ROOT
ATOM      1  C   UNL     1       4.411  -4.552  24.386  0.00  0.00    +0.165 C 
ATOM      2  N   UNL     1       5.005  -3.728  25.470  0.00  0.00    -0.288 N 
ATOM      3  C   UNL     1       4.414  -2.548  25.914  0.00  0.00    +0.237 C 
ATOM      4  O   UNL     1       3.243  -2.317  25.610  0.00  0.00    -0.274 OA
ATOM      5  C   UNL     1       6.344  -4.192  25.805  0.00  0.00    +0.112 C 
ATOM      6  C   UNL     1       6.696  -5.283  24.804  0.00  0.00    +0.012 C 
ATOM      7  C   UNL     1       7.491  -4.803  23.585  0.00  0.00    +0.005 C 
ATOM      8  C   UNL     1       6.797  -5.358  22.345  0.00  0.00    +0.001 C 
ATOM      9  C   UNL     1       5.668  -6.244  22.850  0.00  0.00    +0.006 C 
ATOM     10  C   UNL     1       5.356  -5.771  24.269  0.00  0.00    +0.023 C 
ENDROOT
BRANCH   1  13
ATOM     11  N   UNL     1       2.752  -6.044  25.393  0.00  0.00    -0.308 N 
ATOM     12  H   UNL     1       3.528  -6.712  25.422  0.00  0.00    +0.149 HD
ATOM     13  C   UNL     1       2.934  -5.032  24.465  0.00  0.00    +0.234 C 
ATOM     14  O   UNL     1       2.019  -4.529  23.819  0.00  0.00    -0.274 OA
BRANCH  11  15
ATOM     15  C   UNL     1       1.423  -6.487  25.840  0.00  0.00    +0.110 C 
BRANCH  15  16
ATOM     16  C   UNL     1       1.009  -7.780  25.096  0.00  0.00    +0.025 C 
BRANCH  16  18
ATOM     17  C   UNL     1       1.186  -8.387  22.650  0.00  0.00    +0.004 C 
ATOM     18  C   UNL     1       1.950  -8.163  23.948  0.00  0.00    -0.001 C 
ENDBRANCH  16  18
ENDBRANCH  15  16
BRANCH  15  19
ATOM     19  C   UNL     1       1.409  -6.732  27.383  0.00  0.00    +0.220 C 
BRANCH  19  20
ATOM     20  C   UNL     1       2.263  -5.687  28.114  0.00  0.00    +0.244 C 
ATOM     21  N   UNL     1       3.151  -6.230  29.026  0.00  0.00    -0.310 N 
ATOM     22  H   UNL     1       3.192  -7.247  29.100  0.00  0.00    +0.149 HD
ATOM     23  O   UNL     1       2.148  -4.481  27.911  0.00  0.00    -0.273 OA
BRANCH  21  24
ATOM     24  C   UNL     1       4.001  -5.414  29.825  0.00  0.00    +0.073 C 
ATOM     25  C   UNL     1       5.318  -4.897  29.320  0.00  0.00    +0.024 C 
ATOM     26  C   UNL     1       5.290  -5.967  30.370  0.00  0.00    +0.024 C 
ENDBRANCH  21  24
ENDBRANCH  19  20
BRANCH  19  27
ATOM     27  O   UNL     1       1.928  -8.029  27.727  0.00  0.00    -0.381 OA
ATOM     28  H   UNL     1       1.320  -8.420  28.379  0.00  0.00    +0.211 HD
ENDBRANCH  19  27
ENDBRANCH  15  19
ENDBRANCH  11  15
ENDBRANCH   1  13
BRANCH   3  29
ATOM     29  C   UNL     1       5.278  -1.483  26.712  0.00  0.00    +0.164 C 
BRANCH  29  30
ATOM     30  N   UNL     1       6.191  -0.738  25.812  0.00  0.00    -0.302 N 
ATOM     31  H   UNL     1       5.774  -0.271  25.010  0.00  0.00    +0.150 HD
ATOM     32  C   UNL     1       7.565  -0.647  25.941  0.00  0.00    +0.234 C 
ATOM     33  O   UNL     1       8.202  -1.193  26.838  0.00  0.00    -0.274 OA
BRANCH  32  34
ATOM     34  C   UNL     1       8.283   0.308  24.960  0.00  0.00    +0.162 C 
BRANCH  34  35
ATOM     35  C   UNL     1       9.609  -0.222  24.340  0.00  0.00    +0.018 C 
ATOM     36  C   UNL     1      10.271   0.749  23.345  0.00  0.00    +0.006 C 
ATOM     37  C   UNL     1       9.762   0.622  21.919  0.00  0.00    +0.000 C 
ATOM     38  C   UNL     1       9.819  -0.820  21.450  0.00  0.00    +0.000 C 
ATOM     39  C   UNL     1       9.060  -1.766  22.362  0.00  0.00    +0.000 C 
ATOM     40  C   UNL     1       9.553  -1.660  23.792  0.00  0.00    +0.006 C 
ENDBRANCH  34  35
BRANCH  34  41
ATOM     41  N   UNL     1       8.440   1.650  25.528  0.00  0.00    -0.298 N 
ATOM     42  H   UNL     1       8.753   1.772  26.486  0.00  0.00    +0.150 HD
ATOM     43  C   UNL     1       7.753   2.727  24.992  0.00  0.00    +0.264 C 
ATOM     44  O   UNL     1       7.079   2.679  23.971  0.00  0.00    -0.268 OA
BRANCH  43  45
ATOM     45  C   UNL     1       7.863   3.994  25.757  0.00  0.00    +0.143 A 
ATOM     46  C   UNL     1       7.192   4.120  26.966  0.00  0.00    +0.143 A 
ATOM     47  N   UNL     1       7.263   5.248  27.716  0.00  0.00    -0.259 NA
ATOM     48  C   UNL     1       8.031   6.235  27.201  0.00  0.00    +0.130 A 
ATOM     49  C   UNL     1       8.695   6.108  25.987  0.00  0.00    +0.131 A 
ATOM     50  N   UNL     1       8.636   4.987  25.228  0.00  0.00    -0.247 NA
ENDBRANCH  43  45
ENDBRANCH  34  41
ENDBRANCH  32  34
ENDBRANCH  29  30
BRANCH  29  51
ATOM     51  C   UNL     1       4.513  -0.595  27.757  0.00  0.00    -0.011 C 
ATOM     52  C   UNL     1       5.527   0.299  28.515  0.00  0.00    +0.013 C 
ATOM     53  C   UNL     1       3.827  -1.488  28.814  0.00  0.00    +0.013 C 
ATOM     54  C   UNL     1       3.454   0.327  27.138  0.00  0.00    +0.013 C 
ENDBRANCH  29  51
ENDBRANCH   3  29
TORSDOF 15
ENDMDL
MODEL 6
REMARK VINA RESULT:      -5.9      2.576      7.945
REMARK  Name = 
REMARK  19 active torsions:
REMARK  status: ('A' for Active; 'I' for Inactive)
REMARK    1  A    between atoms: C_1  and  C_2
REMARK    2  A    between atoms: C_2  and  C_3
REMARK    3  A    between atoms: C_3  and  C_4
REMARK    4  A    between atoms: C_4  and  C_6
REMARK    5  A    between atoms: C_4  and  N_15
REMARK    6  A    between atoms: C_6  and  C_8
REMARK    7  A    between atoms: C_6  and  O_14
REMARK    8  A    between atoms: N_10  and  C_11
REMARK    9  A    between atoms: C_16  and  C_18
REMARK   10  A    between atoms: C_29  and  C_31
REMARK   11  A    between atoms: C_31  and  C_33
REMARK   12  A    between atoms: C_31  and  N_37
REMARK   13  A    between atoms: C_33  and  C_34
REMARK   14  A    between atoms: C_33  and  C_35
REMARK   15  A    between atoms: C_33  and  C_36
REMARK   16  A    between atoms: C_38  and  C_40
REMARK   17  A    between atoms: C_40  and  C_42
REMARK   18  A    between atoms: C_40  and  N_48
REMARK   19  A    between atoms: C_49  and  C_51
REMARK                            x       y       z     vdW  Elec       q    Type
REMARK                         _______ _______ _______ _____ _____    ______ ____
ROOT
ATOM      1  C   UNL     1       7.748  -0.932  23.514  0.00  0.00    +0.165 C 
ATOM      2  N   UNL     1       7.522  -0.268  24.824  0.00  0.00    -0.288 N 
ATOM      3  C   UNL     1       6.248  -0.090  25.356  0.00  0.00    +0.237 C 
ATOM      4  O   UNL     1       5.309  -0.733  24.884  0.00  0.00    -0.274 OA
ATOM      5  C   UNL     1       8.748   0.346  25.315  0.00  0.00    +0.112 C 
ATOM      6  C   UNL     1       9.789   0.195  24.216  0.00  0.00    +0.012 C 
ATOM      7  C   UNL     1       9.915   1.400  23.280  0.00  0.00    +0.005 C 
ATOM      8  C   UNL     1       9.867   0.870  21.850  0.00  0.00    +0.001 C 
ATOM      9  C   UNL     1       9.823  -0.646  21.960  0.00  0.00    +0.006 C 
ATOM     10  C   UNL     1       9.286  -0.958  23.357  0.00  0.00    +0.023 C 
ENDROOT
BRANCH   1  13
ATOM     11  N   UNL     1       7.947  -3.362  23.733  0.00  0.00    -0.308 N 
ATOM     12  H   UNL     1       8.952  -3.179  23.652  0.00  0.00    +0.149 HD
ATOM     13  C   UNL     1       7.161  -2.342  23.222  0.00  0.00    +0.234 C 
ATOM     14  O   UNL     1       6.089  -2.529  22.653  0.00  0.00    -0.274 OA
BRANCH  11  15
ATOM     15  C   UNL     1       7.489  -4.757  23.817  0.00  0.00    +0.110 C 
BRANCH  15  16
ATOM     16  C   UNL     1       7.570  -5.435  22.428  0.00  0.00    +0.025 C 
BRANCH  16  18
ATOM     17  C   UNL     1       5.156  -5.911  23.000  0.00  0.00    +0.004 C 
ATOM     18  C   UNL     1       6.224  -5.959  21.915  0.00  0.00    -0.001 C 
ENDBRANCH  16  18
ENDBRANCH  15  16
BRANCH  15  19
ATOM     19  C   UNL     1       8.340  -5.559  24.853  0.00  0.00    +0.220 C 
BRANCH  19  20
ATOM     20  C   UNL     1       7.978  -5.160  26.291  0.00  0.00    +0.244 C 
ATOM     21  N   UNL     1       6.975  -5.933  26.848  0.00  0.00    -0.310 N 
ATOM     22  H   UNL     1       6.605  -6.703  26.292  0.00  0.00    +0.149 HD
ATOM     23  O   UNL     1       8.525  -4.229  26.875  0.00  0.00    -0.273 OA
BRANCH  21  24
ATOM     24  C   UNL     1       6.480  -5.688  28.161  0.00  0.00    +0.073 C 
ATOM     25  C   UNL     1       5.315  -6.446  28.731  0.00  0.00    +0.024 C 
ATOM     26  C   UNL     1       5.154  -5.003  28.356  0.00  0.00    +0.024 C 
ENDBRANCH  21  24
ENDBRANCH  19  20
BRANCH  19  27
ATOM     27  O   UNL     1       9.750  -5.329  24.685  0.00  0.00    -0.381 OA
ATOM     28  H   UNL     1      10.212  -5.867  25.350  0.00  0.00    +0.211 HD
ENDBRANCH  19  27
ENDBRANCH  15  19
ENDBRANCH  11  15
ENDBRANCH   1  13
BRANCH   3  29
ATOM     29  C   UNL     1       6.008   0.998  26.486  0.00  0.00    +0.164 C 
BRANCH  29  30
ATOM     30  N   UNL     1       5.460   2.256  25.922  0.00  0.00    -0.302 N 
ATOM     31  H   UNL     1       4.450   2.313  25.809  0.00  0.00    +0.150 HD
ATOM     32  C   UNL     1       6.197   3.348  25.503  0.00  0.00    +0.234 C 
ATOM     33  O   UNL     1       7.423   3.399  25.546  0.00  0.00    -0.274 OA
BRANCH  32  34
ATOM     34  C   UNL     1       5.390   4.600  25.087  0.00  0.00    +0.162 C 
BRANCH  34  35
ATOM     35  C   UNL     1       5.193   5.682  26.190  0.00  0.00    +0.018 C 
ATOM     36  C   UNL     1       6.300   6.752  26.223  0.00  0.00    +0.006 C 
ATOM     37  C   UNL     1       7.508   6.373  27.063  0.00  0.00    +0.000 C 
ATOM     38  C   UNL     1       7.085   5.927  28.451  0.00  0.00    +0.000 C 
ATOM     39  C   UNL     1       6.087   4.784  28.424  0.00  0.00    +0.000 C 
ATOM     40  C   UNL     1       4.870   5.142  27.595  0.00  0.00    +0.006 C 
ENDBRANCH  34  35
BRANCH  34  41
ATOM     41  N   UNL     1       4.126   4.239  24.439  0.00  0.00    -0.298 N 
ATOM     42  H   UNL     1       3.330   3.936  24.994  0.00  0.00    +0.150 HD
ATOM     43  C   UNL     1       4.101   3.849  23.110  0.00  0.00    +0.264 C 
ATOM     44  O   UNL     1       5.068   3.884  22.360  0.00  0.00    -0.268 OA
BRANCH  43  45
ATOM     45  C   UNL     1       2.792   3.348  22.621  0.00  0.00    +0.143 A 
ATOM     46  C   UNL     1       2.584   3.210  21.256  0.00  0.00    +0.143 A 
ATOM     47  N   UNL     1       1.414   2.746  20.748  0.00  0.00    -0.259 NA
ATOM     48  C   UNL     1       0.472   2.432  21.667  0.00  0.00    +0.130 A 
ATOM     49  C   UNL     1       0.682   2.578  23.032  0.00  0.00    +0.131 A 
ATOM     50  N   UNL     1       1.845   3.037  23.554  0.00  0.00    -0.247 NA
ENDBRANCH  43  45
ENDBRANCH  34  41
ENDBRANCH  32  34
ENDBRANCH  29  30
BRANCH  29  51
ATOM     51  C   UNL     1       5.309   0.505  27.803  0.00  0.00    -0.011 C 
ATOM     52  C   UNL     1       3.885   1.111  27.888  0.00  0.00    +0.013 C 
ATOM     53  C   UNL     1       6.085   1.010  29.039  0.00  0.00    +0.013 C 
ATOM     54  C   UNL     1       5.171  -1.020  27.904  0.00  0.00    +0.013 C 
ENDBRANCH  29  51
ENDBRANCH   3  29
TORSDOF 15
ENDMDL
MODEL 7
REMARK VINA RESULT:      -5.7      1.429      1.870
REMARK  Name = 
REMARK  19 active torsions:
REMARK  status: ('A' for Active; 'I' for Inactive)
REMARK    1  A    between atoms: C_1  and  C_2
REMARK    2  A    between atoms: C_2  and  C_3
REMARK    3  A    between atoms: C_3  and  C_4
REMARK    4  A    between atoms: C_4  and  C_6
REMARK    5  A    between atoms: C_4  and  N_15
REMARK    6  A    between atoms: C_6  and  C_8
REMARK    7  A    between atoms: C_6  and  O_14
REMARK    8  A    between atoms: N_10  and  C_11
REMARK    9  A    between atoms: C_16  and  C_18
REMARK   10  A    between atoms: C_29  and  C_31
REMARK   11  A    between atoms: C_31  and  C_33
REMARK   12  A    between atoms: C_31  and  N_37
REMARK   13  A    between atoms: C_33  and  C_34
REMARK   14  A    between atoms: C_33  and  C_35
REMARK   15  A    between atoms: C_33  and  C_36
REMARK   16  A    between atoms: C_38  and  C_40
REMARK   17  A    between atoms: C_40  and  C_42
REMARK   18  A    between atoms: C_40  and  N_48
REMARK   19  A    between atoms: C_49  and  C_51
REMARK                            x       y       z     vdW  Elec       q    Type
REMARK                         _______ _______ _______ _____ _____    ______ ____
ROOT
ATOM      1  C   UNL     1       5.438   2.527  23.569  0.00  0.00    +0.165 C 
ATOM      2  N   UNL     1       5.124   2.160  24.974  0.00  0.00    -0.288 N 
ATOM      3  C   UNL     1       5.667   1.033  25.586  0.00  0.00    +0.237 C 
ATOM      4  O   UNL     1       6.636   0.479  25.064  0.00  0.00    -0.274 OA
ATOM      5  C   UNL     1       4.039   2.978  25.497  0.00  0.00    +0.112 C 
ATOM      6  C   UNL     1       3.528   3.825  24.341  0.00  0.00    +0.012 C 
ATOM      7  C   UNL     1       2.326   3.237  23.597  0.00  0.00    +0.005 C 
ATOM      8  C   UNL     1       2.647   3.288  22.106  0.00  0.00    +0.001 C 
ATOM      9  C   UNL     1       3.984   4.003  21.984  0.00  0.00    +0.006 C 
ATOM     10  C   UNL     1       4.674   3.852  23.339  0.00  0.00    +0.023 C 
ENDROOT
BRANCH   1  13
ATOM     11  N   UNL     1       7.483   1.456  22.754  0.00  0.00    -0.308 N 
ATOM     12  H   UNL     1       7.199   0.690  23.373  0.00  0.00    +0.149 HD
ATOM     13  C   UNL     1       6.910   2.673  23.090  0.00  0.00    +0.234 C 
ATOM     14  O   UNL     1       7.483   3.751  22.967  0.00  0.00    -0.274 OA
BRANCH  11  15
ATOM     15  C   UNL     1       8.762   1.348  22.037  0.00  0.00    +0.110 C 
BRANCH  15  16
ATOM     16  C   UNL     1       9.936   1.737  22.968  0.00  0.00    +0.025 C 
BRANCH  16  18
ATOM     17  C   UNL     1      10.812   0.375  24.906  0.00  0.00    +0.004 C 
ATOM     18  C   UNL     1       9.726   1.331  24.431  0.00  0.00    -0.001 C 
ENDBRANCH  16  18
ENDBRANCH  15  16
BRANCH  15  19
ATOM     19  C   UNL     1       8.971  -0.102  21.491  0.00  0.00    +0.220 C 
BRANCH  19  20
ATOM     20  C   UNL     1       8.202  -1.125  22.338  0.00  0.00    +0.244 C 
ATOM     21  N   UNL     1       9.016  -2.042  22.980  0.00  0.00    -0.310 N 
ATOM     22  H   UNL     1      10.025  -1.937  22.874  0.00  0.00    +0.149 HD
ATOM     23  O   UNL     1       6.977  -1.128  22.419  0.00  0.00    -0.273 OA
BRANCH  21  24
ATOM     24  C   UNL     1       8.480  -3.090  23.782  0.00  0.00    +0.073 C 
ATOM     25  C   UNL     1       8.225  -2.921  25.253  0.00  0.00    +0.024 C 
ATOM     26  C   UNL     1       9.350  -3.797  24.786  0.00  0.00    +0.024 C 
ENDBRANCH  21  24
ENDBRANCH  19  20
BRANCH  19  27
ATOM     27  O   UNL     1      10.357  -0.486  21.505  0.00  0.00    -0.381 OA
ATOM     28  H   UNL     1      10.781  -0.064  20.736  0.00  0.00    +0.211 HD
ENDBRANCH  19  27
ENDBRANCH  15  19
ENDBRANCH  11  15
ENDBRANCH   1  13
BRANCH   3  29
ATOM     29  C   UNL     1       4.976   0.426  26.879  0.00  0.00    +0.164 C 
BRANCH  29  30
ATOM     30  N   UNL     1       4.958  -1.057  26.841  0.00  0.00    -0.302 N 
ATOM     31  H   UNL     1       5.851  -1.535  26.946  0.00  0.00    +0.150 HD
ATOM     32  C   UNL     1       3.845  -1.852  26.642  0.00  0.00    +0.234 C 
ATOM     33  O   UNL     1       2.714  -1.408  26.463  0.00  0.00    -0.274 OA
BRANCH  32  34
ATOM     34  C   UNL     1       4.056  -3.377  26.790  0.00  0.00    +0.162 C 
BRANCH  34  35
ATOM     35  C   UNL     1       4.643  -3.855  28.150  0.00  0.00    +0.018 C 
ATOM     36  C   UNL     1       5.736  -4.932  28.019  0.00  0.00    +0.006 C 
ATOM     37  C   UNL     1       5.204  -6.354  27.953  0.00  0.00    +0.000 C 
ATOM     38  C   UNL     1       4.248  -6.629  29.100  0.00  0.00    +0.000 C 
ATOM     39  C   UNL     1       3.098  -5.641  29.157  0.00  0.00    +0.000 C 
ATOM     40  C   UNL     1       3.604  -4.215  29.228  0.00  0.00    +0.006 C 
ENDBRANCH  34  35
BRANCH  34  41
ATOM     41  N   UNL     1       4.787  -3.935  25.649  0.00  0.00    -0.298 N 
ATOM     42  H   UNL     1       5.771  -3.721  25.511  0.00  0.00    +0.150 HD
ATOM     43  C   UNL     1       4.110  -4.353  24.514  0.00  0.00    +0.264 C 
ATOM     44  O   UNL     1       2.891  -4.402  24.414  0.00  0.00    -0.268 OA
BRANCH  43  45
ATOM     45  C   UNL     1       4.971  -4.738  23.368  0.00  0.00    +0.143 A 
ATOM     46  C   UNL     1       5.584  -5.984  23.367  0.00  0.00    +0.143 A 
ATOM     47  N   UNL     1       6.373  -6.398  22.343  0.00  0.00    -0.259 NA
ATOM     48  C   UNL     1       6.517  -5.512  21.333  0.00  0.00    +0.130 A 
ATOM     49  C   UNL     1       5.909  -4.263  21.341  0.00  0.00    +0.131 A 
ATOM     50  N   UNL     1       5.116  -3.837  22.354  0.00  0.00    -0.247 NA
ENDBRANCH  43  45
ENDBRANCH  34  41
ENDBRANCH  32  34
ENDBRANCH  29  30
BRANCH  29  51
ATOM     51  C   UNL     1       5.396   1.045  28.259  0.00  0.00    -0.011 C 
ATOM     52  C   UNL     1       6.941   1.154  28.327  0.00  0.00    +0.013 C 
ATOM     53  C   UNL     1       4.962   0.118  29.414  0.00  0.00    +0.013 C 
ATOM     54  C   UNL     1       4.822   2.446  28.517  0.00  0.00    +0.013 C 
ENDBRANCH  29  51
ENDBRANCH   3  29
TORSDOF 15
ENDMDL
MODEL 8
REMARK VINA RESULT:      -5.7      2.497      5.758
REMARK  Name = 
REMARK  19 active torsions:
REMARK  status: ('A' for Active; 'I' for Inactive)
REMARK    1  A    between atoms: C_1  and  C_2
REMARK    2  A    between atoms: C_2  and  C_3
REMARK    3  A    between atoms: C_3  and  C_4
REMARK    4  A    between atoms: C_4  and  C_6
REMARK    5  A    between atoms: C_4  and  N_15
REMARK    6  A    between atoms: C_6  and  C_8
REMARK    7  A    between atoms: C_6  and  O_14
REMARK    8  A    between atoms: N_10  and  C_11
REMARK    9  A    between atoms: C_16  and  C_18
REMARK   10  A    between atoms: C_29  and  C_31
REMARK   11  A    between atoms: C_31  and  C_33
REMARK   12  A    between atoms: C_31  and  N_37
REMARK   13  A    between atoms: C_33  and  C_34
REMARK   14  A    between atoms: C_33  and  C_35
REMARK   15  A    between atoms: C_33  and  C_36
REMARK   16  A    between atoms: C_38  and  C_40
REMARK   17  A    between atoms: C_40  and  C_42
REMARK   18  A    between atoms: C_40  and  N_48
REMARK   19  A    between atoms: C_49  and  C_51
REMARK                            x       y       z     vdW  Elec       q    Type
REMARK                         _______ _______ _______ _____ _____    ______ ____
ROOT
ATOM      1  C   UNL     1       5.735   4.257  27.088  0.00  0.00    +0.165 C 
ATOM      2  N   UNL     1       5.869   2.800  26.828  0.00  0.00    -0.288 N 
ATOM      3  C   UNL     1       5.038   2.126  25.937  0.00  0.00    +0.237 C 
ATOM      4  O   UNL     1       4.365   2.779  25.139  0.00  0.00    -0.274 OA
ATOM      5  C   UNL     1       6.787   2.184  27.775  0.00  0.00    +0.112 C 
ATOM      6  C   UNL     1       7.167   3.257  28.785  0.00  0.00    +0.012 C 
ATOM      7  C   UNL     1       6.325   3.263  30.064  0.00  0.00    +0.005 C 
ATOM      8  C   UNL     1       5.866   4.699  30.297  0.00  0.00    +0.001 C 
ATOM      9  C   UNL     1       6.530   5.539  29.216  0.00  0.00    +0.006 C 
ATOM     10  C   UNL     1       6.877   4.576  28.081  0.00  0.00    +0.023 C 
ENDROOT
BRANCH   1  13
ATOM     11  N   UNL     1       6.549   4.876  24.864  0.00  0.00    -0.308 N 
ATOM     12  H   UNL     1       7.408   4.407  25.166  0.00  0.00    +0.149 HD
ATOM     13  C   UNL     1       5.747   5.282  25.919  0.00  0.00    +0.234 C 
ATOM     14  O   UNL     1       5.073   6.308  25.905  0.00  0.00    -0.274 OA
BRANCH  11  15
ATOM     15  C   UNL     1       6.528   5.532  23.548  0.00  0.00    +0.110 C 
BRANCH  15  16
ATOM     16  C   UNL     1       7.965   5.909  23.111  0.00  0.00    +0.025 C 
BRANCH  16  18
ATOM     17  C   UNL     1      10.391   5.943  23.813  0.00  0.00    +0.004 C 
ATOM     18  C   UNL     1       8.946   6.064  24.279  0.00  0.00    -0.001 C 
ENDBRANCH  16  18
ENDBRANCH  15  16
BRANCH  15  19
ATOM     19  C   UNL     1       5.871   4.604  22.476  0.00  0.00    +0.220 C 
BRANCH  19  20
ATOM     20  C   UNL     1       4.345   4.776  22.460  0.00  0.00    +0.244 C 
ATOM     21  N   UNL     1       3.683   3.815  21.717  0.00  0.00    -0.310 N 
ATOM     22  H   UNL     1       4.242   3.074  21.295  0.00  0.00    +0.149 HD
ATOM     23  O   UNL     1       3.778   5.697  23.043  0.00  0.00    -0.273 OA
BRANCH  21  24
ATOM     24  C   UNL     1       2.268   3.833  21.557  0.00  0.00    +0.073 C 
ATOM     25  C   UNL     1       1.354   3.026  22.434  0.00  0.00    +0.024 C 
ATOM     26  C   UNL     1       1.553   2.631  21.001  0.00  0.00    +0.024 C 
ENDBRANCH  21  24
ENDBRANCH  19  20
BRANCH  19  27
ATOM     27  O   UNL     1       6.144   3.215  22.727  0.00  0.00    -0.381 OA
ATOM     28  H   UNL     1       6.079   2.749  21.875  0.00  0.00    +0.211 HD
ENDBRANCH  19  27
ENDBRANCH  15  19
ENDBRANCH  11  15
ENDBRANCH   1  13
BRANCH   3  29
ATOM     29  C   UNL     1       4.898   0.548  26.027  0.00  0.00    +0.164 C 
BRANCH  29  30
ATOM     30  N   UNL     1       6.188  -0.129  25.747  0.00  0.00    -0.302 N 
ATOM     31  H   UNL     1       6.610  -0.657  26.508  0.00  0.00    +0.150 HD
ATOM     32  C   UNL     1       6.890  -0.082  24.557  0.00  0.00    +0.234 C 
ATOM     33  O   UNL     1       6.518   0.550  23.571  0.00  0.00    -0.274 OA
BRANCH  32  34
ATOM     34  C   UNL     1       8.138  -0.990  24.461  0.00  0.00    +0.162 C 
BRANCH  34  35
ATOM     35  C   UNL     1       9.489  -0.265  24.189  0.00  0.00    +0.018 C 
ATOM     36  C   UNL     1       9.681   1.030  24.999  0.00  0.00    +0.006 C 
ATOM     37  C   UNL     1       9.090   2.268  24.344  0.00  0.00    +0.000 C 
ATOM     38  C   UNL     1       9.567   2.401  22.909  0.00  0.00    +0.000 C 
ATOM     39  C   UNL     1       9.266   1.172  22.072  0.00  0.00    +0.000 C 
ATOM     40  C   UNL     1       9.849  -0.076  22.704  0.00  0.00    +0.006 C 
ENDBRANCH  34  35
BRANCH  34  41
ATOM     41  N   UNL     1       7.922  -2.113  23.544  0.00  0.00    -0.298 N 
ATOM     42  H   UNL     1       8.014  -1.984  22.541  0.00  0.00    +0.150 HD
ATOM     43  C   UNL     1       7.159  -3.202  23.931  0.00  0.00    +0.264 C 
ATOM     44  O   UNL     1       6.718  -3.372  25.060  0.00  0.00    -0.268 OA
BRANCH  43  45
ATOM     45  C   UNL     1       6.874  -4.190  22.860  0.00  0.00    +0.143 A 
ATOM     46  C   UNL     1       6.101  -3.809  21.772  0.00  0.00    +0.143 A 
ATOM     47  N   UNL     1       5.816  -4.662  20.756  0.00  0.00    -0.259 NA
ATOM     48  C   UNL     1       6.338  -5.903  20.884  0.00  0.00    +0.130 A 
ATOM     49  C   UNL     1       7.105  -6.283  21.978  0.00  0.00    +0.131 A 
ATOM     50  N   UNL     1       7.400  -5.441  22.998  0.00  0.00    -0.247 NA
ENDBRANCH  43  45
ENDBRANCH  34  41
ENDBRANCH  32  34
ENDBRANCH  29  30
BRANCH  29  51
ATOM     51  C   UNL     1       4.108  -0.021  27.259  0.00  0.00    -0.011 C 
ATOM     52  C   UNL     1       3.196   1.088  27.844  0.00  0.00    +0.013 C 
ATOM     53  C   UNL     1       5.089  -0.430  28.378  0.00  0.00    +0.013 C 
ATOM     54  C   UNL     1       3.217  -1.226  26.927  0.00  0.00    +0.013 C 
ENDBRANCH  29  51
ENDBRANCH   3  29
TORSDOF 15
ENDMDL
MODEL 9
REMARK VINA RESULT:      -5.7      1.903      8.957
REMARK  Name = 
REMARK  19 active torsions:
REMARK  status: ('A' for Active; 'I' for Inactive)
REMARK    1  A    between atoms: C_1  and  C_2
REMARK    2  A    between atoms: C_2  and  C_3
REMARK    3  A    between atoms: C_3  and  C_4
REMARK    4  A    between atoms: C_4  and  C_6
REMARK    5  A    between atoms: C_4  and  N_15
REMARK    6  A    between atoms: C_6  and  C_8
REMARK    7  A    between atoms: C_6  and  O_14
REMARK    8  A    between atoms: N_10  and  C_11
REMARK    9  A    between atoms: C_16  and  C_18
REMARK   10  A    between atoms: C_29  and  C_31
REMARK   11  A    between atoms: C_31  and  C_33
REMARK   12  A    between atoms: C_31  and  N_37
REMARK   13  A    between atoms: C_33  and  C_34
REMARK   14  A    between atoms: C_33  and  C_35
REMARK   15  A    between atoms: C_33  and  C_36
REMARK   16  A    between atoms: C_38  and  C_40
REMARK   17  A    between atoms: C_40  and  C_42
REMARK   18  A    between atoms: C_40  and  N_48
REMARK   19  A    between atoms: C_49  and  C_51
REMARK                            x       y       z     vdW  Elec       q    Type
REMARK                         _______ _______ _______ _____ _____    ______ ____
ROOT
ATOM      1  C   UNL     1       5.187  -4.165  23.645  0.00  0.00    +0.165 C 
ATOM      2  N   UNL     1       6.296  -3.237  23.986  0.00  0.00    -0.288 N 
ATOM      3  C   UNL     1       6.075  -1.901  24.310  0.00  0.00    +0.237 C 
ATOM      4  O   UNL     1       4.932  -1.539  24.596  0.00  0.00    -0.274 OA
ATOM      5  C   UNL     1       7.589  -3.846  23.707  0.00  0.00    +0.112 C 
ATOM      6  C   UNL     1       7.312  -5.179  23.027  0.00  0.00    +0.012 C 
ATOM      7  C   UNL     1       7.338  -5.136  21.496  0.00  0.00    +0.005 C 
ATOM      8  C   UNL     1       6.068  -5.822  21.003  0.00  0.00    +0.001 C 
ATOM      9  C   UNL     1       5.364  -6.356  22.241  0.00  0.00    +0.006 C 
ATOM     10  C   UNL     1       5.881  -5.527  23.416  0.00  0.00    +0.023 C 
ENDROOT
BRANCH   1  13
ATOM     11  N   UNL     1       4.355  -4.596  25.907  0.00  0.00    -0.308 N 
ATOM     12  H   UNL     1       5.178  -5.203  25.977  0.00  0.00    +0.149 HD
ATOM     13  C   UNL     1       3.972  -4.342  24.600  0.00  0.00    +0.234 C 
ATOM     14  O   UNL     1       2.803  -4.212  24.247  0.00  0.00    -0.274 OA
BRANCH  11  15
ATOM     15  C   UNL     1       3.416  -4.546  27.037  0.00  0.00    +0.110 C 
BRANCH  15  16
ATOM     16  C   UNL     1       3.441  -5.884  27.817  0.00  0.00    +0.025 C 
BRANCH  16  18
ATOM     17  C   UNL     1       5.680  -6.741  28.611  0.00  0.00    +0.004 C 
ATOM     18  C   UNL     1       4.649  -6.768  27.491  0.00  0.00    -0.001 C 
ENDBRANCH  16  18
ENDBRANCH  15  16
BRANCH  15  19
ATOM     19  C   UNL     1       3.765  -3.363  27.997  0.00  0.00    +0.220 C 
BRANCH  19  20
ATOM     20  C   UNL     1       3.336  -2.019  27.392  0.00  0.00    +0.244 C 
ATOM     21  N   UNL     1       4.128  -0.954  27.781  0.00  0.00    -0.310 N 
ATOM     22  H   UNL     1       4.929  -1.152  28.381  0.00  0.00    +0.149 HD
ATOM     23  O   UNL     1       2.367  -1.910  26.645  0.00  0.00    -0.273 OA
BRANCH  21  24
ATOM     24  C   UNL     1       3.862   0.377  27.350  0.00  0.00    +0.073 C 
ATOM     25  C   UNL     1       4.935   1.265  26.788  0.00  0.00    +0.024 C 
ATOM     26  C   UNL     1       4.370   1.548  28.147  0.00  0.00    +0.024 C 
ENDBRANCH  21  24
ENDBRANCH  19  20
BRANCH  19  27
ATOM     27  O   UNL     1       5.176  -3.285  28.263  0.00  0.00    -0.381 OA
ATOM     28  H   UNL     1       5.396  -4.011  28.873  0.00  0.00    +0.211 HD
ENDBRANCH  19  27
ENDBRANCH  15  19
ENDBRANCH  11  15
ENDBRANCH   1  13
BRANCH   3  29
ATOM     29  C   UNL     1       7.265  -0.857  24.213  0.00  0.00    +0.164 C 
BRANCH  29  30
ATOM     30  N   UNL     1       6.787   0.471  23.755  0.00  0.00    -0.302 N 
ATOM     31  H   UNL     1       6.061   0.920  24.309  0.00  0.00    +0.150 HD
ATOM     32  C   UNL     1       7.213   1.142  22.624  0.00  0.00    +0.234 C 
ATOM     33  O   UNL     1       8.053   0.700  21.845  0.00  0.00    -0.274 OA
BRANCH  32  34
ATOM     34  C   UNL     1       6.672   2.579  22.436  0.00  0.00    +0.162 C 
BRANCH  34  35
ATOM     35  C   UNL     1       7.745   3.701  22.319  0.00  0.00    +0.018 C 
ATOM     36  C   UNL     1       8.891   3.583  23.341  0.00  0.00    +0.006 C 
ATOM     37  C   UNL     1       8.604   4.244  24.678  0.00  0.00    +0.000 C 
ATOM     38  C   UNL     1       8.139   5.676  24.487  0.00  0.00    +0.000 C 
ATOM     39  C   UNL     1       6.929   5.786  23.578  0.00  0.00    +0.000 C 
ATOM     40  C   UNL     1       7.193   5.137  22.235  0.00  0.00    +0.006 C 
ENDBRANCH  34  35
BRANCH  34  41
ATOM     41  N   UNL     1       5.642   2.904  23.426  0.00  0.00    -0.298 N 
ATOM     42  H   UNL     1       5.731   2.586  24.387  0.00  0.00    +0.150 HD
ATOM     43  C   UNL     1       4.352   3.216  23.026  0.00  0.00    +0.264 C 
ATOM     44  O   UNL     1       4.005   3.359  21.861  0.00  0.00    -0.268 OA
BRANCH  43  45
ATOM     45  C   UNL     1       3.365   3.359  24.125  0.00  0.00    +0.143 A 
ATOM     46  C   UNL     1       3.706   4.086  25.257  0.00  0.00    +0.143 A 
ATOM     47  N   UNL     1       2.843   4.261  26.289  0.00  0.00    -0.259 NA
ATOM     48  C   UNL     1       1.633   3.677  26.133  0.00  0.00    +0.130 A 
ATOM     49  C   UNL     1       1.297   2.944  25.002  0.00  0.00    +0.131 A 
ATOM     50  N   UNL     1       2.148   2.763  23.962  0.00  0.00    -0.247 NA
ENDBRANCH  43  45
ENDBRANCH  34  41
ENDBRANCH  32  34
ENDBRANCH  29  30
BRANCH  29  51
ATOM     51  C   UNL     1       8.268  -0.816  25.420  0.00  0.00    -0.011 C 
ATOM     52  C   UNL     1       8.357   0.631  25.969  0.00  0.00    +0.013 C 
ATOM     53  C   UNL     1       9.686  -1.203  24.948  0.00  0.00    +0.013 C 
ATOM     54  C   UNL     1       7.877  -1.732  26.589  0.00  0.00    +0.013 C 
ENDBRANCH  29  51
ENDBRANCH   3  29
TORSDOF 15
ENDMDL
