MODEL 1
REMARK VINA RESULT:      -6.4      0.000      0.000
REMARK  Name = 
REMARK  18 active torsions:
REMARK  status: ('A' for Active; 'I' for Inactive)
REMARK    1  A    between atoms: C_1  and  C_2
REMARK    2  A    between atoms: C_2  and  C_41
REMARK    3  A    between atoms: C_7  and  C_27
REMARK    4  A    between atoms: C_11  and  C_13
REMARK    5  A    between atoms: C_13  and  C_15
REMARK    6  A    between atoms: C_13  and  N_19
REMARK    7  A    between atoms: C_15  and  C_16
REMARK    8  A    between atoms: C_15  and  C_17
REMARK    9  A    between atoms: C_15  and  C_18
REMARK   10  A    between atoms: N_22  and  C_23
REMARK   11  A    between atoms: C_23  and  C_24
REMARK   12  A    between atoms: C_23  and  C_25
REMARK   13  A    between atoms: C_23  and  C_26
REMARK   14  A    between atoms: N_29  and  C_30
REMARK   15  A    between atoms: C_30  and  C_31
REMARK   16  A    between atoms: C_30  and  C_36
REMARK   17  A    between atoms: C_31  and  C_32
REMARK   18  A    between atoms: C_36  and  C_38
REMARK                            x       y       z     vdW  Elec       q    Type
REMARK                         _______ _______ _______ _____ _____    ______ ____
ROOT
ATOM      1  C   UNL     1       3.431   0.188  28.673  0.00  0.00    +0.011 C 
ATOM      2  C   UNL     1       4.543  -0.532  27.933  0.00  0.00    -0.025 C 
ATOM      3  C   UNL     1       5.887   0.099  28.201  0.00  0.00    +0.011 C 
ATOM      4  C   UNL     1       4.068  -1.199  26.629  0.00  0.00    +0.030 C 
ATOM      5  C   UNL     1       4.855  -1.644  25.401  0.00  0.00    +0.166 C 
ATOM      6  N   UNL     1       5.477  -2.897  25.849  0.00  0.00    -0.288 N 
ATOM      7  C   UNL     1       5.622  -4.112  25.187  0.00  0.00    +0.237 C 
ATOM      8  O   UNL     1       6.021  -5.086  25.838  0.00  0.00    -0.274 OA
ATOM      9  C   UNL     1       5.633  -2.902  27.303  0.00  0.00    +0.113 C 
ATOM     10  C   UNL     1       4.503  -2.041  27.794  0.00  0.00    +0.018 C 
ENDROOT
BRANCH   5  11
ATOM     11  C   UNL     1       5.720  -0.446  24.854  0.00  0.00    +0.234 C 
ATOM     12  N   UNL     1       7.040  -0.814  24.621  0.00  0.00    -0.304 N 
ATOM     13  H   UNL     1       7.342  -1.630  25.128  0.00  0.00    +0.149 HD
ATOM     14  O   UNL     1       5.283   0.675  24.602  0.00  0.00    -0.274 OA
BRANCH  12  15
ATOM     15  C   UNL     1       8.104   0.082  24.129  0.00  0.00    +0.149 C 
BRANCH  15  16
ATOM     16  C   UNL     1       9.330  -0.627  23.523  0.00  0.00    +0.237 C 
ATOM     17  O   UNL     1      10.113  -1.349  24.137  0.00  0.00    -0.285 OA
BRANCH  16  18
ATOM     18  C   UNL     1       9.655  -0.259  22.062  0.00  0.00    +0.279 C 
ATOM     19  N   UNL     1       9.537  -1.282  21.162  0.00  0.00    -0.323 N 
ATOM     20  H   UNL     1       9.730  -1.115  20.179  0.00  0.00    +0.145 HD
ATOM     21  H   UNL     1       9.234  -2.204  21.475  0.00  0.00    +0.145 HD
ATOM     22  O   UNL     1      10.022   0.862  21.744  0.00  0.00    -0.267 OA
ENDBRANCH  16  18
ENDBRANCH  15  16
BRANCH  15  23
ATOM     23  C   UNL     1       8.568   1.030  25.267  0.00  0.00    +0.034 C 
BRANCH  23  24
ATOM     24  C   UNL     1       8.432   2.515  24.910  0.00  0.00    -0.009 C 
ATOM     25  C   UNL     1       7.601   2.917  23.651  0.00  0.00    +0.003 C 
ATOM     26  C   UNL     1       8.563   4.113  23.508  0.00  0.00    +0.001 C 
ATOM     27  C   UNL     1       9.626   3.208  24.179  0.00  0.00    +0.003 C 
ENDBRANCH  23  24
ENDBRANCH  15  23
ENDBRANCH  12  15
ENDBRANCH   5  11
BRANCH   7  28
ATOM     28  C   UNL     1       5.187  -4.330  23.688  0.00  0.00    +0.166 C 
BRANCH  28  29
ATOM     29  N   UNL     1       4.493  -5.629  23.529  0.00  0.00    -0.288 N 
ATOM     30  H   UNL     1       5.042  -6.417  23.211  0.00  0.00    +0.151 HD
ATOM     31  C   UNL     1       3.125  -5.720  23.540  0.00  0.00    +0.301 C 
ATOM     32  N   UNL     1       2.638  -6.935  23.135  0.00  0.00    -0.295 N 
ATOM     33  H   UNL     1       3.297  -7.631  22.820  0.00  0.00    +0.151 HD
ATOM     34  O   UNL     1       2.421  -4.774  23.881  0.00  0.00    -0.253 OA
BRANCH  32  35
ATOM     35  C   UNL     1       1.192  -7.250  23.013  0.00  0.00    +0.028 C 
ATOM     36  C   UNL     1       0.479  -6.207  22.133  0.00  0.00    +0.031 C 
ATOM     37  C   UNL     1       0.525  -7.211  24.406  0.00  0.00    +0.031 C 
ATOM     38  C   UNL     1       0.964  -8.662  22.439  0.00  0.00    +0.031 C 
ENDBRANCH  32  35
ENDBRANCH  28  29
BRANCH  28  39
ATOM     39  C   UNL     1       6.406  -4.238  22.663  0.00  0.00    -0.011 C 
ATOM     40  C   UNL     1       6.167  -3.043  21.720  0.00  0.00    +0.013 C 
ATOM     41  C   UNL     1       6.514  -5.502  21.766  0.00  0.00    +0.013 C 
ATOM     42  C   UNL     1       7.801  -4.100  23.325  0.00  0.00    +0.013 C 
ENDBRANCH  28  39
ENDBRANCH   7  28
TORSDOF 10
ENDMDL
MODEL 2
REMARK VINA RESULT:      -6.4      3.226      7.425
REMARK  Name = 
REMARK  18 active torsions:
REMARK  status: ('A' for Active; 'I' for Inactive)
REMARK    1  A    between atoms: C_1  and  C_2
REMARK    2  A    between atoms: C_2  and  C_41
REMARK    3  A    between atoms: C_7  and  C_27
REMARK    4  A    between atoms: C_11  and  C_13
REMARK    5  A    between atoms: C_13  and  C_15
REMARK    6  A    between atoms: C_13  and  N_19
REMARK    7  A    between atoms: C_15  and  C_16
REMARK    8  A    between atoms: C_15  and  C_17
REMARK    9  A    between atoms: C_15  and  C_18
REMARK   10  A    between atoms: N_22  and  C_23
REMARK   11  A    between atoms: C_23  and  C_24
REMARK   12  A    between atoms: C_23  and  C_25
REMARK   13  A    between atoms: C_23  and  C_26
REMARK   14  A    between atoms: N_29  and  C_30
REMARK   15  A    between atoms: C_30  and  C_31
REMARK   16  A    between atoms: C_30  and  C_36
REMARK   17  A    between atoms: C_31  and  C_32
REMARK   18  A    between atoms: C_36  and  C_38
REMARK                            x       y       z     vdW  Elec       q    Type
REMARK                         _______ _______ _______ _____ _____    ______ ____
ROOT
ATOM      1  C   UNL     1       3.663  -4.460  27.836  0.00  0.00    +0.011 C 
ATOM      2  C   UNL     1       3.775  -3.115  27.142  0.00  0.00    -0.025 C 
ATOM      3  C   UNL     1       3.397  -3.209  25.685  0.00  0.00    +0.011 C 
ATOM      4  C   UNL     1       4.838  -2.195  27.774  0.00  0.00    +0.030 C 
ATOM      5  C   UNL     1       5.571  -0.990  27.198  0.00  0.00    +0.166 C 
ATOM      6  N   UNL     1       4.562   0.075  27.278  0.00  0.00    -0.288 N 
ATOM      7  C   UNL     1       4.689   1.403  27.673  0.00  0.00    +0.237 C 
ATOM      8  O   UNL     1       3.656   2.065  27.833  0.00  0.00    -0.274 OA
ATOM      9  C   UNL     1       3.214  -0.492  27.256  0.00  0.00    +0.113 C 
ATOM     10  C   UNL     1       3.380  -1.851  27.879  0.00  0.00    +0.018 C 
ENDROOT
BRANCH   5  11
ATOM     11  C   UNL     1       6.252  -1.376  25.830  0.00  0.00    +0.234 C 
ATOM     12  N   UNL     1       7.138  -2.438  25.965  0.00  0.00    -0.304 N 
ATOM     13  H   UNL     1       7.479  -2.582  26.901  0.00  0.00    +0.149 HD
ATOM     14  O   UNL     1       5.999  -0.847  24.749  0.00  0.00    -0.274 OA
BRANCH  12  15
ATOM     15  C   UNL     1       7.946  -3.021  24.876  0.00  0.00    +0.149 C 
BRANCH  15  16
ATOM     16  C   UNL     1       8.247  -4.525  25.017  0.00  0.00    +0.237 C 
ATOM     17  O   UNL     1       9.053  -5.159  24.340  0.00  0.00    -0.285 OA
BRANCH  16  18
ATOM     18  C   UNL     1       7.336  -5.295  25.993  0.00  0.00    +0.279 C 
ATOM     19  N   UNL     1       7.953  -5.765  27.120  0.00  0.00    -0.323 N 
ATOM     20  H   UNL     1       7.416  -6.278  27.813  0.00  0.00    +0.145 HD
ATOM     21  H   UNL     1       8.944  -5.581  27.273  0.00  0.00    +0.145 HD
ATOM     22  O   UNL     1       6.154  -5.494  25.755  0.00  0.00    -0.267 OA
ENDBRANCH  16  18
ENDBRANCH  15  16
BRANCH  15  23
ATOM     23  C   UNL     1       9.280  -2.241  24.730  0.00  0.00    +0.034 C 
BRANCH  23  24
ATOM     24  C   UNL     1       9.295  -1.289  23.528  0.00  0.00    -0.009 C 
ATOM     25  C   UNL     1       8.349  -1.581  22.321  0.00  0.00    +0.003 C 
ATOM     26  C   UNL     1       9.434  -0.940  21.432  0.00  0.00    +0.001 C 
ATOM     27  C   UNL     1      10.451  -1.438  22.487  0.00  0.00    +0.003 C 
ENDBRANCH  23  24
ENDBRANCH  15  23
ENDBRANCH  12  15
ENDBRANCH   5  11
BRANCH   7  28
ATOM     28  C   UNL     1       6.074   2.059  28.042  0.00  0.00    +0.166 C 
BRANCH  28  29
ATOM     29  N   UNL     1       7.129   1.619  27.101  0.00  0.00    -0.288 N 
ATOM     30  H   UNL     1       7.768   0.901  27.415  0.00  0.00    +0.151 HD
ATOM     31  C   UNL     1       7.416   2.326  25.961  0.00  0.00    +0.301 C 
ATOM     32  N   UNL     1       8.570   1.936  25.332  0.00  0.00    -0.295 N 
ATOM     33  H   UNL     1       9.129   1.218  25.767  0.00  0.00    +0.151 HD
ATOM     34  O   UNL     1       6.688   3.232  25.566  0.00  0.00    -0.253 OA
BRANCH  32  35
ATOM     35  C   UNL     1       9.112   2.590  24.114  0.00  0.00    +0.028 C 
ATOM     36  C   UNL     1       8.254   2.246  22.883  0.00  0.00    +0.031 C 
ATOM     37  C   UNL     1      10.543   2.081  23.836  0.00  0.00    +0.031 C 
ATOM     38  C   UNL     1       9.197   4.120  24.280  0.00  0.00    +0.031 C 
ENDBRANCH  32  35
ENDBRANCH  28  29
BRANCH  28  39
ATOM     39  C   UNL     1       6.528   1.759  29.542  0.00  0.00    -0.011 C 
ATOM     40  C   UNL     1       6.829   3.098  30.243  0.00  0.00    +0.013 C 
ATOM     41  C   UNL     1       7.834   0.920  29.602  0.00  0.00    +0.013 C 
ATOM     42  C   UNL     1       5.502   0.957  30.383  0.00  0.00    +0.013 C 
ENDBRANCH  28  39
ENDBRANCH   7  28
TORSDOF 10
ENDMDL
MODEL 3
REMARK VINA RESULT:      -6.3      2.846      6.639
REMARK  Name = 
REMARK  18 active torsions:
REMARK  status: ('A' for Active; 'I' for Inactive)
REMARK    1  A    between atoms: C_1  and  C_2
REMARK    2  A    between atoms: C_2  and  C_41
REMARK    3  A    between atoms: C_7  and  C_27
REMARK    4  A    between atoms: C_11  and  C_13
REMARK    5  A    between atoms: C_13  and  C_15
REMARK    6  A    between atoms: C_13  and  N_19
REMARK    7  A    between atoms: C_15  and  C_16
REMARK    8  A    between atoms: C_15  and  C_17
REMARK    9  A    between atoms: C_15  and  C_18
REMARK   10  A    between atoms: N_22  and  C_23
REMARK   11  A    between atoms: C_23  and  C_24
REMARK   12  A    between atoms: C_23  and  C_25
REMARK   13  A    between atoms: C_23  and  C_26
REMARK   14  A    between atoms: N_29  and  C_30
REMARK   15  A    between atoms: C_30  and  C_31
REMARK   16  A    between atoms: C_30  and  C_36
REMARK   17  A    between atoms: C_31  and  C_32
REMARK   18  A    between atoms: C_36  and  C_38
REMARK                            x       y       z     vdW  Elec       q    Type
REMARK                         _______ _______ _______ _____ _____    ______ ____
ROOT
ATOM      1  C   UNL     1       9.831   1.117  21.836  0.00  0.00    +0.011 C 
ATOM      2  C   UNL     1       9.503   0.196  22.996  0.00  0.00    -0.025 C 
ATOM      3  C   UNL     1      10.045  -1.194  22.770  0.00  0.00    +0.011 C 
ATOM      4  C   UNL     1       8.206   0.585  23.730  0.00  0.00    +0.030 C 
ATOM      5  C   UNL     1       7.294  -0.239  24.631  0.00  0.00    +0.166 C 
ATOM      6  N   UNL     1       8.034  -0.276  25.899  0.00  0.00    -0.288 N 
ATOM      7  C   UNL     1       7.580  -0.126  27.206  0.00  0.00    +0.237 C 
ATOM      8  O   UNL     1       8.423  -0.012  28.105  0.00  0.00    -0.274 OA
ATOM      9  C   UNL     1       9.468  -0.107  25.663  0.00  0.00    +0.113 C 
ATOM     10  C   UNL     1       9.535   0.728  24.415  0.00  0.00    +0.018 C 
ENDROOT
BRANCH   5  11
ATOM     11  C   UNL     1       6.861  -1.563  23.893  0.00  0.00    +0.234 C 
ATOM     12  N   UNL     1       6.944  -2.677  24.720  0.00  0.00    -0.304 N 
ATOM     13  H   UNL     1       7.558  -2.568  25.510  0.00  0.00    +0.149 HD
ATOM     14  O   UNL     1       6.445  -1.616  22.738  0.00  0.00    -0.274 OA
BRANCH  12  15
ATOM     15  C   UNL     1       6.628  -4.063  24.322  0.00  0.00    +0.149 C 
BRANCH  15  16
ATOM     16  C   UNL     1       6.243  -5.005  25.478  0.00  0.00    +0.237 C 
ATOM     17  O   UNL     1       5.304  -5.798  25.471  0.00  0.00    -0.285 OA
BRANCH  16  18
ATOM     18  C   UNL     1       7.027  -4.801  26.790  0.00  0.00    +0.279 C 
ATOM     19  N   UNL     1       7.808  -5.857  27.173  0.00  0.00    -0.323 N 
ATOM     20  H   UNL     1       8.358  -5.794  28.025  0.00  0.00    +0.145 HD
ATOM     21  H   UNL     1       7.853  -6.694  26.594  0.00  0.00    +0.145 HD
ATOM     22  O   UNL     1       6.928  -3.777  27.450  0.00  0.00    -0.267 OA
ENDBRANCH  16  18
ENDBRANCH  15  16
BRANCH  15  23
ATOM     23  C   UNL     1       7.820  -4.673  23.537  0.00  0.00    +0.034 C 
BRANCH  23  24
ATOM     24  C   UNL     1       7.449  -5.101  22.112  0.00  0.00    -0.009 C 
ATOM     25  C   UNL     1       6.111  -4.588  21.493  0.00  0.00    +0.003 C 
ATOM     26  C   UNL     1       6.066  -5.918  20.714  0.00  0.00    +0.001 C 
ATOM     27  C   UNL     1       6.844  -6.526  21.906  0.00  0.00    +0.003 C 
ENDBRANCH  23  24
ENDBRANCH  15  23
ENDBRANCH  12  15
ENDBRANCH   5  11
BRANCH   7  28
ATOM     28  C   UNL     1       6.055   0.029  27.573  0.00  0.00    +0.166 C 
BRANCH  28  29
ATOM     29  N   UNL     1       5.240  -0.974  26.851  0.00  0.00    -0.288 N 
ATOM     30  H   UNL     1       5.197  -0.907  25.843  0.00  0.00    +0.151 HD
ATOM     31  C   UNL     1       4.358  -1.792  27.510  0.00  0.00    +0.301 C 
ATOM     32  N   UNL     1       3.506  -2.482  26.687  0.00  0.00    -0.295 N 
ATOM     33  H   UNL     1       3.555  -2.304  25.696  0.00  0.00    +0.151 HD
ATOM     34  O   UNL     1       4.349  -1.873  28.735  0.00  0.00    -0.253 OA
BRANCH  32  35
ATOM     35  C   UNL     1       2.432  -3.384  27.174  0.00  0.00    +0.028 C 
ATOM     36  C   UNL     1       3.031  -4.611  27.885  0.00  0.00    +0.031 C 
ATOM     37  C   UNL     1       1.601  -3.905  25.980  0.00  0.00    +0.031 C 
ATOM     38  C   UNL     1       1.461  -2.653  28.121  0.00  0.00    +0.031 C 
ENDBRANCH  32  35
ENDBRANCH  28  29
BRANCH  28  39
ATOM     39  C   UNL     1       5.489   1.494  27.286  0.00  0.00    -0.011 C 
ATOM     40  C   UNL     1       4.572   1.904  28.455  0.00  0.00    +0.013 C 
ATOM     41  C   UNL     1       4.623   1.545  25.998  0.00  0.00    +0.013 C 
ATOM     42  C   UNL     1       6.575   2.580  27.079  0.00  0.00    +0.013 C 
ENDBRANCH  28  39
ENDBRANCH   7  28
TORSDOF 10
ENDMDL
MODEL 4
REMARK VINA RESULT:      -6.3      2.629      7.909
REMARK  Name = 
REMARK  18 active torsions:
REMARK  status: ('A' for Active; 'I' for Inactive)
REMARK    1  A    between atoms: C_1  and  C_2
REMARK    2  A    between atoms: C_2  and  C_41
REMARK    3  A    between atoms: C_7  and  C_27
REMARK    4  A    between atoms: C_11  and  C_13
REMARK    5  A    between atoms: C_13  and  C_15
REMARK    6  A    between atoms: C_13  and  N_19
REMARK    7  A    between atoms: C_15  and  C_16
REMARK    8  A    between atoms: C_15  and  C_17
REMARK    9  A    between atoms: C_15  and  C_18
REMARK   10  A    between atoms: N_22  and  C_23
REMARK   11  A    between atoms: C_23  and  C_24
REMARK   12  A    between atoms: C_23  and  C_25
REMARK   13  A    between atoms: C_23  and  C_26
REMARK   14  A    between atoms: N_29  and  C_30
REMARK   15  A    between atoms: C_30  and  C_31
REMARK   16  A    between atoms: C_30  and  C_36
REMARK   17  A    between atoms: C_31  and  C_32
REMARK   18  A    between atoms: C_36  and  C_38
REMARK                            x       y       z     vdW  Elec       q    Type
REMARK                         _______ _______ _______ _____ _____    ______ ____
ROOT
ATOM      1  C   UNL     1       5.270  -5.402  22.313  0.00  0.00    +0.011 C 
ATOM      2  C   UNL     1       6.392  -4.474  22.739  0.00  0.00    -0.025 C 
ATOM      3  C   UNL     1       7.565  -5.242  23.297  0.00  0.00    +0.011 C 
ATOM      4  C   UNL     1       5.894  -3.082  23.174  0.00  0.00    +0.030 C 
ATOM      5  C   UNL     1       6.560  -2.019  24.040  0.00  0.00    +0.166 C 
ATOM      6  N   UNL     1       7.535  -1.414  23.122  0.00  0.00    -0.288 N 
ATOM      7  C   UNL     1       7.866  -0.078  22.920  0.00  0.00    +0.237 C 
ATOM      8  O   UNL     1       8.590   0.203  21.957  0.00  0.00    -0.274 OA
ATOM      9  C   UNL     1       7.916  -2.366  22.078  0.00  0.00    +0.113 C 
ATOM     10  C   UNL     1       6.702  -3.238  21.918  0.00  0.00    +0.018 C 
ENDROOT
BRANCH   5  11
ATOM     11  C   UNL     1       7.007  -2.646  25.415  0.00  0.00    +0.234 C 
ATOM     12  N   UNL     1       5.942  -3.214  26.105  0.00  0.00    -0.304 N 
ATOM     13  H   UNL     1       5.036  -2.868  25.834  0.00  0.00    +0.149 HD
ATOM     14  O   UNL     1       8.166  -2.687  25.821  0.00  0.00    -0.274 OA
BRANCH  12  15
ATOM     15  C   UNL     1       6.028  -3.861  27.428  0.00  0.00    +0.149 C 
BRANCH  15  16
ATOM     16  C   UNL     1       6.458  -5.340  27.407  0.00  0.00    +0.237 C 
ATOM     17  O   UNL     1       7.568  -5.766  27.722  0.00  0.00    -0.285 OA
BRANCH  16  18
ATOM     18  C   UNL     1       5.439  -6.320  26.794  0.00  0.00    +0.279 C 
ATOM     19  N   UNL     1       4.989  -7.298  27.638  0.00  0.00    -0.323 N 
ATOM     20  H   UNL     1       4.311  -7.978  27.307  0.00  0.00    +0.145 HD
ATOM     21  H   UNL     1       5.318  -7.330  28.603  0.00  0.00    +0.145 HD
ATOM     22  O   UNL     1       5.086  -6.239  25.627  0.00  0.00    -0.267 OA
ENDBRANCH  16  18
ENDBRANCH  15  16
BRANCH  15  23
ATOM     23  C   UNL     1       4.671  -3.731  28.171  0.00  0.00    +0.034 C 
BRANCH  23  24
ATOM     24  C   UNL     1       3.568  -3.105  27.309  0.00  0.00    -0.009 C 
ATOM     25  C   UNL     1       2.388  -2.364  28.014  0.00  0.00    +0.003 C 
ATOM     26  C   UNL     1       1.511  -2.826  26.833  0.00  0.00    +0.001 C 
ATOM     27  C   UNL     1       2.459  -4.046  26.737  0.00  0.00    +0.003 C 
ENDBRANCH  23  24
ENDBRANCH  15  23
ENDBRANCH  12  15
ENDBRANCH   5  11
BRANCH   7  28
ATOM     28  C   UNL     1       7.264   1.095  23.784  0.00  0.00    +0.166 C 
BRANCH  28  29
ATOM     29  N   UNL     1       6.460   2.007  22.938  0.00  0.00    -0.288 N 
ATOM     30  H   UNL     1       6.927   2.464  22.166  0.00  0.00    +0.151 HD
ATOM     31  C   UNL     1       5.217   2.438  23.326  0.00  0.00    +0.301 C 
ATOM     32  N   UNL     1       4.713   3.461  22.566  0.00  0.00    -0.295 N 
ATOM     33  H   UNL     1       5.295   3.842  21.836  0.00  0.00    +0.151 HD
ATOM     34  O   UNL     1       4.632   1.936  24.282  0.00  0.00    -0.253 OA
BRANCH  32  35
ATOM     35  C   UNL     1       3.412   4.126  22.829  0.00  0.00    +0.028 C 
ATOM     36  C   UNL     1       2.249   3.292  22.263  0.00  0.00    +0.031 C 
ATOM     37  C   UNL     1       3.374   5.503  22.130  0.00  0.00    +0.031 C 
ATOM     38  C   UNL     1       3.193   4.373  24.335  0.00  0.00    +0.031 C 
ENDBRANCH  32  35
ENDBRANCH  28  29
BRANCH  28  39
ATOM     39  C   UNL     1       8.376   1.926  24.570  0.00  0.00    -0.011 C 
ATOM     40  C   UNL     1       9.429   0.944  25.119  0.00  0.00    +0.013 C 
ATOM     41  C   UNL     1       7.788   2.681  25.793  0.00  0.00    +0.013 C 
ATOM     42  C   UNL     1       9.083   3.021  23.730  0.00  0.00    +0.013 C 
ENDBRANCH  28  39
ENDBRANCH   7  28
TORSDOF 10
ENDMDL
MODEL 5
REMARK VINA RESULT:      -6.3      2.054      8.854
REMARK  Name = 
REMARK  18 active torsions:
REMARK  status: ('A' for Active; 'I' for Inactive)
REMARK    1  A    between atoms: C_1  and  C_2
REMARK    2  A    between atoms: C_2  and  C_41
REMARK    3  A    between atoms: C_7  and  C_27
REMARK    4  A    between atoms: C_11  and  C_13
REMARK    5  A    between atoms: C_13  and  C_15
REMARK    6  A    between atoms: C_13  and  N_19
REMARK    7  A    between atoms: C_15  and  C_16
REMARK    8  A    between atoms: C_15  and  C_17
REMARK    9  A    between atoms: C_15  and  C_18
REMARK   10  A    between atoms: N_22  and  C_23
REMARK   11  A    between atoms: C_23  and  C_24
REMARK   12  A    between atoms: C_23  and  C_25
REMARK   13  A    between atoms: C_23  and  C_26
REMARK   14  A    between atoms: N_29  and  C_30
REMARK   15  A    between atoms: C_30  and  C_31
REMARK   16  A    between atoms: C_30  and  C_36
REMARK   17  A    between atoms: C_31  and  C_32
REMARK   18  A    between atoms: C_36  and  C_38
REMARK                            x       y       z     vdW  Elec       q    Type
REMARK                         _______ _______ _______ _____ _____    ______ ____
ROOT
ATOM      1  C   UNL     1       6.069  -5.929  20.374  0.00  0.00    +0.011 C 
ATOM      2  C   UNL     1       6.228  -5.607  21.848  0.00  0.00    -0.025 C 
ATOM      3  C   UNL     1       5.938  -6.809  22.713  0.00  0.00    +0.011 C 
ATOM      4  C   UNL     1       5.947  -4.129  22.178  0.00  0.00    +0.030 C 
ATOM      5  C   UNL     1       5.580  -3.463  23.500  0.00  0.00    +0.166 C 
ATOM      6  N   UNL     1       6.867  -3.405  24.205  0.00  0.00    -0.288 N 
ATOM      7  C   UNL     1       7.432  -2.379  24.955  0.00  0.00    +0.237 C 
ATOM      8  O   UNL     1       8.614  -2.494  25.302  0.00  0.00    -0.274 OA
ATOM      9  C   UNL     1       7.762  -4.459  23.728  0.00  0.00    +0.113 C 
ATOM     10  C   UNL     1       7.338  -4.680  22.303  0.00  0.00    +0.018 C 
ENDROOT
BRANCH   5  11
ATOM     11  C   UNL     1       4.327  -4.179  24.134  0.00  0.00    +0.234 C 
ATOM     12  N   UNL     1       4.662  -4.934  25.251  0.00  0.00    -0.304 N 
ATOM     13  H   UNL     1       5.632  -5.199  25.301  0.00  0.00    +0.149 HD
ATOM     14  O   UNL     1       3.172  -4.052  23.733  0.00  0.00    -0.274 OA
BRANCH  12  15
ATOM     15  C   UNL     1       3.721  -5.738  26.054  0.00  0.00    +0.149 C 
BRANCH  15  16
ATOM     16  C   UNL     1       4.084  -5.877  27.545  0.00  0.00    +0.237 C 
ATOM     17  O   UNL     1       3.425  -5.437  28.484  0.00  0.00    -0.285 OA
BRANCH  16  18
ATOM     18  C   UNL     1       5.467  -6.491  27.837  0.00  0.00    +0.279 C 
ATOM     19  N   UNL     1       5.466  -7.545  28.708  0.00  0.00    -0.323 N 
ATOM     20  H   UNL     1       6.340  -8.005  28.945  0.00  0.00    +0.145 HD
ATOM     21  H   UNL     1       4.587  -7.881  29.100  0.00  0.00    +0.145 HD
ATOM     22  O   UNL     1       6.491  -6.041  27.344  0.00  0.00    -0.267 OA
ENDBRANCH  16  18
ENDBRANCH  15  16
BRANCH  15  23
ATOM     23  C   UNL     1       3.563  -7.150  25.429  0.00  0.00    +0.034 C 
BRANCH  23  24
ATOM     24  C   UNL     1       2.211  -7.358  24.737  0.00  0.00    -0.009 C 
ATOM     25  C   UNL     1       1.680  -8.812  24.538  0.00  0.00    +0.003 C 
ATOM     26  C   UNL     1       1.004  -8.294  23.253  0.00  0.00    +0.001 C 
ATOM     27  C   UNL     1       2.162  -7.269  23.178  0.00  0.00    +0.003 C 
ENDBRANCH  23  24
ENDBRANCH  15  23
ENDBRANCH  12  15
ENDBRANCH   5  11
BRANCH   7  28
ATOM     28  C   UNL     1       6.677  -1.032  25.273  0.00  0.00    +0.166 C 
BRANCH  28  29
ATOM     29  N   UNL     1       7.621   0.109  25.271  0.00  0.00    -0.288 N 
ATOM     30  H   UNL     1       7.847   0.532  26.161  0.00  0.00    +0.151 HD
ATOM     31  C   UNL     1       7.968   0.753  24.110  0.00  0.00    +0.301 C 
ATOM     32  N   UNL     1       8.644   1.930  24.299  0.00  0.00    -0.295 N 
ATOM     33  H   UNL     1       8.786   2.250  25.246  0.00  0.00    +0.151 HD
ATOM     34  O   UNL     1       7.679   0.294  23.009  0.00  0.00    -0.253 OA
BRANCH  32  35
ATOM     35  C   UNL     1       9.074   2.826  23.196  0.00  0.00    +0.028 C 
ATOM     36  C   UNL     1       9.714   4.110  23.755  0.00  0.00    +0.031 C 
ATOM     37  C   UNL     1       7.850   3.250  22.355  0.00  0.00    +0.031 C 
ATOM     38  C   UNL     1      10.060   2.123  22.244  0.00  0.00    +0.031 C 
ENDBRANCH  32  35
ENDBRANCH  28  29
BRANCH  28  39
ATOM     39  C   UNL     1       5.881  -1.073  26.655  0.00  0.00    -0.011 C 
ATOM     40  C   UNL     1       4.427  -0.631  26.399  0.00  0.00    +0.013 C 
ATOM     41  C   UNL     1       6.471  -0.086  27.700  0.00  0.00    +0.013 C 
ATOM     42  C   UNL     1       5.883  -2.451  27.364  0.00  0.00    +0.013 C 
ENDBRANCH  28  39
ENDBRANCH   7  28
TORSDOF 10
ENDMDL
MODEL 6
REMARK VINA RESULT:      -6.1      2.640      5.623
REMARK  Name = 
REMARK  18 active torsions:
REMARK  status: ('A' for Active; 'I' for Inactive)
REMARK    1  A    between atoms: C_1  and  C_2
REMARK    2  A    between atoms: C_2  and  C_41
REMARK    3  A    between atoms: C_7  and  C_27
REMARK    4  A    between atoms: C_11  and  C_13
REMARK    5  A    between atoms: C_13  and  C_15
REMARK    6  A    between atoms: C_13  and  N_19
REMARK    7  A    between atoms: C_15  and  C_16
REMARK    8  A    between atoms: C_15  and  C_17
REMARK    9  A    between atoms: C_15  and  C_18
REMARK   10  A    between atoms: N_22  and  C_23
REMARK   11  A    between atoms: C_23  and  C_24
REMARK   12  A    between atoms: C_23  and  C_25
REMARK   13  A    between atoms: C_23  and  C_26
REMARK   14  A    between atoms: N_29  and  C_30
REMARK   15  A    between atoms: C_30  and  C_31
REMARK   16  A    between atoms: C_30  and  C_36
REMARK   17  A    between atoms: C_31  and  C_32
REMARK   18  A    between atoms: C_36  and  C_38
REMARK                            x       y       z     vdW  Elec       q    Type
REMARK                         _______ _______ _______ _____ _____    ______ ____
ROOT
ATOM      1  C   UNL     1       1.450  -5.252  28.238  0.00  0.00    +0.011 C 
ATOM      2  C   UNL     1       2.871  -4.745  28.078  0.00  0.00    -0.025 C 
ATOM      3  C   UNL     1       3.208  -3.702  29.116  0.00  0.00    +0.011 C 
ATOM      4  C   UNL     1       3.378  -4.814  26.625  0.00  0.00    +0.030 C 
ATOM      5  C   UNL     1       4.513  -4.066  25.937  0.00  0.00    +0.166 C 
ATOM      6  N   UNL     1       5.709  -4.771  26.418  0.00  0.00    -0.288 N 
ATOM      7  C   UNL     1       6.849  -5.174  25.730  0.00  0.00    +0.237 C 
ATOM      8  O   UNL     1       7.647  -5.920  26.311  0.00  0.00    -0.274 OA
ATOM      9  C   UNL     1       5.447  -5.403  27.711  0.00  0.00    +0.113 C 
ATOM     10  C   UNL     1       3.974  -5.704  27.678  0.00  0.00    +0.018 C 
ENDROOT
BRANCH   5  11
ATOM     11  C   UNL     1       4.338  -2.513  26.143  0.00  0.00    +0.234 C 
ATOM     12  N   UNL     1       5.531  -1.890  26.488  0.00  0.00    -0.304 N 
ATOM     13  H   UNL     1       6.225  -2.503  26.882  0.00  0.00    +0.149 HD
ATOM     14  O   UNL     1       3.287  -1.899  25.969  0.00  0.00    -0.274 OA
BRANCH  12  15
ATOM     15  C   UNL     1       5.695  -0.450  26.767  0.00  0.00    +0.149 C 
BRANCH  15  16
ATOM     16  C   UNL     1       7.117   0.101  26.555  0.00  0.00    +0.237 C 
ATOM     17  O   UNL     1       7.396   1.167  26.008  0.00  0.00    -0.285 OA
BRANCH  16  18
ATOM     18  C   UNL     1       8.264  -0.856  26.935  0.00  0.00    +0.279 C 
ATOM     19  N   UNL     1       9.211  -0.330  27.770  0.00  0.00    -0.323 N 
ATOM     20  H   UNL     1       9.994  -0.902  28.069  0.00  0.00    +0.145 HD
ATOM     21  H   UNL     1       9.117   0.627  28.108  0.00  0.00    +0.145 HD
ATOM     22  O   UNL     1       8.330  -1.993  26.492  0.00  0.00    -0.267 OA
ENDBRANCH  16  18
ENDBRANCH  15  16
BRANCH  15  23
ATOM     23  C   UNL     1       5.232  -0.136  28.215  0.00  0.00    +0.034 C 
BRANCH  23  24
ATOM     24  C   UNL     1       4.259   1.046  28.296  0.00  0.00    -0.009 C 
ATOM     25  C   UNL     1       3.481   1.474  27.012  0.00  0.00    +0.003 C 
ATOM     26  C   UNL     1       3.530   2.910  27.569  0.00  0.00    +0.001 C 
ATOM     27  C   UNL     1       4.852   2.491  28.256  0.00  0.00    +0.003 C 
ENDBRANCH  23  24
ENDBRANCH  15  23
ENDBRANCH  12  15
ENDBRANCH   5  11
BRANCH   7  28
ATOM     28  C   UNL     1       7.104  -4.826  24.214  0.00  0.00    +0.166 C 
BRANCH  28  29
ATOM     29  N   UNL     1       7.101  -3.360  24.006  0.00  0.00    -0.288 N 
ATOM     30  H   UNL     1       6.203  -2.897  23.947  0.00  0.00    +0.151 HD
ATOM     31  C   UNL     1       8.235  -2.684  23.635  0.00  0.00    +0.301 C 
ATOM     32  N   UNL     1       8.015  -1.389  23.243  0.00  0.00    -0.295 N 
ATOM     33  H   UNL     1       7.063  -1.057  23.209  0.00  0.00    +0.151 HD
ATOM     34  O   UNL     1       9.339  -3.221  23.654  0.00  0.00    -0.253 OA
BRANCH  32  35
ATOM     35  C   UNL     1       9.080  -0.480  22.748  0.00  0.00    +0.028 C 
ATOM     36  C   UNL     1      10.165  -0.275  23.822  0.00  0.00    +0.031 C 
ATOM     37  C   UNL     1       8.482   0.907  22.427  0.00  0.00    +0.031 C 
ATOM     38  C   UNL     1       9.723  -1.011  21.451  0.00  0.00    +0.031 C 
ENDBRANCH  32  35
ENDBRANCH  28  29
BRANCH  28  39
ATOM     39  C   UNL     1       6.054  -5.515  23.229  0.00  0.00    -0.011 C 
ATOM     40  C   UNL     1       6.817  -6.085  22.018  0.00  0.00    +0.013 C 
ATOM     41  C   UNL     1       5.022  -4.497  22.669  0.00  0.00    +0.013 C 
ATOM     42  C   UNL     1       5.199  -6.635  23.873  0.00  0.00    +0.013 C 
ENDBRANCH  28  39
ENDBRANCH   7  28
TORSDOF 10
ENDMDL
MODEL 7
REMARK VINA RESULT:      -6.1      3.405      8.017
REMARK  Name = 
REMARK  18 active torsions:
REMARK  status: ('A' for Active; 'I' for Inactive)
REMARK    1  A    between atoms: C_1  and  C_2
REMARK    2  A    between atoms: C_2  and  C_41
REMARK    3  A    between atoms: C_7  and  C_27
REMARK    4  A    between atoms: C_11  and  C_13
REMARK    5  A    between atoms: C_13  and  C_15
REMARK    6  A    between atoms: C_13  and  N_19
REMARK    7  A    between atoms: C_15  and  C_16
REMARK    8  A    between atoms: C_15  and  C_17
REMARK    9  A    between atoms: C_15  and  C_18
REMARK   10  A    between atoms: N_22  and  C_23
REMARK   11  A    between atoms: C_23  and  C_24
REMARK   12  A    between atoms: C_23  and  C_25
REMARK   13  A    between atoms: C_23  and  C_26
REMARK   14  A    between atoms: N_29  and  C_30
REMARK   15  A    between atoms: C_30  and  C_31
REMARK   16  A    between atoms: C_30  and  C_36
REMARK   17  A    between atoms: C_31  and  C_32
REMARK   18  A    between atoms: C_36  and  C_38
REMARK                            x       y       z     vdW  Elec       q    Type
REMARK                         _______ _______ _______ _____ _____    ______ ____
ROOT
ATOM      1  C   UNL     1       9.448  -0.015  21.310  0.00  0.00    +0.011 C 
ATOM      2  C   UNL     1       9.409   0.420  22.763  0.00  0.00    -0.025 C 
ATOM      3  C   UNL     1      10.542  -0.186  23.554  0.00  0.00    +0.011 C 
ATOM      4  C   UNL     1       7.985   0.735  23.261  0.00  0.00    +0.030 C 
ATOM      5  C   UNL     1       7.423   0.790  24.677  0.00  0.00    +0.166 C 
ATOM      6  N   UNL     1       7.913   2.083  25.173  0.00  0.00    -0.288 N 
ATOM      7  C   UNL     1       7.261   3.065  25.912  0.00  0.00    +0.237 C 
ATOM      8  O   UNL     1       7.827   4.156  26.058  0.00  0.00    -0.274 OA
ATOM      9  C   UNL     1       9.136   2.472  24.472  0.00  0.00    +0.113 C 
ATOM     10  C   UNL     1       8.998   1.835  23.117  0.00  0.00    +0.018 C 
ENDROOT
BRANCH   5  11
ATOM     11  C   UNL     1       7.739  -0.555  25.435  0.00  0.00    +0.234 C 
ATOM     12  N   UNL     1       7.272  -1.669  24.747  0.00  0.00    -0.304 N 
ATOM     13  H   UNL     1       6.537  -1.475  24.087  0.00  0.00    +0.149 HD
ATOM     14  O   UNL     1       8.372  -0.633  26.485  0.00  0.00    -0.274 OA
BRANCH  12  15
ATOM     15  C   UNL     1       7.392  -3.068  25.202  0.00  0.00    +0.149 C 
BRANCH  15  16
ATOM     16  C   UNL     1       8.786  -3.697  25.022  0.00  0.00    +0.237 C 
ATOM     17  O   UNL     1       9.553  -3.479  24.087  0.00  0.00    -0.285 OA
BRANCH  16  18
ATOM     18  C   UNL     1       9.154  -4.798  26.037  0.00  0.00    +0.279 C 
ATOM     19  N   UNL     1      10.198  -5.603  25.672  0.00  0.00    -0.323 N 
ATOM     20  H   UNL     1      10.501  -6.348  26.292  0.00  0.00    +0.145 HD
ATOM     21  H   UNL     1      10.682  -5.441  24.790  0.00  0.00    +0.145 HD
ATOM     22  O   UNL     1       8.531  -4.952  27.077  0.00  0.00    -0.267 OA
ENDBRANCH  16  18
ENDBRANCH  15  16
BRANCH  15  23
ATOM     23  C   UNL     1       6.333  -3.949  24.490  0.00  0.00    +0.034 C 
BRANCH  23  24
ATOM     24  C   UNL     1       6.818  -4.513  23.149  0.00  0.00    -0.009 C 
ATOM     25  C   UNL     1       6.186  -3.971  21.828  0.00  0.00    +0.003 C 
ATOM     26  C   UNL     1       6.428  -5.376  21.241  0.00  0.00    +0.001 C 
ATOM     27  C   UNL     1       6.262  -5.899  22.689  0.00  0.00    +0.003 C 
ENDBRANCH  23  24
ENDBRANCH  15  23
ENDBRANCH  12  15
ENDBRANCH   5  11
BRANCH   7  28
ATOM     28  C   UNL     1       5.794   2.893  26.461  0.00  0.00    +0.166 C 
BRANCH  28  29
ATOM     29  N   UNL     1       4.874   3.849  25.801  0.00  0.00    -0.288 N 
ATOM     30  H   UNL     1       4.725   4.742  26.251  0.00  0.00    +0.151 HD
ATOM     31  C   UNL     1       4.044   3.459  24.781  0.00  0.00    +0.301 C 
ATOM     32  N   UNL     1       3.087   4.383  24.450  0.00  0.00    -0.295 N 
ATOM     33  H   UNL     1       3.034   5.229  24.996  0.00  0.00    +0.151 HD
ATOM     34  O   UNL     1       4.166   2.366  24.235  0.00  0.00    -0.253 OA
BRANCH  32  35
ATOM     35  C   UNL     1       2.045   4.162  23.416  0.00  0.00    +0.028 C 
ATOM     36  C   UNL     1       2.685   3.775  22.070  0.00  0.00    +0.031 C 
ATOM     37  C   UNL     1       1.246   5.464  23.187  0.00  0.00    +0.031 C 
ATOM     38  C   UNL     1       1.037   3.079  23.846  0.00  0.00    +0.031 C 
ENDBRANCH  32  35
ENDBRANCH  28  29
BRANCH  28  39
ATOM     39  C   UNL     1       5.697   3.056  28.046  0.00  0.00    -0.011 C 
ATOM     40  C   UNL     1       6.869   2.292  28.692  0.00  0.00    +0.013 C 
ATOM     41  C   UNL     1       4.391   2.439  28.619  0.00  0.00    +0.013 C 
ATOM     42  C   UNL     1       5.699   4.522  28.549  0.00  0.00    +0.013 C 
ENDBRANCH  28  39
ENDBRANCH   7  28
TORSDOF 10
ENDMDL
MODEL 8
REMARK VINA RESULT:      -6.0      2.887      7.390
REMARK  Name = 
REMARK  18 active torsions:
REMARK  status: ('A' for Active; 'I' for Inactive)
REMARK    1  A    between atoms: C_1  and  C_2
REMARK    2  A    between atoms: C_2  and  C_41
REMARK    3  A    between atoms: C_7  and  C_27
REMARK    4  A    between atoms: C_11  and  C_13
REMARK    5  A    between atoms: C_13  and  C_15
REMARK    6  A    between atoms: C_13  and  N_19
REMARK    7  A    between atoms: C_15  and  C_16
REMARK    8  A    between atoms: C_15  and  C_17
REMARK    9  A    between atoms: C_15  and  C_18
REMARK   10  A    between atoms: N_22  and  C_23
REMARK   11  A    between atoms: C_23  and  C_24
REMARK   12  A    between atoms: C_23  and  C_25
REMARK   13  A    between atoms: C_23  and  C_26
REMARK   14  A    between atoms: N_29  and  C_30
REMARK   15  A    between atoms: C_30  and  C_31
REMARK   16  A    between atoms: C_30  and  C_36
REMARK   17  A    between atoms: C_31  and  C_32
REMARK   18  A    between atoms: C_36  and  C_38
REMARK                            x       y       z     vdW  Elec       q    Type
REMARK                         _______ _______ _______ _____ _____    ______ ____
ROOT
ATOM      1  C   UNL     1       4.763  -5.237  28.618  0.00  0.00    +0.011 C 
ATOM      2  C   UNL     1       4.676  -4.185  27.528  0.00  0.00    -0.025 C 
ATOM      3  C   UNL     1       4.671  -4.808  26.154  0.00  0.00    +0.011 C 
ATOM      4  C   UNL     1       5.296  -2.835  27.940  0.00  0.00    +0.030 C 
ATOM      5  C   UNL     1       5.802  -1.678  27.086  0.00  0.00    +0.166 C 
ATOM      6  N   UNL     1       4.561  -1.013  26.668  0.00  0.00    -0.288 N 
ATOM      7  C   UNL     1       4.249   0.341  26.601  0.00  0.00    +0.237 C 
ATOM      8  O   UNL     1       3.071   0.658  26.392  0.00  0.00    -0.274 OA
ATOM      9  C   UNL     1       3.446  -1.959  26.669  0.00  0.00    +0.113 C 
ATOM     10  C   UNL     1       3.813  -2.955  27.733  0.00  0.00    +0.018 C 
ENDROOT
BRANCH   5  11
ATOM     11  C   UNL     1       6.848  -2.205  26.031  0.00  0.00    +0.234 C 
ATOM     12  N   UNL     1       6.427  -1.993  24.723  0.00  0.00    -0.304 N 
ATOM     13  H   UNL     1       5.434  -1.868  24.618  0.00  0.00    +0.149 HD
ATOM     14  O   UNL     1       7.938  -2.697  26.312  0.00  0.00    -0.274 OA
BRANCH  12  15
ATOM     15  C   UNL     1       7.170  -2.390  23.511  0.00  0.00    +0.149 C 
BRANCH  15  16
ATOM     16  C   UNL     1       8.063  -1.293  22.902  0.00  0.00    +0.237 C 
ATOM     17  O   UNL     1       7.686  -0.178  22.550  0.00  0.00    -0.285 OA
BRANCH  16  18
ATOM     18  C   UNL     1       9.511  -1.717  22.584  0.00  0.00    +0.279 C 
ATOM     19  N   UNL     1      10.056  -1.142  21.468  0.00  0.00    -0.323 N 
ATOM     20  H   UNL     1      11.008  -1.369  21.198  0.00  0.00    +0.145 HD
ATOM     21  H   UNL     1       9.513  -0.472  20.924  0.00  0.00    +0.145 HD
ATOM     22  O   UNL     1      10.111  -2.532  23.268  0.00  0.00    -0.267 OA
ENDBRANCH  16  18
ENDBRANCH  15  16
BRANCH  15  23
ATOM     23  C   UNL     1       6.183  -2.909  22.432  0.00  0.00    +0.034 C 
BRANCH  23  24
ATOM     24  C   UNL     1       6.008  -4.432  22.454  0.00  0.00    -0.009 C 
ATOM     25  C   UNL     1       7.169  -5.318  23.007  0.00  0.00    +0.003 C 
ATOM     26  C   UNL     1       6.707  -6.393  22.003  0.00  0.00    +0.001 C 
ATOM     27  C   UNL     1       6.225  -5.217  21.120  0.00  0.00    +0.003 C 
ENDBRANCH  23  24
ENDBRANCH  15  23
ENDBRANCH  12  15
ENDBRANCH   5  11
BRANCH   7  28
ATOM     28  C   UNL     1       5.298   1.479  26.899  0.00  0.00    +0.166 C 
BRANCH  28  29
ATOM     29  N   UNL     1       6.523   1.286  26.088  0.00  0.00    -0.288 N 
ATOM     30  H   UNL     1       7.154   0.545  26.363  0.00  0.00    +0.151 HD
ATOM     31  C   UNL     1       6.939   2.226  25.180  0.00  0.00    +0.301 C 
ATOM     32  N   UNL     1       8.206   2.021  24.698  0.00  0.00    -0.295 N 
ATOM     33  H   UNL     1       8.739   1.251  25.074  0.00  0.00    +0.151 HD
ATOM     34  O   UNL     1       6.219   3.164  24.850  0.00  0.00    -0.253 OA
BRANCH  32  35
ATOM     35  C   UNL     1       8.889   2.934  23.748  0.00  0.00    +0.028 C 
ATOM     36  C   UNL     1       8.033   3.148  22.486  0.00  0.00    +0.031 C 
ATOM     37  C   UNL     1      10.230   2.316  23.295  0.00  0.00    +0.031 C 
ATOM     38  C   UNL     1       9.211   4.294  24.397  0.00  0.00    +0.031 C 
ENDBRANCH  32  35
ENDBRANCH  28  29
BRANCH  28  39
ATOM     39  C   UNL     1       5.683   1.587  28.444  0.00  0.00    -0.011 C 
ATOM     40  C   UNL     1       5.729   3.076  28.837  0.00  0.00    +0.013 C 
ATOM     41  C   UNL     1       7.091   1.002  28.739  0.00  0.00    +0.013 C 
ATOM     42  C   UNL     1       4.729   0.831  29.404  0.00  0.00    +0.013 C 
ENDBRANCH  28  39
ENDBRANCH   7  28
TORSDOF 10
ENDMDL
MODEL 9
REMARK VINA RESULT:      -6.0      3.288      8.233
REMARK  Name = 
REMARK  18 active torsions:
REMARK  status: ('A' for Active; 'I' for Inactive)
REMARK    1  A    between atoms: C_1  and  C_2
REMARK    2  A    between atoms: C_2  and  C_41
REMARK    3  A    between atoms: C_7  and  C_27
REMARK    4  A    between atoms: C_11  and  C_13
REMARK    5  A    between atoms: C_13  and  C_15
REMARK    6  A    between atoms: C_13  and  N_19
REMARK    7  A    between atoms: C_15  and  C_16
REMARK    8  A    between atoms: C_15  and  C_17
REMARK    9  A    between atoms: C_15  and  C_18
REMARK   10  A    between atoms: N_22  and  C_23
REMARK   11  A    between atoms: C_23  and  C_24
REMARK   12  A    between atoms: C_23  and  C_25
REMARK   13  A    between atoms: C_23  and  C_26
REMARK   14  A    between atoms: N_29  and  C_30
REMARK   15  A    between atoms: C_30  and  C_31
REMARK   16  A    between atoms: C_30  and  C_36
REMARK   17  A    between atoms: C_31  and  C_32
REMARK   18  A    between atoms: C_36  and  C_38
REMARK                            x       y       z     vdW  Elec       q    Type
REMARK                         _______ _______ _______ _____ _____    ______ ____
ROOT
ATOM      1  C   UNL     1       9.681  -1.076  21.276  0.00  0.00    +0.011 C 
ATOM      2  C   UNL     1       9.688  -0.345  22.606  0.00  0.00    -0.025 C 
ATOM      3  C   UNL     1      10.538  -1.060  23.627  0.00  0.00    +0.011 C 
ATOM      4  C   UNL     1       8.398   0.458  22.862  0.00  0.00    +0.030 C 
ATOM      5  C   UNL     1       7.796   0.973  24.164  0.00  0.00    +0.166 C 
ATOM      6  N   UNL     1       8.622   2.150  24.463  0.00  0.00    -0.288 N 
ATOM      7  C   UNL     1       8.252   3.411  24.919  0.00  0.00    +0.237 C 
ATOM      8  O   UNL     1       9.110   4.304  24.923  0.00  0.00    -0.274 OA
ATOM      9  C   UNL     1       9.944   2.018  23.852  0.00  0.00    +0.113 C 
ATOM     10  C   UNL     1       9.701   1.170  22.634  0.00  0.00    +0.018 C 
ENDROOT
BRANCH   5  11
ATOM     11  C   UNL     1       7.649  -0.211  25.194  0.00  0.00    +0.234 C 
ATOM     12  N   UNL     1       7.084  -1.343  24.618  0.00  0.00    -0.304 N 
ATOM     13  H   UNL     1       6.553  -1.166  23.782  0.00  0.00    +0.149 HD
ATOM     14  O   UNL     1       8.033  -0.174  26.361  0.00  0.00    -0.274 OA
BRANCH  12  15
ATOM     15  C   UNL     1       6.797  -2.608  25.322  0.00  0.00    +0.149 C 
BRANCH  15  16
ATOM     16  C   UNL     1       8.036  -3.420  25.742  0.00  0.00    +0.237 C 
ATOM     17  O   UNL     1       9.168  -3.286  25.282  0.00  0.00    -0.285 OA
BRANCH  16  18
ATOM     18  C   UNL     1       7.767  -4.589  26.710  0.00  0.00    +0.279 C 
ATOM     19  N   UNL     1       8.438  -5.747  26.429  0.00  0.00    -0.323 N 
ATOM     20  H   UNL     1       8.315  -6.559  27.026  0.00  0.00    +0.145 HD
ATOM     21  H   UNL     1       9.075  -5.786  25.634  0.00  0.00    +0.145 HD
ATOM     22  O   UNL     1       6.984  -4.488  27.643  0.00  0.00    -0.267 OA
ENDBRANCH  16  18
ENDBRANCH  15  16
BRANCH  15  23
ATOM     23  C   UNL     1       5.867  -3.497  24.455  0.00  0.00    +0.034 C 
BRANCH  23  24
ATOM     24  C   UNL     1       6.573  -4.096  23.232  0.00  0.00    -0.009 C 
ATOM     25  C   UNL     1       5.887  -3.983  21.834  0.00  0.00    +0.003 C 
ATOM     26  C   UNL     1       6.561  -5.328  21.494  0.00  0.00    +0.001 C 
ATOM     27  C   UNL     1       6.472  -5.639  23.008  0.00  0.00    +0.003 C 
ENDBRANCH  23  24
ENDBRANCH  15  23
ENDBRANCH  12  15
ENDBRANCH   5  11
BRANCH   7  28
ATOM     28  C   UNL     1       6.772   3.782  25.311  0.00  0.00    +0.166 C 
BRANCH  28  29
ATOM     29  N   UNL     1       6.193   2.751  26.204  0.00  0.00    -0.288 N 
ATOM     30  H   UNL     1       5.476   2.150  25.822  0.00  0.00    +0.151 HD
ATOM     31  C   UNL     1       6.405   2.774  27.559  0.00  0.00    +0.301 C 
ATOM     32  N   UNL     1       5.609   1.911  28.268  0.00  0.00    -0.295 N 
ATOM     33  H   UNL     1       4.915   1.381  27.763  0.00  0.00    +0.151 HD
ATOM     34  O   UNL     1       7.238   3.518  28.068  0.00  0.00    -0.253 OA
BRANCH  32  35
ATOM     35  C   UNL     1       5.620   1.799  29.748  0.00  0.00    +0.028 C 
ATOM     36  C   UNL     1       7.027   1.438  30.257  0.00  0.00    +0.031 C 
ATOM     37  C   UNL     1       4.664   0.673  30.198  0.00  0.00    +0.031 C 
ATOM     38  C   UNL     1       5.140   3.100  30.421  0.00  0.00    +0.031 C 
ENDBRANCH  32  35
ENDBRANCH  28  29
BRANCH  28  39
ATOM     39  C   UNL     1       5.824   3.995  24.045  0.00  0.00    -0.011 C 
ATOM     40  C   UNL     1       4.993   5.274  24.262  0.00  0.00    +0.013 C 
ATOM     41  C   UNL     1       4.813   2.829  23.869  0.00  0.00    +0.013 C 
ATOM     42  C   UNL     1       6.566   4.087  22.688  0.00  0.00    +0.013 C 
ENDBRANCH  28  39
ENDBRANCH   7  28
TORSDOF 10
ENDMDL
