MODEL 1
REMARK VINA RESULT:      -4.5      0.000      0.000
REMARK  Name = 
REMARK  3 active torsions:
REMARK  status: ('A' for Active; 'I' for Inactive)
REMARK    1  A    between atoms: C_1  and  S_2
REMARK    2  A    between atoms: S_2  and  C_3
REMARK    3  A    between atoms: C_6  and  C_8
REMARK                            x       y       z     vdW  Elec       q    Type
REMARK                         _______ _______ _______ _____ _____    ______ ____
ROOT
ATOM      1  C   UNL     1       8.680  -3.158  23.656  0.00  0.00    +0.159 A 
ATOM      2  S   UNL     1       7.435  -3.216  22.480  0.00  0.00    -0.035 S 
ATOM      3  C   UNL     1       7.372  -4.920  22.732  0.00  0.00    +0.206 A 
ATOM      4  N   UNL     1       8.230  -5.352  23.639  0.00  0.00    -0.136 NA
ATOM      5  N   UNL     1       8.990  -4.327  24.172  0.00  0.00    -0.135 NA
ENDROOT
BRANCH   3   6
ATOM      6  C   UNL     1       6.410  -5.751  21.951  0.00  0.00    +0.442 C 
ATOM      7  F   UNL     1       6.732  -7.073  21.987  0.00  0.00    -0.164 F 
ATOM      8  F   UNL     1       6.379  -5.400  20.636  0.00  0.00    -0.164 F 
ATOM      9  F   UNL     1       5.132  -5.654  22.405  0.00  0.00    -0.164 F 
ENDBRANCH   3   6
BRANCH   1  11
ATOM     10  C   UNL     1      10.281  -1.199  22.580  0.00  0.00    +0.092 C 
ATOM     11  S   UNL     1       9.455  -1.661  24.117  0.00  0.00    -0.100 S 
ENDBRANCH   1  11
TORSDOF 2
ENDMDL
MODEL 2
REMARK VINA RESULT:      -4.3      3.835      5.085
REMARK  Name = 
REMARK  3 active torsions:
REMARK  status: ('A' for Active; 'I' for Inactive)
REMARK    1  A    between atoms: C_1  and  S_2
REMARK    2  A    between atoms: S_2  and  C_3
REMARK    3  A    between atoms: C_6  and  C_8
REMARK                            x       y       z     vdW  Elec       q    Type
REMARK                         _______ _______ _______ _____ _____    ______ ____
ROOT
ATOM      1  C   UNL     1       8.075  -3.846  23.429  0.00  0.00    +0.159 A 
ATOM      2  S   UNL     1       7.792  -2.373  22.599  0.00  0.00    -0.035 S 
ATOM      3  C   UNL     1       9.355  -1.862  23.117  0.00  0.00    +0.206 A 
ATOM      4  N   UNL     1       9.992  -2.764  23.842  0.00  0.00    -0.136 NA
ATOM      5  N   UNL     1       9.246  -3.914  24.024  0.00  0.00    -0.135 NA
ENDROOT
BRANCH   3   6
ATOM      6  C   UNL     1       9.856  -0.510  22.738  0.00  0.00    +0.442 C 
ATOM      7  F   UNL     1       8.954   0.468  23.024  0.00  0.00    -0.164 F 
ATOM      8  F   UNL     1      10.116  -0.414  21.405  0.00  0.00    -0.164 F 
ATOM      9  F   UNL     1      11.007  -0.170  23.378  0.00  0.00    -0.164 F 
ENDBRANCH   3   6
BRANCH   1  11
ATOM     10  C   UNL     1       7.082  -5.836  21.814  0.00  0.00    +0.092 C 
ATOM     11  S   UNL     1       6.895  -5.135  23.466  0.00  0.00    -0.100 S 
ENDBRANCH   1  11
TORSDOF 2
ENDMDL
MODEL 3
REMARK VINA RESULT:      -4.2      3.969      5.068
REMARK  Name = 
REMARK  3 active torsions:
REMARK  status: ('A' for Active; 'I' for Inactive)
REMARK    1  A    between atoms: C_1  and  S_2
REMARK    2  A    between atoms: S_2  and  C_3
REMARK    3  A    between atoms: C_6  and  C_8
REMARK                            x       y       z     vdW  Elec       q    Type
REMARK                         _______ _______ _______ _____ _____    ______ ____
ROOT
ATOM      1  C   UNL     1       8.636  -3.445  23.626  0.00  0.00    +0.159 A 
ATOM      2  S   UNL     1       7.833  -2.374  22.556  0.00  0.00    -0.035 S 
ATOM      3  C   UNL     1       9.229  -1.366  22.628  0.00  0.00    +0.206 A 
ATOM      4  N   UNL     1      10.188  -1.846  23.399  0.00  0.00    -0.136 NA
ATOM      5  N   UNL     1       9.840  -3.053  23.979  0.00  0.00    -0.135 NA
ENDROOT
BRANCH   3   6
ATOM      6  C   UNL     1       9.262  -0.087  21.861  0.00  0.00    +0.442 C 
ATOM      7  F   UNL     1      10.407   0.613  22.085  0.00  0.00    -0.164 F 
ATOM      8  F   UNL     1       8.234   0.740  22.199  0.00  0.00    -0.164 F 
ATOM      9  F   UNL     1       9.180  -0.270  20.517  0.00  0.00    -0.164 F 
ENDBRANCH   3   6
BRANCH   1  11
ATOM     10  C   UNL     1       8.623  -5.087  25.831  0.00  0.00    +0.092 C 
ATOM     11  S   UNL     1       7.900  -4.928  24.185  0.00  0.00    -0.100 S 
ENDBRANCH   1  11
TORSDOF 2
ENDMDL
MODEL 4
REMARK VINA RESULT:      -4.2      1.592      2.181
REMARK  Name = 
REMARK  3 active torsions:
REMARK  status: ('A' for Active; 'I' for Inactive)
REMARK    1  A    between atoms: C_1  and  S_2
REMARK    2  A    between atoms: S_2  and  C_3
REMARK    3  A    between atoms: C_6  and  C_8
REMARK                            x       y       z     vdW  Elec       q    Type
REMARK                         _______ _______ _______ _____ _____    ______ ____
ROOT
ATOM      1  C   UNL     1       9.403  -2.087  23.119  0.00  0.00    +0.159 A 
ATOM      2  S   UNL     1       7.873  -2.592  22.534  0.00  0.00    -0.035 S 
ATOM      3  C   UNL     1       8.045  -4.006  23.506  0.00  0.00    +0.206 A 
ATOM      4  N   UNL     1       9.172  -4.038  24.196  0.00  0.00    -0.136 NA
ATOM      5  N   UNL     1       9.959  -2.924  23.967  0.00  0.00    -0.135 NA
ENDROOT
BRANCH   3   6
ATOM      6  C   UNL     1       6.975  -5.043  23.503  0.00  0.00    +0.442 C 
ATOM      7  F   UNL     1       5.775  -4.538  23.106  0.00  0.00    -0.164 F 
ATOM      8  F   UNL     1       6.775  -5.578  24.739  0.00  0.00    -0.164 F 
ATOM      9  F   UNL     1       7.246  -6.086  22.674  0.00  0.00    -0.164 F 
ENDBRANCH   3   6
BRANCH   1  11
ATOM     10  C   UNL     1      10.560   0.153  24.214  0.00  0.00    +0.092 C 
ATOM     11  S   UNL     1      10.140  -0.583  22.621  0.00  0.00    -0.100 S 
ENDBRANCH   1  11
TORSDOF 2
ENDMDL
MODEL 5
REMARK VINA RESULT:      -4.1      2.746      3.397
REMARK  Name = 
REMARK  3 active torsions:
REMARK  status: ('A' for Active; 'I' for Inactive)
REMARK    1  A    between atoms: C_1  and  S_2
REMARK    2  A    between atoms: S_2  and  C_3
REMARK    3  A    between atoms: C_6  and  C_8
REMARK                            x       y       z     vdW  Elec       q    Type
REMARK                         _______ _______ _______ _____ _____    ______ ____
ROOT
ATOM      1  C   UNL     1       9.224  -1.235  24.684  0.00  0.00    +0.159 A 
ATOM      2  S   UNL     1       8.197  -2.369  25.456  0.00  0.00    -0.035 S 
ATOM      3  C   UNL     1       9.019  -3.605  24.580  0.00  0.00    +0.206 A 
ATOM      4  N   UNL     1       9.979  -3.148  23.796  0.00  0.00    -0.136 NA
ATOM      5  N   UNL     1      10.094  -1.771  23.856  0.00  0.00    -0.135 NA
ENDROOT
BRANCH   3   6
ATOM      6  C   UNL     1       8.615  -5.030  24.752  0.00  0.00    +0.442 C 
ATOM      7  F   UNL     1       8.318  -5.623  23.563  0.00  0.00    -0.164 F 
ATOM      8  F   UNL     1       7.507  -5.159  25.532  0.00  0.00    -0.164 F 
ATOM      9  F   UNL     1       9.582  -5.792  25.330  0.00  0.00    -0.164 F 
ENDBRANCH   3   6
BRANCH   1  11
ATOM     10  C   UNL     1      10.720   1.055  24.408  0.00  0.00    +0.092 C 
ATOM     11  S   UNL     1       9.109   0.482  24.987  0.00  0.00    -0.100 S 
ENDBRANCH   1  11
TORSDOF 2
ENDMDL
MODEL 6
REMARK VINA RESULT:      -4.1      4.935      6.021
REMARK  Name = 
REMARK  3 active torsions:
REMARK  status: ('A' for Active; 'I' for Inactive)
REMARK    1  A    between atoms: C_1  and  S_2
REMARK    2  A    between atoms: S_2  and  C_3
REMARK    3  A    between atoms: C_6  and  C_8
REMARK                            x       y       z     vdW  Elec       q    Type
REMARK                         _______ _______ _______ _____ _____    ______ ____
ROOT
ATOM      1  C   UNL     1       8.578  -2.343  22.808  0.00  0.00    +0.159 A 
ATOM      2  S   UNL     1       7.988  -0.737  22.890  0.00  0.00    -0.035 S 
ATOM      3  C   UNL     1       9.627  -0.205  22.831  0.00  0.00    +0.206 A 
ATOM      4  N   UNL     1      10.500  -1.194  22.750  0.00  0.00    -0.136 NA
ATOM      5  N   UNL     1       9.889  -2.434  22.739  0.00  0.00    -0.135 NA
ENDROOT
BRANCH   3   6
ATOM      6  C   UNL     1       9.936   1.253  22.877  0.00  0.00    +0.442 C 
ATOM      7  F   UNL     1      10.351   1.725  21.670  0.00  0.00    -0.164 F 
ATOM      8  F   UNL     1      10.931   1.538  23.763  0.00  0.00    -0.164 F 
ATOM      9  F   UNL     1       8.869   2.013  23.241  0.00  0.00    -0.164 F 
ENDBRANCH   3   6
BRANCH   1  11
ATOM     10  C   UNL     1       8.236  -4.728  24.132  0.00  0.00    +0.092 C 
ATOM     11  S   UNL     1       7.513  -3.728  22.814  0.00  0.00    -0.100 S 
ENDBRANCH   1  11
TORSDOF 2
ENDMDL
MODEL 7
REMARK VINA RESULT:      -4.1      5.044      6.175
REMARK  Name = 
REMARK  3 active torsions:
REMARK  status: ('A' for Active; 'I' for Inactive)
REMARK    1  A    between atoms: C_1  and  S_2
REMARK    2  A    between atoms: S_2  and  C_3
REMARK    3  A    between atoms: C_6  and  C_8
REMARK                            x       y       z     vdW  Elec       q    Type
REMARK                         _______ _______ _______ _____ _____    ______ ____
ROOT
ATOM      1  C   UNL     1       8.909  -2.792  24.885  0.00  0.00    +0.159 A 
ATOM      2  S   UNL     1       9.838  -2.014  23.674  0.00  0.00    -0.035 S 
ATOM      3  C   UNL     1       9.804  -0.597  24.655  0.00  0.00    +0.206 A 
ATOM      4  N   UNL     1       9.143  -0.756  25.789  0.00  0.00    -0.136 NA
ATOM      5  N   UNL     1       8.623  -2.031  25.919  0.00  0.00    -0.135 NA
ENDROOT
BRANCH   3   6
ATOM      6  C   UNL     1      10.480   0.646  24.188  0.00  0.00    +0.442 C 
ATOM      7  F   UNL     1      10.510   0.732  22.830  0.00  0.00    -0.164 F 
ATOM      8  F   UNL     1      11.775   0.714  24.605  0.00  0.00    -0.164 F 
ATOM      9  F   UNL     1       9.875   1.781  24.631  0.00  0.00    -0.164 F 
ENDBRANCH   3   6
BRANCH   1  11
ATOM     10  C   UNL     1       8.319  -4.957  26.474  0.00  0.00    +0.092 C 
ATOM     11  S   UNL     1       8.399  -4.457  24.741  0.00  0.00    -0.100 S 
ENDBRANCH   1  11
TORSDOF 2
ENDMDL
MODEL 8
REMARK VINA RESULT:      -4.1      1.549      1.551
REMARK  Name = 
REMARK  3 active torsions:
REMARK  status: ('A' for Active; 'I' for Inactive)
REMARK    1  A    between atoms: C_1  and  S_2
REMARK    2  A    between atoms: S_2  and  C_3
REMARK    3  A    between atoms: C_6  and  C_8
REMARK                            x       y       z     vdW  Elec       q    Type
REMARK                         _______ _______ _______ _____ _____    ______ ____
ROOT
ATOM      1  C   UNL     1       7.012  -2.305  22.934  0.00  0.00    +0.159 A 
ATOM      2  S   UNL     1       5.700  -3.096  22.166  0.00  0.00    -0.035 S 
ATOM      3  C   UNL     1       6.642  -4.539  22.197  0.00  0.00    +0.206 A 
ATOM      4  N   UNL     1       7.829  -4.383  22.756  0.00  0.00    -0.136 NA
ATOM      5  N   UNL     1       8.042  -3.084  23.181  0.00  0.00    -0.135 NA
ENDROOT
BRANCH   3   6
ATOM      6  C   UNL     1       6.089  -5.799  21.621  0.00  0.00    +0.442 C 
ATOM      7  F   UNL     1       6.825  -6.887  21.975  0.00  0.00    -0.164 F 
ATOM      8  F   UNL     1       6.070  -5.775  20.260  0.00  0.00    -0.164 F 
ATOM      9  F   UNL     1       4.814  -6.051  22.019  0.00  0.00    -0.164 F 
ENDBRANCH   3   6
BRANCH   1  11
ATOM     10  C   UNL     1       8.632  -0.084  22.906  0.00  0.00    +0.092 C 
ATOM     11  S   UNL     1       6.962  -0.608  23.349  0.00  0.00    -0.100 S 
ENDBRANCH   1  11
TORSDOF 2
ENDMDL
MODEL 9
REMARK VINA RESULT:      -4.0      1.832      2.323
REMARK  Name = 
REMARK  3 active torsions:
REMARK  status: ('A' for Active; 'I' for Inactive)
REMARK    1  A    between atoms: C_1  and  S_2
REMARK    2  A    between atoms: S_2  and  C_3
REMARK    3  A    between atoms: C_6  and  C_8
REMARK                            x       y       z     vdW  Elec       q    Type
REMARK                         _______ _______ _______ _____ _____    ______ ____
ROOT
ATOM      1  C   UNL     1       6.998  -2.318  22.980  0.00  0.00    +0.159 A 
ATOM      2  S   UNL     1       5.769  -3.076  22.058  0.00  0.00    -0.035 S 
ATOM      3  C   UNL     1       6.643  -4.551  22.232  0.00  0.00    +0.206 A 
ATOM      4  N   UNL     1       7.753  -4.427  22.938  0.00  0.00    -0.136 NA
ATOM      5  N   UNL     1       7.958  -3.129  23.369  0.00  0.00    -0.135 NA
ENDROOT
BRANCH   3   6
ATOM      6  C   UNL     1       6.123  -5.801  21.606  0.00  0.00    +0.442 C 
ATOM      7  F   UNL     1       4.852  -6.080  22.004  0.00  0.00    -0.164 F 
ATOM      8  F   UNL     1       6.874  -6.889  21.932  0.00  0.00    -0.164 F 
ATOM      9  F   UNL     1       6.097  -5.746  20.248  0.00  0.00    -0.164 F 
ENDBRANCH   3   6
BRANCH   1  11
ATOM     10  C   UNL     1       5.930  -0.604  24.844  0.00  0.00    +0.092 C 
ATOM     11  S   UNL     1       6.960  -0.614  23.361  0.00  0.00    -0.100 S 
ENDBRANCH   1  11
TORSDOF 2
ENDMDL
