MODEL 1
REMARK VINA RESULT:      -6.2      0.000      0.000
REMARK  Name = 
REMARK  4 active torsions:
REMARK  status: ('A' for Active; 'I' for Inactive)
REMARK    1  A    between atoms: C3*_2  and  O3*_19
REMARK    2  A    between atoms: C4*_4  and  C5*_17
REMARK    3  A    between atoms: C1*_6  and  N_8
REMARK    4  A    between atoms: C5*_17  and  O5*_18
REMARK                            x       y       z     vdW  Elec       q    Type
REMARK                         _______ _______ _______ _____ _____    ______ ____
ROOT
ATOM      1  C2* UNL     1       6.731  -2.557  23.126  0.00  0.00    +0.088 C 
ATOM      2  C1* UNL     1       7.921  -3.389  23.591  0.00  0.00    +0.226 C 
ATOM      3  O4* UNL     1       9.068  -2.520  23.693  0.00  0.00    -0.348 OA
ATOM      4  C4* UNL     1       8.673  -1.185  23.311  0.00  0.00    +0.175 C 
ATOM      5  C3* UNL     1       7.154  -1.150  23.472  0.00  0.00    +0.150 C 
ENDROOT
BRANCH   2   6
ATOM      6  N   UNL     1       7.679  -4.064  24.864  0.00  0.00    -0.273 N 
ATOM      7  C   UNL     1       8.540  -5.103  25.190  0.00  0.00    +0.331 A 
ATOM      8  O   UNL     1       9.476  -5.469  24.486  0.00  0.00    -0.246 OA
ATOM      9  N   UNL     1       8.281  -5.735  26.378  0.00  0.00    -0.274 N 
ATOM     10  H   UNL     1       8.906  -6.481  26.638  0.00  0.00    +0.173 HD
ATOM     11  C   UNL     1       7.250  -5.464  27.236  0.00  0.00    +0.267 A 
ATOM     12  O   UNL     1       7.117  -6.097  28.278  0.00  0.00    -0.267 OA
ATOM     13  C   UNL     1       6.326  -4.377  26.813  0.00  0.00    +0.094 A 
ATOM     14  I   UNL     1       4.711  -3.901  27.970  0.00  0.00    -0.037 I 
ATOM     15  C   UNL     1       6.594  -3.743  25.663  0.00  0.00    +0.113 A 
ENDBRANCH   2   6
BRANCH   5  16
ATOM     16  O3* UNL     1       6.492  -0.167  22.702  0.00  0.00    -0.389 OA
ATOM     17  H3* UNL     1       5.582  -0.475  22.530  0.00  0.00    +0.210 HD
ENDBRANCH   5  16
BRANCH   4  18
ATOM     18  C5* UNL     1       9.201  -0.887  21.902  0.00  0.00    +0.190 C 
BRANCH  18  19
ATOM     19  O5* UNL     1      10.373  -1.645  21.609  0.00  0.00    -0.392 OA
ATOM     20  H5* UNL     1      10.070  -2.557  21.437  0.00  0.00    +0.210 HD
ENDBRANCH  18  19
ENDBRANCH   4  18
TORSDOF 4
ENDMDL
MODEL 2
REMARK VINA RESULT:      -5.9      2.728      2.896
REMARK  Name = 
REMARK  4 active torsions:
REMARK  status: ('A' for Active; 'I' for Inactive)
REMARK    1  A    between atoms: C3*_2  and  O3*_19
REMARK    2  A    between atoms: C4*_4  and  C5*_17
REMARK    3  A    between atoms: C1*_6  and  N_8
REMARK    4  A    between atoms: C5*_17  and  O5*_18
REMARK                            x       y       z     vdW  Elec       q    Type
REMARK                         _______ _______ _______ _____ _____    ______ ____
ROOT
ATOM      1  C2* UNL     1       6.958  -2.385  22.610  0.00  0.00    +0.088 C 
ATOM      2  C1* UNL     1       7.547  -3.791  22.609  0.00  0.00    +0.226 C 
ATOM      3  O4* UNL     1       8.776  -3.767  23.365  0.00  0.00    -0.348 OA
ATOM      4  C4* UNL     1       9.003  -2.422  23.837  0.00  0.00    +0.175 C 
ATOM      5  C3* UNL     1       7.636  -1.742  23.796  0.00  0.00    +0.150 C 
ENDROOT
BRANCH   2   6
ATOM      6  N   UNL     1       6.633  -4.790  23.157  0.00  0.00    -0.273 N 
ATOM      7  C   UNL     1       5.889  -5.521  22.242  0.00  0.00    +0.331 A 
ATOM      8  O   UNL     1       5.963  -5.381  21.024  0.00  0.00    -0.246 OA
ATOM      9  N   UNL     1       5.023  -6.437  22.779  0.00  0.00    -0.274 N 
ATOM     10  H   UNL     1       4.487  -6.988  22.127  0.00  0.00    +0.173 HD
ATOM     11  C   UNL     1       4.803  -6.665  24.110  0.00  0.00    +0.267 A 
ATOM     12  O   UNL     1       4.000  -7.517  24.477  0.00  0.00    -0.267 OA
ATOM     13  C   UNL     1       5.588  -5.818  25.049  0.00  0.00    +0.094 A 
ATOM     14  I   UNL     1       5.322  -6.012  27.066  0.00  0.00    -0.037 I 
ATOM     15  C   UNL     1       6.452  -4.940  24.522  0.00  0.00    +0.113 A 
ENDBRANCH   2   6
BRANCH   5  16
ATOM     16  O3* UNL     1       7.670  -0.331  23.718  0.00  0.00    -0.389 OA
ATOM     17  H3* UNL     1       7.685   0.025  24.627  0.00  0.00    +0.210 HD
ENDBRANCH   5  16
BRANCH   4  18
ATOM     18  C5* UNL     1      10.099  -1.767  22.987  0.00  0.00    +0.190 C 
BRANCH  18  19
ATOM     19  O5* UNL     1      10.521  -0.523  23.544  0.00  0.00    -0.392 OA
ATOM     20  H5* UNL     1       9.883   0.145  23.230  0.00  0.00    +0.210 HD
ENDBRANCH  18  19
ENDBRANCH   4  18
TORSDOF 4
ENDMDL
MODEL 3
REMARK VINA RESULT:      -5.8      3.736      5.649
REMARK  Name = 
REMARK  4 active torsions:
REMARK  status: ('A' for Active; 'I' for Inactive)
REMARK    1  A    between atoms: C3*_2  and  O3*_19
REMARK    2  A    between atoms: C4*_4  and  C5*_17
REMARK    3  A    between atoms: C1*_6  and  N_8
REMARK    4  A    between atoms: C5*_17  and  O5*_18
REMARK                            x       y       z     vdW  Elec       q    Type
REMARK                         _______ _______ _______ _____ _____    ______ ____
ROOT
ATOM      1  C2* UNL     1       6.355  -2.832  23.732  0.00  0.00    +0.088 C 
ATOM      2  C1* UNL     1       7.827  -2.909  23.343  0.00  0.00    +0.226 C 
ATOM      3  O4* UNL     1       7.960  -3.854  22.261  0.00  0.00    -0.348 OA
ATOM      4  C4* UNL     1       6.656  -4.386  21.947  0.00  0.00    +0.175 C 
ATOM      5  C3* UNL     1       5.660  -3.371  22.505  0.00  0.00    +0.150 C 
ENDROOT
BRANCH   2   6
ATOM      6  N   UNL     1       8.382  -1.614  22.959  0.00  0.00    -0.273 N 
ATOM      7  C   UNL     1       9.759  -1.549  22.798  0.00  0.00    +0.331 A 
ATOM      8  O   UNL     1      10.516  -2.504  22.949  0.00  0.00    -0.246 OA
ATOM      9  N   UNL     1      10.258  -0.319  22.458  0.00  0.00    -0.274 N 
ATOM     10  H   UNL     1      11.255  -0.259  22.322  0.00  0.00    +0.173 HD
ATOM     11  C   UNL     1       9.541   0.836  22.304  0.00  0.00    +0.267 A 
ATOM     12  O   UNL     1      10.098   1.884  21.995  0.00  0.00    -0.267 OA
ATOM     13  C   UNL     1       8.076   0.723  22.540  0.00  0.00    +0.094 A 
ATOM     14  I   UNL     1       6.888   2.379  22.398  0.00  0.00    -0.037 I 
ATOM     15  C   UNL     1       7.586  -0.486  22.848  0.00  0.00    +0.113 A 
ENDBRANCH   2   6
BRANCH   5  16
ATOM     16  O3* UNL     1       4.371  -3.883  22.778  0.00  0.00    -0.389 OA
ATOM     17  H3* UNL     1       4.463  -4.823  23.026  0.00  0.00    +0.210 HD
ENDBRANCH   5  16
BRANCH   4  18
ATOM     18  C5* UNL     1       6.543  -5.809  22.508  0.00  0.00    +0.190 C 
BRANCH  18  19
ATOM     19  O5* UNL     1       5.440  -6.511  21.937  0.00  0.00    -0.392 OA
ATOM     20  H5* UNL     1       4.654  -6.244  22.450  0.00  0.00    +0.210 HD
ENDBRANCH  18  19
ENDBRANCH   4  18
TORSDOF 4
ENDMDL
MODEL 4
REMARK VINA RESULT:      -5.8      2.116      2.557
REMARK  Name = 
REMARK  4 active torsions:
REMARK  status: ('A' for Active; 'I' for Inactive)
REMARK    1  A    between atoms: C3*_2  and  O3*_19
REMARK    2  A    between atoms: C4*_4  and  C5*_17
REMARK    3  A    between atoms: C1*_6  and  N_8
REMARK    4  A    between atoms: C5*_17  and  O5*_18
REMARK                            x       y       z     vdW  Elec       q    Type
REMARK                         _______ _______ _______ _____ _____    ______ ____
ROOT
ATOM      1  C2* UNL     1       9.676  -2.309  23.715  0.00  0.00    +0.088 C 
ATOM      2  C1* UNL     1       8.494  -1.974  24.617  0.00  0.00    +0.226 C 
ATOM      3  O4* UNL     1       7.649  -1.032  23.925  0.00  0.00    -0.348 OA
ATOM      4  C4* UNL     1       8.232  -0.745  22.637  0.00  0.00    +0.175 C 
ATOM      5  C3* UNL     1       9.170  -1.917  22.347  0.00  0.00    +0.150 C 
ENDROOT
BRANCH   2   6
ATOM      6  N   UNL     1       7.727  -3.154  25.010  0.00  0.00    -0.273 N 
ATOM      7  C   UNL     1       8.079  -3.754  26.211  0.00  0.00    +0.331 A 
ATOM      8  O   UNL     1       8.974  -3.349  26.948  0.00  0.00    -0.246 OA
ATOM      9  N   UNL     1       7.360  -4.870  26.548  0.00  0.00    -0.274 N 
ATOM     10  H   UNL     1       7.592  -5.309  27.426  0.00  0.00    +0.173 HD
ATOM     11  C   UNL     1       6.373  -5.457  25.805  0.00  0.00    +0.267 A 
ATOM     12  O   UNL     1       5.793  -6.459  26.210  0.00  0.00    -0.267 OA
ATOM     13  C   UNL     1       6.071  -4.805  24.502  0.00  0.00    +0.094 A 
ATOM     14  I   UNL     1       4.656  -5.604  23.263  0.00  0.00    -0.037 I 
ATOM     15  C   UNL     1       6.758  -3.699  24.184  0.00  0.00    +0.113 A 
ENDBRANCH   2   6
BRANCH   5  16
ATOM     16  O3* UNL     1      10.210  -1.640  21.430  0.00  0.00    -0.389 OA
ATOM     17  H3* UNL     1       9.812  -1.256  20.625  0.00  0.00    +0.210 HD
ENDBRANCH   5  16
BRANCH   4  18
ATOM     18  C5* UNL     1       8.889   0.640  22.677  0.00  0.00    +0.190 C 
BRANCH  18  19
ATOM     19  O5* UNL     1       9.247   1.089  21.371  0.00  0.00    -0.392 OA
ATOM     20  H5* UNL     1       8.862   1.981  21.276  0.00  0.00    +0.210 HD
ENDBRANCH  18  19
ENDBRANCH   4  18
TORSDOF 4
ENDMDL
MODEL 5
REMARK VINA RESULT:      -5.8      3.153      3.860
REMARK  Name = 
REMARK  4 active torsions:
REMARK  status: ('A' for Active; 'I' for Inactive)
REMARK    1  A    between atoms: C3*_2  and  O3*_19
REMARK    2  A    between atoms: C4*_4  and  C5*_17
REMARK    3  A    between atoms: C1*_6  and  N_8
REMARK    4  A    between atoms: C5*_17  and  O5*_18
REMARK                            x       y       z     vdW  Elec       q    Type
REMARK                         _______ _______ _______ _____ _____    ______ ____
ROOT
ATOM      1  C2* UNL     1       9.833   0.451  22.364  0.00  0.00    +0.088 C 
ATOM      2  C1* UNL     1      10.263   0.011  23.759  0.00  0.00    +0.226 C 
ATOM      3  O4* UNL     1      10.220   1.160  24.629  0.00  0.00    -0.348 OA
ATOM      4  C4* UNL     1       9.795   2.307  23.863  0.00  0.00    +0.175 C 
ATOM      5  C3* UNL     1       9.084   1.734  22.638  0.00  0.00    +0.150 C 
ENDROOT
BRANCH   2   6
ATOM      6  N   UNL     1       9.433  -1.065  24.295  0.00  0.00    -0.273 N 
ATOM      7  C   UNL     1       9.756  -2.356  23.900  0.00  0.00    +0.331 A 
ATOM      8  O   UNL     1      10.686  -2.635  23.149  0.00  0.00    -0.246 OA
ATOM      9  N   UNL     1       8.951  -3.347  24.399  0.00  0.00    -0.274 N 
ATOM     10  H   UNL     1       9.182  -4.291  24.135  0.00  0.00    +0.173 HD
ATOM     11  C   UNL     1       7.858  -3.178  25.204  0.00  0.00    +0.267 A 
ATOM     12  O   UNL     1       7.210  -4.144  25.593  0.00  0.00    -0.267 OA
ATOM     13  C   UNL     1       7.524  -1.771  25.554  0.00  0.00    +0.094 A 
ATOM     14  I   UNL     1       5.886  -1.366  26.706  0.00  0.00    -0.037 I 
ATOM     15  C   UNL     1       8.326  -0.805  25.086  0.00  0.00    +0.113 A 
ENDBRANCH   2   6
BRANCH   5  16
ATOM     16  O3* UNL     1       9.032   2.594  21.517  0.00  0.00    -0.389 OA
ATOM     17  H3* UNL     1       8.095   2.726  21.277  0.00  0.00    +0.210 HD
ENDBRANCH   5  16
BRANCH   4  18
ATOM     18  C5* UNL     1      11.009   3.199  23.573  0.00  0.00    +0.190 C 
BRANCH  18  19
ATOM     19  O5* UNL     1      10.612   4.500  23.143  0.00  0.00    -0.392 OA
ATOM     20  H5* UNL     1      11.172   5.130  23.636  0.00  0.00    +0.210 HD
ENDBRANCH  18  19
ENDBRANCH   4  18
TORSDOF 4
ENDMDL
MODEL 6
REMARK VINA RESULT:      -5.7      2.903      5.914
REMARK  Name = 
REMARK  4 active torsions:
REMARK  status: ('A' for Active; 'I' for Inactive)
REMARK    1  A    between atoms: C3*_2  and  O3*_19
REMARK    2  A    between atoms: C4*_4  and  C5*_17
REMARK    3  A    between atoms: C1*_6  and  N_8
REMARK    4  A    between atoms: C5*_17  and  O5*_18
REMARK                            x       y       z     vdW  Elec       q    Type
REMARK                         _______ _______ _______ _____ _____    ______ ____
ROOT
ATOM      1  C2* UNL     1       8.766  -4.234  24.686  0.00  0.00    +0.088 C 
ATOM      2  C1* UNL     1       7.410  -3.592  24.416  0.00  0.00    +0.226 C 
ATOM      3  O4* UNL     1       6.646  -3.615  25.640  0.00  0.00    -0.348 OA
ATOM      4  C4* UNL     1       7.440  -4.242  26.669  0.00  0.00    +0.175 C 
ATOM      5  C3* UNL     1       8.886  -4.134  26.188  0.00  0.00    +0.150 C 
ENDROOT
BRANCH   2   6
ATOM      6  N   UNL     1       7.519  -2.226  23.910  0.00  0.00    -0.273 N 
ATOM      7  C   UNL     1       6.536  -1.812  23.020  0.00  0.00    +0.331 A 
ATOM      8  O   UNL     1       5.598  -2.514  22.653  0.00  0.00    -0.246 OA
ATOM      9  N   UNL     1       6.671  -0.535  22.542  0.00  0.00    -0.274 N 
ATOM     10  H   UNL     1       5.957  -0.213  21.908  0.00  0.00    +0.173 HD
ATOM     11  C   UNL     1       7.686   0.338  22.827  0.00  0.00    +0.267 A 
ATOM     12  O   UNL     1       7.701   1.463  22.340  0.00  0.00    -0.267 OA
ATOM     13  C   UNL     1       8.740  -0.175  23.744  0.00  0.00    +0.094 A 
ATOM     14  I   UNL     1      10.344   1.001  24.215  0.00  0.00    -0.037 I 
ATOM     15  C   UNL     1       8.595  -1.415  24.230  0.00  0.00    +0.113 A 
ENDBRANCH   2   6
BRANCH   5  16
ATOM     16  O3* UNL     1       9.773  -5.088  26.738  0.00  0.00    -0.389 OA
ATOM     17  H3* UNL     1      10.017  -5.719  26.034  0.00  0.00    +0.210 HD
ENDBRANCH   5  16
BRANCH   4  18
ATOM     18  C5* UNL     1       6.921  -5.665  26.909  0.00  0.00    +0.190 C 
BRANCH  18  19
ATOM     19  O5* UNL     1       7.445  -6.218  28.116  0.00  0.00    -0.392 OA
ATOM     20  H5* UNL     1       7.614  -5.462  28.709  0.00  0.00    +0.210 HD
ENDBRANCH  18  19
ENDBRANCH   4  18
TORSDOF 4
ENDMDL
MODEL 7
REMARK VINA RESULT:      -5.7      5.540      8.015
REMARK  Name = 
REMARK  4 active torsions:
REMARK  status: ('A' for Active; 'I' for Inactive)
REMARK    1  A    between atoms: C3*_2  and  O3*_19
REMARK    2  A    between atoms: C4*_4  and  C5*_17
REMARK    3  A    between atoms: C1*_6  and  N_8
REMARK    4  A    between atoms: C5*_17  and  O5*_18
REMARK                            x       y       z     vdW  Elec       q    Type
REMARK                         _______ _______ _______ _____ _____    ______ ____
ROOT
ATOM      1  C2* UNL     1       8.611   0.719  22.416  0.00  0.00    +0.088 C 
ATOM      2  C1* UNL     1       8.662   1.339  23.808  0.00  0.00    +0.226 C 
ATOM      3  O4* UNL     1       9.645   0.625  24.585  0.00  0.00    -0.348 OA
ATOM      4  C4* UNL     1      10.215  -0.418  23.767  0.00  0.00    +0.175 C 
ATOM      5  C3* UNL     1       9.937   0.002  22.324  0.00  0.00    +0.150 C 
ENDROOT
BRANCH   2   6
ATOM      6  N   UNL     1       8.971   2.766  23.783  0.00  0.00    -0.273 N 
ATOM      7  C   UNL     1       7.893   3.638  23.853  0.00  0.00    +0.331 A 
ATOM      8  O   UNL     1       6.721   3.280  23.942  0.00  0.00    -0.246 OA
ATOM      9  N   UNL     1       8.205   4.971  23.807  0.00  0.00    -0.274 N 
ATOM     10  H   UNL     1       7.435   5.618  23.873  0.00  0.00    +0.173 HD
ATOM     11  C   UNL     1       9.455   5.509  23.663  0.00  0.00    +0.267 A 
ATOM     12  O   UNL     1       9.616   6.725  23.636  0.00  0.00    -0.267 OA
ATOM     13  C   UNL     1      10.569   4.530  23.539  0.00  0.00    +0.094 A 
ATOM     14  I   UNL     1      12.483   5.191  23.264  0.00  0.00    -0.037 I 
ATOM     15  C   UNL     1      10.265   3.227  23.609  0.00  0.00    +0.113 A 
ENDBRANCH   2   6
BRANCH   5  16
ATOM     16  O3* UNL     1       9.932  -1.053  21.383  0.00  0.00    -0.389 OA
ATOM     17  H3* UNL     1      10.268  -1.857  21.824  0.00  0.00    +0.210 HD
ENDBRANCH   5  16
BRANCH   4  18
ATOM     18  C5* UNL     1       9.631  -1.770  24.192  0.00  0.00    +0.190 C 
BRANCH  18  19
ATOM     19  O5* UNL     1      10.363  -2.859  23.630  0.00  0.00    -0.392 OA
ATOM     20  H5* UNL     1      11.287  -2.743  23.922  0.00  0.00    +0.210 HD
ENDBRANCH  18  19
ENDBRANCH   4  18
TORSDOF 4
ENDMDL
MODEL 8
REMARK VINA RESULT:      -5.6      3.619      5.125
REMARK  Name = 
REMARK  4 active torsions:
REMARK  status: ('A' for Active; 'I' for Inactive)
REMARK    1  A    between atoms: C3*_2  and  O3*_19
REMARK    2  A    between atoms: C4*_4  and  C5*_17
REMARK    3  A    between atoms: C1*_6  and  N_8
REMARK    4  A    between atoms: C5*_17  and  O5*_18
REMARK                            x       y       z     vdW  Elec       q    Type
REMARK                         _______ _______ _______ _____ _____    ______ ____
ROOT
ATOM      1  C2* UNL     1       5.984  -2.633  22.776  0.00  0.00    +0.088 C 
ATOM      2  C1* UNL     1       6.795  -2.888  24.041  0.00  0.00    +0.226 C 
ATOM      3  O4* UNL     1       7.361  -4.213  23.956  0.00  0.00    -0.348 OA
ATOM      4  C4* UNL     1       6.948  -4.815  22.711  0.00  0.00    +0.175 C 
ATOM      5  C3* UNL     1       6.550  -3.647  21.810  0.00  0.00    +0.150 C 
ENDROOT
BRANCH   2   6
ATOM      6  N   UNL     1       7.848  -1.898  24.250  0.00  0.00    -0.273 N 
ATOM      7  C   UNL     1       8.438  -1.872  25.507  0.00  0.00    +0.331 A 
ATOM      8  O   UNL     1       8.134  -2.627  26.426  0.00  0.00    -0.246 OA
ATOM      9  N   UNL     1       9.408  -0.921  25.686  0.00  0.00    -0.274 N 
ATOM     10  H   UNL     1       9.857  -0.900  26.588  0.00  0.00    +0.173 HD
ATOM     11  C   UNL     1       9.812   0.011  24.771  0.00  0.00    +0.267 A 
ATOM     12  O   UNL     1      10.696   0.817  25.043  0.00  0.00    -0.267 OA
ATOM     13  C   UNL     1       9.111  -0.025  23.459  0.00  0.00    +0.094 A 
ATOM     14  I   UNL     1       9.575   1.343  22.014  0.00  0.00    -0.037 I 
ATOM     15  C   UNL     1       8.180  -0.972  23.276  0.00  0.00    +0.113 A 
ENDBRANCH   2   6
BRANCH   5  16
ATOM     16  O3* UNL     1       5.656  -3.975  20.764  0.00  0.00    -0.389 OA
ATOM     17  H3* UNL     1       5.981  -3.557  19.944  0.00  0.00    +0.210 HD
ENDBRANCH   5  16
BRANCH   4  18
ATOM     18  C5* UNL     1       5.849  -5.847  22.990  0.00  0.00    +0.190 C 
BRANCH  18  19
ATOM     19  O5* UNL     1       5.405  -6.478  21.790  0.00  0.00    -0.392 OA
ATOM     20  H5* UNL     1       5.320  -7.427  21.998  0.00  0.00    +0.210 HD
ENDBRANCH  18  19
ENDBRANCH   4  18
TORSDOF 4
ENDMDL
MODEL 9
REMARK VINA RESULT:      -5.6      3.401      5.809
REMARK  Name = 
REMARK  4 active torsions:
REMARK  status: ('A' for Active; 'I' for Inactive)
REMARK    1  A    between atoms: C3*_2  and  O3*_19
REMARK    2  A    between atoms: C4*_4  and  C5*_17
REMARK    3  A    between atoms: C1*_6  and  N_8
REMARK    4  A    between atoms: C5*_17  and  O5*_18
REMARK                            x       y       z     vdW  Elec       q    Type
REMARK                         _______ _______ _______ _____ _____    ______ ____
ROOT
ATOM      1  C2* UNL     1       6.933  -3.551  24.280  0.00  0.00    +0.088 C 
ATOM      2  C1* UNL     1       7.326  -2.395  25.193  0.00  0.00    +0.226 C 
ATOM      3  O4* UNL     1       8.695  -2.589  25.606  0.00  0.00    -0.348 OA
ATOM      4  C4* UNL     1       9.189  -3.809  25.013  0.00  0.00    +0.175 C 
ATOM      5  C3* UNL     1       8.271  -4.080  23.822  0.00  0.00    +0.150 C 
ENDROOT
BRANCH   2   6
ATOM      6  N   UNL     1       7.168  -1.089  24.557  0.00  0.00    -0.273 N 
ATOM      7  C   UNL     1       5.916  -0.497  24.654  0.00  0.00    +0.331 A 
ATOM      8  O   UNL     1       4.961  -0.997  25.241  0.00  0.00    -0.246 OA
ATOM      9  N   UNL     1       5.785   0.716  24.031  0.00  0.00    -0.274 N 
ATOM     10  H   UNL     1       4.887   1.167  24.106  0.00  0.00    +0.173 HD
ATOM     11  C   UNL     1       6.746   1.366  23.306  0.00  0.00    +0.267 A 
ATOM     12  O   UNL     1       6.515   2.456  22.792  0.00  0.00    -0.267 OA
ATOM     13  C   UNL     1       8.052   0.664  23.188  0.00  0.00    +0.094 A 
ATOM     14  I   UNL     1       9.562   1.492  22.089  0.00  0.00    -0.037 I 
ATOM     15  C   UNL     1       8.187  -0.512  23.818  0.00  0.00    +0.113 A 
ENDBRANCH   2   6
BRANCH   5  16
ATOM     16  O3* UNL     1       8.218  -5.429  23.401  0.00  0.00    -0.389 OA
ATOM     17  H3* UNL     1       7.352  -5.583  22.978  0.00  0.00    +0.210 HD
ENDBRANCH   5  16
BRANCH   4  18
ATOM     18  C5* UNL     1       9.237  -4.907  26.082  0.00  0.00    +0.190 C 
BRANCH  18  19
ATOM     19  O5* UNL     1       9.930  -6.064  25.615  0.00  0.00    -0.392 OA
ATOM     20  H5* UNL     1      10.867  -5.803  25.534  0.00  0.00    +0.210 HD
ENDBRANCH  18  19
ENDBRANCH   4  18
TORSDOF 4
ENDMDL
