MODEL 1
REMARK VINA RESULT:      -5.7      0.000      0.000
REMARK  Name = 
REMARK  11 active torsions:
REMARK  status: ('A' for Active; 'I' for Inactive)
REMARK    1  A    between atoms: C_1  and  C_2
REMARK    2  A    between atoms: C_2  and  C_3
REMARK    3  A    between atoms: C_3  and  C_4
REMARK    4  A    between atoms: C_3  and  O_6
REMARK    5  A    between atoms: C_4  and  C_5
REMARK    6  A    between atoms: O_6  and  C_7
REMARK    7  A    between atoms: C_9  and  C_18
REMARK    8  A    between atoms: C_11  and  N_17
REMARK    9  A    between atoms: C_12  and  N_13
REMARK   10  A    between atoms: C_14  and  C_16
REMARK   11  A    between atoms: C_18  and  O_20
REMARK                            x       y       z     vdW  Elec       q    Type
REMARK                         _______ _______ _______ _____ _____    ______ ____
ROOT
ATOM      1  C   UNL     1       8.681  -2.952  24.836  0.00  0.00    +0.164 C 
ATOM      2  C   UNL     1       8.413  -3.329  23.346  0.00  0.00    +0.122 C 
ATOM      3  C   UNL     1       7.227  -4.298  23.076  0.00  0.00    +0.078 C 
ATOM      4  C   UNL     1       6.750  -5.190  24.237  0.00  0.00    +0.062 C 
ATOM      5  C   UNL     1       7.298  -4.907  25.610  0.00  0.00    +0.036 C 
ATOM      6  C   UNL     1       8.145  -3.902  25.858  0.00  0.00    +0.016 C 
ENDROOT
BRANCH   2   7
ATOM      7  N   UNL     1       8.317  -2.106  22.530  0.00  0.00    -0.308 N 
ATOM      8  H   UNL     1       7.375  -1.832  22.269  0.00  0.00    +0.149 HD
ATOM      9  C   UNL     1       9.393  -1.446  21.994  0.00  0.00    +0.210 C 
ATOM     10  C   UNL     1       9.036  -0.241  21.163  0.00  0.00    +0.109 C 
ATOM     11  O   UNL     1      10.556  -1.795  22.168  0.00  0.00    -0.276 OA
ENDBRANCH   2   7
BRANCH   3  12
ATOM     12  N   UNL     1       7.506  -5.192  21.925  0.00  0.00    -0.325 NA
ATOM     13  H   UNL     1       6.598  -5.581  21.598  0.00  0.00    +0.119 HD
ATOM     14  H   UNL     1       7.808  -4.643  21.115  0.00  0.00    +0.119 HD
ENDBRANCH   3  12
BRANCH   5  15
ATOM     15  C   UNL     1       6.754  -5.788  26.682  0.00  0.00    +0.333 C 
ATOM     16  O   UNL     1       5.709  -6.405  26.559  0.00  0.00    -0.245 OA
BRANCH  15  17
ATOM     17  O   UNL     1       7.522  -5.904  27.781  0.00  0.00    -0.477 OA
ATOM     18  H   UNL     1       8.481  -5.914  27.628  0.00  0.00    +0.295 HD
ENDBRANCH  15  17
ENDBRANCH   5  15
BRANCH   1  19
ATOM     19  O   UNL     1       8.227  -1.606  25.132  0.00  0.00    -0.367 OA
BRANCH  19  20
ATOM     20  C   UNL     1       9.180  -0.758  25.818  0.00  0.00    +0.119 C 
BRANCH  20  22
ATOM     21  C   UNL     1      10.906   0.742  24.620  0.00  0.00    +0.006 C 
ATOM     22  C   UNL     1       9.459   0.544  25.039  0.00  0.00    +0.028 C 
ENDBRANCH  20  22
BRANCH  20  23
ATOM     23  C   UNL     1       8.715  -0.523  27.271  0.00  0.00    +0.028 C 
ATOM     24  C   UNL     1       7.396   0.215  27.435  0.00  0.00    +0.006 C 
ENDBRANCH  20  23
ENDBRANCH  19  20
ENDBRANCH   1  19
TORSDOF 8
ENDMDL
MODEL 2
REMARK VINA RESULT:      -5.6      4.565      6.742
REMARK  Name = 
REMARK  11 active torsions:
REMARK  status: ('A' for Active; 'I' for Inactive)
REMARK    1  A    between atoms: C_1  and  C_2
REMARK    2  A    between atoms: C_2  and  C_3
REMARK    3  A    between atoms: C_3  and  C_4
REMARK    4  A    between atoms: C_3  and  O_6
REMARK    5  A    between atoms: C_4  and  C_5
REMARK    6  A    between atoms: O_6  and  C_7
REMARK    7  A    between atoms: C_9  and  C_18
REMARK    8  A    between atoms: C_11  and  N_17
REMARK    9  A    between atoms: C_12  and  N_13
REMARK   10  A    between atoms: C_14  and  C_16
REMARK   11  A    between atoms: C_18  and  O_20
REMARK                            x       y       z     vdW  Elec       q    Type
REMARK                         _______ _______ _______ _____ _____    ______ ____
ROOT
ATOM      1  C   UNL     1       8.490   2.808  22.493  0.00  0.00    +0.164 C 
ATOM      2  C   UNL     1       8.965   3.878  23.524  0.00  0.00    +0.122 C 
ATOM      3  C   UNL     1       8.552   3.648  25.006  0.00  0.00    +0.078 C 
ATOM      4  C   UNL     1       7.340   2.738  25.280  0.00  0.00    +0.062 C 
ATOM      5  C   UNL     1       6.779   1.950  24.127  0.00  0.00    +0.036 C 
ATOM      6  C   UNL     1       7.311   1.985  22.900  0.00  0.00    +0.016 C 
ENDROOT
BRANCH   2   7
ATOM      7  N   UNL     1      10.417   4.094  23.388  0.00  0.00    -0.308 N 
ATOM      8  H   UNL     1      10.971   3.252  23.267  0.00  0.00    +0.149 HD
ATOM      9  C   UNL     1      11.041   5.301  23.574  0.00  0.00    +0.210 C 
ATOM     10  C   UNL     1      12.538   5.261  23.417  0.00  0.00    +0.109 C 
ATOM     11  O   UNL     1      10.442   6.337  23.843  0.00  0.00    -0.276 OA
ENDBRANCH   2   7
BRANCH   3  12
ATOM     12  N   UNL     1       8.302   4.932  25.706  0.00  0.00    -0.325 NA
ATOM     13  H   UNL     1       7.904   4.711  26.641  0.00  0.00    +0.119 HD
ATOM     14  H   UNL     1       9.189   5.380  25.951  0.00  0.00    +0.119 HD
ENDBRANCH   3  12
BRANCH   5  15
ATOM     15  C   UNL     1       5.636   1.065  24.487  0.00  0.00    +0.333 C 
ATOM     16  O   UNL     1       4.638   1.477  25.055  0.00  0.00    -0.245 OA
BRANCH  15  17
ATOM     17  O   UNL     1       5.751  -0.217  24.094  0.00  0.00    -0.477 OA
ATOM     18  H   UNL     1       4.917  -0.692  23.948  0.00  0.00    +0.295 HD
ENDBRANCH  15  17
ENDBRANCH   5  15
BRANCH   1  19
ATOM     19  O   UNL     1       9.581   1.938  22.091  0.00  0.00    -0.367 OA
BRANCH  19  20
ATOM     20  C   UNL     1       9.582   0.618  22.684  0.00  0.00    +0.119 C 
BRANCH  20  22
ATOM     21  C   UNL     1       8.965  -1.783  21.962  0.00  0.00    +0.006 C 
ATOM     22  C   UNL     1       9.692  -0.494  21.619  0.00  0.00    +0.028 C 
ENDBRANCH  20  22
BRANCH  20  23
ATOM     23  C   UNL     1      10.670   0.539  23.776  0.00  0.00    +0.028 C 
ATOM     24  C   UNL     1      10.186   0.173  25.170  0.00  0.00    +0.006 C 
ENDBRANCH  20  23
ENDBRANCH  19  20
ENDBRANCH   1  19
TORSDOF 8
ENDMDL
MODEL 3
REMARK VINA RESULT:      -5.6      2.146      6.455
REMARK  Name = 
REMARK  11 active torsions:
REMARK  status: ('A' for Active; 'I' for Inactive)
REMARK    1  A    between atoms: C_1  and  C_2
REMARK    2  A    between atoms: C_2  and  C_3
REMARK    3  A    between atoms: C_3  and  C_4
REMARK    4  A    between atoms: C_3  and  O_6
REMARK    5  A    between atoms: C_4  and  C_5
REMARK    6  A    between atoms: O_6  and  C_7
REMARK    7  A    between atoms: C_9  and  C_18
REMARK    8  A    between atoms: C_11  and  N_17
REMARK    9  A    between atoms: C_12  and  N_13
REMARK   10  A    between atoms: C_14  and  C_16
REMARK   11  A    between atoms: C_18  and  O_20
REMARK                            x       y       z     vdW  Elec       q    Type
REMARK                         _______ _______ _______ _____ _____    ______ ____
ROOT
ATOM      1  C   UNL     1       8.310  -3.221  24.299  0.00  0.00    +0.164 C 
ATOM      2  C   UNL     1       8.234  -2.621  25.737  0.00  0.00    +0.122 C 
ATOM      3  C   UNL     1       8.316  -1.072  25.850  0.00  0.00    +0.078 C 
ATOM      4  C   UNL     1       8.958  -0.300  24.681  0.00  0.00    +0.062 C 
ATOM      5  C   UNL     1       9.250  -1.061  23.415  0.00  0.00    +0.036 C 
ATOM      6  C   UNL     1       8.944  -2.353  23.261  0.00  0.00    +0.016 C 
ENDROOT
BRANCH   2   7
ATOM      7  N   UNL     1       7.056  -3.158  26.442  0.00  0.00    -0.308 N 
ATOM      8  H   UNL     1       6.252  -2.539  26.476  0.00  0.00    +0.149 HD
ATOM      9  C   UNL     1       7.049  -4.327  27.159  0.00  0.00    +0.210 C 
ATOM     10  C   UNL     1       5.735  -4.645  27.822  0.00  0.00    +0.109 C 
ATOM     11  O   UNL     1       8.024  -5.064  27.260  0.00  0.00    -0.276 OA
ENDBRANCH   2   7
BRANCH   3  12
ATOM     12  N   UNL     1       9.020  -0.653  27.087  0.00  0.00    -0.325 NA
ATOM     13  H   UNL     1      10.042  -0.730  26.912  0.00  0.00    +0.119 HD
ATOM     14  H   UNL     1       8.903   0.353  27.237  0.00  0.00    +0.119 HD
ENDBRANCH   3  12
BRANCH   5  15
ATOM     15  C   UNL     1       9.831  -0.231  22.321  0.00  0.00    +0.333 C 
ATOM     16  O   UNL     1      10.273   0.890  22.510  0.00  0.00    -0.245 OA
BRANCH  15  17
ATOM     17  O   UNL     1       9.887  -0.824  21.114  0.00  0.00    -0.477 OA
ATOM     18  H   UNL     1       9.389  -1.653  21.026  0.00  0.00    +0.295 HD
ENDBRANCH  15  17
ENDBRANCH   5  15
BRANCH   1  19
ATOM     19  O   UNL     1       7.006  -3.664  23.840  0.00  0.00    -0.367 OA
BRANCH  19  20
ATOM     20  C   UNL     1       6.912  -5.060  23.468  0.00  0.00    +0.119 C 
BRANCH  20  22
ATOM     21  C   UNL     1       4.488  -4.696  24.278  0.00  0.00    +0.006 C 
ATOM     22  C   UNL     1       5.580  -5.691  23.926  0.00  0.00    +0.028 C 
ENDBRANCH  20  22
BRANCH  20  23
ATOM     23  C   UNL     1       7.185  -5.216  21.958  0.00  0.00    +0.028 C 
ATOM     24  C   UNL     1       6.093  -5.906  21.154  0.00  0.00    +0.006 C 
ENDBRANCH  20  23
ENDBRANCH  19  20
ENDBRANCH   1  19
TORSDOF 8
ENDMDL
MODEL 4
REMARK VINA RESULT:      -5.5      2.134      5.014
REMARK  Name = 
REMARK  11 active torsions:
REMARK  status: ('A' for Active; 'I' for Inactive)
REMARK    1  A    between atoms: C_1  and  C_2
REMARK    2  A    between atoms: C_2  and  C_3
REMARK    3  A    between atoms: C_3  and  C_4
REMARK    4  A    between atoms: C_3  and  O_6
REMARK    5  A    between atoms: C_4  and  C_5
REMARK    6  A    between atoms: O_6  and  C_7
REMARK    7  A    between atoms: C_9  and  C_18
REMARK    8  A    between atoms: C_11  and  N_17
REMARK    9  A    between atoms: C_12  and  N_13
REMARK   10  A    between atoms: C_14  and  C_16
REMARK   11  A    between atoms: C_18  and  O_20
REMARK                            x       y       z     vdW  Elec       q    Type
REMARK                         _______ _______ _______ _____ _____    ______ ____
ROOT
ATOM      1  C   UNL     1       6.828  -2.657  24.197  0.00  0.00    +0.164 C 
ATOM      2  C   UNL     1       7.585  -2.799  22.840  0.00  0.00    +0.122 C 
ATOM      3  C   UNL     1       9.101  -2.451  22.850  0.00  0.00    +0.078 C 
ATOM      4  C   UNL     1       9.621  -1.541  23.979  0.00  0.00    +0.062 C 
ATOM      5  C   UNL     1       8.689  -1.239  25.122  0.00  0.00    +0.036 C 
ATOM      6  C   UNL     1       7.458  -1.753  25.206  0.00  0.00    +0.016 C 
ENDROOT
BRANCH   2   7
ATOM      7  N   UNL     1       7.334  -4.132  22.264  0.00  0.00    -0.308 N 
ATOM      8  H   UNL     1       8.063  -4.820  22.429  0.00  0.00    +0.149 HD
ATOM      9  C   UNL     1       6.296  -4.428  21.419  0.00  0.00    +0.210 C 
ATOM     10  C   UNL     1       6.273  -5.853  20.931  0.00  0.00    +0.109 C 
ATOM     11  O   UNL     1       5.446  -3.611  21.081  0.00  0.00    -0.276 OA
ENDBRANCH   2   7
BRANCH   3  12
ATOM     12  N   UNL     1       9.527  -1.840  21.566  0.00  0.00    -0.325 NA
ATOM     13  H   UNL     1       9.639  -0.818  21.723  0.00  0.00    +0.119 HD
ATOM     14  H   UNL     1      10.483  -2.128  21.338  0.00  0.00    +0.119 HD
ENDBRANCH   3  12
BRANCH   5  15
ATOM     15  C   UNL     1       9.285  -0.388  26.191  0.00  0.00    +0.333 C 
ATOM     16  O   UNL     1       8.958  -0.479  27.362  0.00  0.00    -0.245 OA
BRANCH  15  17
ATOM     17  O   UNL     1      10.252   0.455  25.786  0.00  0.00    -0.477 OA
ATOM     18  H   UNL     1      11.134   0.300  26.162  0.00  0.00    +0.295 HD
ENDBRANCH  15  17
ENDBRANCH   5  15
BRANCH   1  19
ATOM     19  O   UNL     1       6.564  -3.953  24.794  0.00  0.00    -0.367 OA
BRANCH  19  20
ATOM     20  C   UNL     1       7.361  -4.283  25.957  0.00  0.00    +0.119 C 
BRANCH  20  22
ATOM     21  C   UNL     1       5.709  -5.920  27.080  0.00  0.00    +0.006 C 
ATOM     22  C   UNL     1       6.485  -4.617  27.183  0.00  0.00    +0.028 C 
ENDBRANCH  20  22
BRANCH  20  23
ATOM     23  C   UNL     1       8.372  -5.392  25.597  0.00  0.00    +0.028 C 
ATOM     24  C   UNL     1       9.826  -4.959  25.500  0.00  0.00    +0.006 C 
ENDBRANCH  20  23
ENDBRANCH  19  20
ENDBRANCH   1  19
TORSDOF 8
ENDMDL
MODEL 5
REMARK VINA RESULT:      -5.5      3.610      6.252
REMARK  Name = 
REMARK  11 active torsions:
REMARK  status: ('A' for Active; 'I' for Inactive)
REMARK    1  A    between atoms: C_1  and  C_2
REMARK    2  A    between atoms: C_2  and  C_3
REMARK    3  A    between atoms: C_3  and  C_4
REMARK    4  A    between atoms: C_3  and  O_6
REMARK    5  A    between atoms: C_4  and  C_5
REMARK    6  A    between atoms: O_6  and  C_7
REMARK    7  A    between atoms: C_9  and  C_18
REMARK    8  A    between atoms: C_11  and  N_17
REMARK    9  A    between atoms: C_12  and  N_13
REMARK   10  A    between atoms: C_14  and  C_16
REMARK   11  A    between atoms: C_18  and  O_20
REMARK                            x       y       z     vdW  Elec       q    Type
REMARK                         _______ _______ _______ _____ _____    ______ ____
ROOT
ATOM      1  C   UNL     1       5.381  -5.576  24.966  0.00  0.00    +0.164 C 
ATOM      2  C   UNL     1       4.992  -5.646  23.457  0.00  0.00    +0.122 C 
ATOM      3  C   UNL     1       6.156  -5.864  22.448  0.00  0.00    +0.078 C 
ATOM      4  C   UNL     1       7.580  -5.493  22.904  0.00  0.00    +0.062 C 
ATOM      5  C   UNL     1       7.788  -5.166  24.358  0.00  0.00    +0.036 C 
ATOM      6  C   UNL     1       6.802  -5.219  25.260  0.00  0.00    +0.016 C 
ENDROOT
BRANCH   2   7
ATOM      7  N   UNL     1       3.910  -6.627  23.263  0.00  0.00    -0.308 N 
ATOM      8  H   UNL     1       4.210  -7.595  23.191  0.00  0.00    +0.149 HD
ATOM      9  C   UNL     1       2.600  -6.299  23.023  0.00  0.00    +0.210 C 
ATOM     10  C   UNL     1       1.687  -7.480  22.821  0.00  0.00    +0.109 C 
ATOM     11  O   UNL     1       2.191  -5.144  22.976  0.00  0.00    -0.276 OA
ENDBRANCH   2   7
BRANCH   3  12
ATOM     12  N   UNL     1       5.908  -5.154  21.169  0.00  0.00    -0.325 NA
ATOM     13  H   UNL     1       5.185  -5.688  20.646  0.00  0.00    +0.119 HD
ATOM     14  H   UNL     1       5.433  -4.264  21.345  0.00  0.00    +0.119 HD
ENDBRANCH   3  12
BRANCH   5  15
ATOM     15  C   UNL     1       9.200  -4.859  24.722  0.00  0.00    +0.333 C 
ATOM     16  O   UNL     1       9.755  -3.824  24.391  0.00  0.00    -0.245 OA
BRANCH  15  17
ATOM     17  O   UNL     1       9.811  -5.777  25.492  0.00  0.00    -0.477 OA
ATOM     18  H   UNL     1      10.645  -5.498  25.904  0.00  0.00    +0.295 HD
ENDBRANCH  15  17
ENDBRANCH   5  15
BRANCH   1  19
ATOM     19  O   UNL     1       5.027  -6.800  25.662  0.00  0.00    -0.367 OA
BRANCH  19  20
ATOM     20  C   UNL     1       4.203  -6.636  26.841  0.00  0.00    +0.119 C 
BRANCH  20  22
ATOM     21  C   UNL     1       5.463  -5.452  28.758  0.00  0.00    +0.006 C 
ATOM     22  C   UNL     1       5.022  -6.769  28.141  0.00  0.00    +0.028 C 
ENDBRANCH  20  22
BRANCH  20  23
ATOM     23  C   UNL     1       3.408  -5.317  26.741  0.00  0.00    +0.028 C 
ATOM     24  C   UNL     1       1.900  -5.459  26.612  0.00  0.00    +0.006 C 
ENDBRANCH  20  23
ENDBRANCH  19  20
ENDBRANCH   1  19
TORSDOF 8
ENDMDL
MODEL 6
REMARK VINA RESULT:      -5.4      2.673      3.799
REMARK  Name = 
REMARK  11 active torsions:
REMARK  status: ('A' for Active; 'I' for Inactive)
REMARK    1  A    between atoms: C_1  and  C_2
REMARK    2  A    between atoms: C_2  and  C_3
REMARK    3  A    between atoms: C_3  and  C_4
REMARK    4  A    between atoms: C_3  and  O_6
REMARK    5  A    between atoms: C_4  and  C_5
REMARK    6  A    between atoms: O_6  and  C_7
REMARK    7  A    between atoms: C_9  and  C_18
REMARK    8  A    between atoms: C_11  and  N_17
REMARK    9  A    between atoms: C_12  and  N_13
REMARK   10  A    between atoms: C_14  and  C_16
REMARK   11  A    between atoms: C_18  and  O_20
REMARK                            x       y       z     vdW  Elec       q    Type
REMARK                         _______ _______ _______ _____ _____    ______ ____
ROOT
ATOM      1  C   UNL     1       6.975  -1.817  23.781  0.00  0.00    +0.164 C 
ATOM      2  C   UNL     1       8.335  -2.353  24.326  0.00  0.00    +0.122 C 
ATOM      3  C   UNL     1       8.761  -3.774  23.859  0.00  0.00    +0.078 C 
ATOM      4  C   UNL     1       7.659  -4.724  23.352  0.00  0.00    +0.062 C 
ATOM      5  C   UNL     1       6.287  -4.147  23.123  0.00  0.00    +0.036 C 
ATOM      6  C   UNL     1       6.007  -2.852  23.308  0.00  0.00    +0.016 C 
ENDROOT
BRANCH   2   7
ATOM      7  N   UNL     1       9.397  -1.358  24.088  0.00  0.00    -0.308 N 
ATOM      8  H   UNL     1       9.925  -1.485  23.230  0.00  0.00    +0.149 HD
ATOM      9  C   UNL     1       9.795  -0.416  25.002  0.00  0.00    +0.210 C 
ATOM     10  C   UNL     1      10.927   0.463  24.539  0.00  0.00    +0.109 C 
ATOM     11  O   UNL     1       9.280  -0.287  26.107  0.00  0.00    -0.276 OA
ENDBRANCH   2   7
BRANCH   3  12
ATOM     12  N   UNL     1       9.505  -4.496  24.920  0.00  0.00    -0.325 NA
ATOM     13  H   UNL     1       9.045  -4.285  25.829  0.00  0.00    +0.119 HD
ATOM     14  H   UNL     1       9.356  -5.505  24.833  0.00  0.00    +0.119 HD
ENDBRANCH   3  12
BRANCH   5  15
ATOM     15  C   UNL     1       5.292  -5.122  22.594  0.00  0.00    +0.333 C 
ATOM     16  O   UNL     1       4.092  -4.905  22.599  0.00  0.00    -0.245 OA
BRANCH  15  17
ATOM     17  O   UNL     1       5.810  -6.241  22.056  0.00  0.00    -0.477 OA
ATOM     18  H   UNL     1       5.605  -6.395  21.119  0.00  0.00    +0.295 HD
ENDBRANCH  15  17
ENDBRANCH   5  15
BRANCH   1  19
ATOM     19  O   UNL     1       7.175  -0.821  22.744  0.00  0.00    -0.367 OA
BRANCH  19  20
ATOM     20  C   UNL     1       6.654   0.498  23.032  0.00  0.00    +0.119 C 
BRANCH  20  22
ATOM     21  C   UNL     1       6.665   1.895  25.204  0.00  0.00    +0.006 C 
ATOM     22  C   UNL     1       6.198   0.632  24.500  0.00  0.00    +0.028 C 
ENDBRANCH  20  22
BRANCH  20  23
ATOM     23  C   UNL     1       7.681   1.568  22.603  0.00  0.00    +0.028 C 
ATOM     24  C   UNL     1       8.698   1.131  21.560  0.00  0.00    +0.006 C 
ENDBRANCH  20  23
ENDBRANCH  19  20
ENDBRANCH   1  19
TORSDOF 8
ENDMDL
MODEL 7
REMARK VINA RESULT:      -5.3      2.161      5.101
REMARK  Name = 
REMARK  11 active torsions:
REMARK  status: ('A' for Active; 'I' for Inactive)
REMARK    1  A    between atoms: C_1  and  C_2
REMARK    2  A    between atoms: C_2  and  C_3
REMARK    3  A    between atoms: C_3  and  C_4
REMARK    4  A    between atoms: C_3  and  O_6
REMARK    5  A    between atoms: C_4  and  C_5
REMARK    6  A    between atoms: O_6  and  C_7
REMARK    7  A    between atoms: C_9  and  C_18
REMARK    8  A    between atoms: C_11  and  N_17
REMARK    9  A    between atoms: C_12  and  N_13
REMARK   10  A    between atoms: C_14  and  C_16
REMARK   11  A    between atoms: C_18  and  O_20
REMARK                            x       y       z     vdW  Elec       q    Type
REMARK                         _______ _______ _______ _____ _____    ______ ____
ROOT
ATOM      1  C   UNL     1       6.846  -3.245  24.022  0.00  0.00    +0.164 C 
ATOM      2  C   UNL     1       7.514  -4.483  24.695  0.00  0.00    +0.122 C 
ATOM      3  C   UNL     1       9.030  -4.363  25.023  0.00  0.00    +0.078 C 
ATOM      4  C   UNL     1       9.853  -3.320  24.244  0.00  0.00    +0.062 C 
ATOM      5  C   UNL     1       9.104  -2.331  23.391  0.00  0.00    +0.036 C 
ATOM      6  C   UNL     1       7.769  -2.307  23.315  0.00  0.00    +0.016 C 
ENDROOT
BRANCH   2   7
ATOM      7  N   UNL     1       6.731  -4.897  25.873  0.00  0.00    -0.308 N 
ATOM      8  H   UNL     1       7.073  -4.550  26.764  0.00  0.00    +0.149 HD
ATOM      9  C   UNL     1       5.713  -5.815  25.843  0.00  0.00    +0.210 C 
ATOM     10  C   UNL     1       5.089  -6.101  27.184  0.00  0.00    +0.109 C 
ATOM     11  O   UNL     1       5.329  -6.366  24.816  0.00  0.00    -0.276 OA
ENDBRANCH   2   7
BRANCH   3  12
ATOM     12  N   UNL     1       9.724  -5.666  24.874  0.00  0.00    -0.325 NA
ATOM     13  H   UNL     1       9.490  -6.044  23.933  0.00  0.00    +0.119 HD
ATOM     14  H   UNL     1      10.735  -5.523  24.802  0.00  0.00    +0.119 HD
ENDBRANCH   3  12
BRANCH   5  15
ATOM     15  C   UNL     1       9.972  -1.332  22.705  0.00  0.00    +0.333 C 
ATOM     16  O   UNL     1      10.513  -0.414  23.299  0.00  0.00    -0.245 OA
BRANCH  15  17
ATOM     17  O   UNL     1      10.166  -1.540  21.391  0.00  0.00    -0.477 OA
ATOM     18  H   UNL     1       9.492  -1.168  20.798  0.00  0.00    +0.295 HD
ENDBRANCH  15  17
ENDBRANCH   5  15
BRANCH   1  19
ATOM     19  O   UNL     1       6.025  -2.508  24.966  0.00  0.00    -0.367 OA
BRANCH  19  20
ATOM     20  C   UNL     1       6.547  -1.223  25.383  0.00  0.00    +0.119 C 
BRANCH  20  22
ATOM     21  C   UNL     1       5.852   1.114  24.533  0.00  0.00    +0.006 C 
ATOM     22  C   UNL     1       5.470  -0.119  25.335  0.00  0.00    +0.028 C 
ENDBRANCH  20  22
BRANCH  20  23
ATOM     23  C   UNL     1       7.232  -1.362  26.759  0.00  0.00    +0.028 C 
ATOM     24  C   UNL     1       8.670  -0.872  26.837  0.00  0.00    +0.006 C 
ENDBRANCH  20  23
ENDBRANCH  19  20
ENDBRANCH   1  19
TORSDOF 8
ENDMDL
MODEL 8
REMARK VINA RESULT:      -5.3      2.153      3.536
REMARK  Name = 
REMARK  11 active torsions:
REMARK  status: ('A' for Active; 'I' for Inactive)
REMARK    1  A    between atoms: C_1  and  C_2
REMARK    2  A    between atoms: C_2  and  C_3
REMARK    3  A    between atoms: C_3  and  C_4
REMARK    4  A    between atoms: C_3  and  O_6
REMARK    5  A    between atoms: C_4  and  C_5
REMARK    6  A    between atoms: O_6  and  C_7
REMARK    7  A    between atoms: C_9  and  C_18
REMARK    8  A    between atoms: C_11  and  N_17
REMARK    9  A    between atoms: C_12  and  N_13
REMARK   10  A    between atoms: C_14  and  C_16
REMARK   11  A    between atoms: C_18  and  O_20
REMARK                            x       y       z     vdW  Elec       q    Type
REMARK                         _______ _______ _______ _____ _____    ______ ____
ROOT
ATOM      1  C   UNL     1       8.366  -0.880  25.576  0.00  0.00    +0.164 C 
ATOM      2  C   UNL     1       9.041  -0.728  24.178  0.00  0.00    +0.122 C 
ATOM      3  C   UNL     1       9.323  -2.042  23.394  0.00  0.00    +0.078 C 
ATOM      4  C   UNL     1       9.407  -3.353  24.198  0.00  0.00    +0.062 C 
ATOM      5  C   UNL     1       8.985  -3.318  25.643  0.00  0.00    +0.036 C 
ATOM      6  C   UNL     1       8.515  -2.214  26.233  0.00  0.00    +0.016 C 
ENDROOT
BRANCH   2   7
ATOM      7  N   UNL     1       8.292   0.245  23.363  0.00  0.00    -0.308 N 
ATOM      8  H   UNL     1       7.281   0.190  23.444  0.00  0.00    +0.149 HD
ATOM      9  C   UNL     1       8.858   1.069  22.424  0.00  0.00    +0.210 C 
ATOM     10  C   UNL     1       7.879   1.949  21.693  0.00  0.00    +0.109 C 
ATOM     11  O   UNL     1      10.061   1.099  22.189  0.00  0.00    -0.276 OA
ENDBRANCH   2   7
BRANCH   3  12
ATOM     12  N   UNL     1      10.567  -1.941  22.592  0.00  0.00    -0.325 NA
ATOM     13  H   UNL     1      10.382  -2.373  21.664  0.00  0.00    +0.119 HD
ATOM     14  H   UNL     1      10.748  -0.965  22.342  0.00  0.00    +0.119 HD
ENDBRANCH   3  12
BRANCH   5  15
ATOM     15  C   UNL     1       9.057  -4.636  26.335  0.00  0.00    +0.333 C 
ATOM     16  O   UNL     1       8.229  -4.994  27.155  0.00  0.00    -0.245 OA
BRANCH  15  17
ATOM     17  O   UNL     1      10.071  -5.434  25.954  0.00  0.00    -0.477 OA
ATOM     18  H   UNL     1      10.957  -5.035  25.979  0.00  0.00    +0.295 HD
ENDBRANCH  15  17
ENDBRANCH   5  15
BRANCH   1  19
ATOM     19  O   UNL     1       6.963  -0.509  25.530  0.00  0.00    -0.367 OA
BRANCH  19  20
ATOM     20  C   UNL     1       6.021  -1.604  25.624  0.00  0.00    +0.119 C 
BRANCH  20  22
ATOM     21  C   UNL     1       5.182  -0.282  27.677  0.00  0.00    +0.006 C 
ATOM     22  C   UNL     1       4.854  -1.281  26.581  0.00  0.00    +0.028 C 
ENDBRANCH  20  22
BRANCH  20  23
ATOM     23  C   UNL     1       5.565  -2.020  24.210  0.00  0.00    +0.028 C 
ATOM     24  C   UNL     1       5.640  -3.507  23.899  0.00  0.00    +0.006 C 
ENDBRANCH  20  23
ENDBRANCH  19  20
ENDBRANCH   1  19
TORSDOF 8
ENDMDL
MODEL 9
REMARK VINA RESULT:      -5.2      2.810      4.448
REMARK  Name = 
REMARK  11 active torsions:
REMARK  status: ('A' for Active; 'I' for Inactive)
REMARK    1  A    between atoms: C_1  and  C_2
REMARK    2  A    between atoms: C_2  and  C_3
REMARK    3  A    between atoms: C_3  and  C_4
REMARK    4  A    between atoms: C_3  and  O_6
REMARK    5  A    between atoms: C_4  and  C_5
REMARK    6  A    between atoms: O_6  and  C_7
REMARK    7  A    between atoms: C_9  and  C_18
REMARK    8  A    between atoms: C_11  and  N_17
REMARK    9  A    between atoms: C_12  and  N_13
REMARK   10  A    between atoms: C_14  and  C_16
REMARK   11  A    between atoms: C_18  and  O_20
REMARK                            x       y       z     vdW  Elec       q    Type
REMARK                         _______ _______ _______ _____ _____    ______ ____
ROOT
ATOM      1  C   UNL     1       7.153  -1.482  25.163  0.00  0.00    +0.164 C 
ATOM      2  C   UNL     1       8.108  -0.561  24.343  0.00  0.00    +0.122 C 
ATOM      3  C   UNL     1       9.253  -1.267  23.562  0.00  0.00    +0.078 C 
ATOM      4  C   UNL     1       9.682  -2.671  24.028  0.00  0.00    +0.062 C 
ATOM      5  C   UNL     1       8.820  -3.363  25.051  0.00  0.00    +0.036 C 
ATOM      6  C   UNL     1       7.695  -2.824  25.533  0.00  0.00    +0.016 C 
ENDROOT
BRANCH   2   7
ATOM      7  N   UNL     1       7.320   0.329  23.472  0.00  0.00    -0.308 N 
ATOM      8  H   UNL     1       6.557  -0.118  22.972  0.00  0.00    +0.149 HD
ATOM      9  C   UNL     1       7.651   1.629  23.190  0.00  0.00    +0.210 C 
ATOM     10  C   UNL     1       6.709   2.323  22.242  0.00  0.00    +0.109 C 
ATOM     11  O   UNL     1       8.630   2.195  23.665  0.00  0.00    -0.276 OA
ENDBRANCH   2   7
BRANCH   3  12
ATOM     12  N   UNL     1      10.477  -0.430  23.517  0.00  0.00    -0.325 NA
ATOM     13  H   UNL     1      11.130  -0.783  24.246  0.00  0.00    +0.119 HD
ATOM     14  H   UNL     1      10.999  -0.611  22.655  0.00  0.00    +0.119 HD
ENDBRANCH   3  12
BRANCH   5  15
ATOM     15  C   UNL     1       9.281  -4.733  25.415  0.00  0.00    +0.333 C 
ATOM     16  O   UNL     1       9.391  -5.630  24.596  0.00  0.00    -0.245 OA
BRANCH  15  17
ATOM     17  O   UNL     1       9.625  -4.903  26.705  0.00  0.00    -0.477 OA
ATOM     18  H   UNL     1       8.938  -5.277  27.281  0.00  0.00    +0.295 HD
ENDBRANCH  15  17
ENDBRANCH   5  15
BRANCH   1  19
ATOM     19  O   UNL     1       5.869  -1.636  24.503  0.00  0.00    -0.367 OA
BRANCH  19  20
ATOM     20  C   UNL     1       5.552  -2.974  24.050  0.00  0.00    +0.119 C 
BRANCH  20  22
ATOM     21  C   UNL     1       3.759  -2.862  25.905  0.00  0.00    +0.006 C 
ATOM     22  C   UNL     1       4.178  -3.449  24.568  0.00  0.00    +0.028 C 
ENDBRANCH  20  22
BRANCH  20  23
ATOM     23  C   UNL     1       5.697  -3.052  22.516  0.00  0.00    +0.028 C 
ATOM     24  C   UNL     1       6.767  -4.000  21.997  0.00  0.00    +0.006 C 
ENDBRANCH  20  23
ENDBRANCH  19  20
ENDBRANCH   1  19
TORSDOF 8
ENDMDL
