MODEL 1
REMARK VINA RESULT:      -6.2      0.000      0.000
REMARK  Name = 
REMARK  6 active torsions:
REMARK  status: ('A' for Active; 'I' for Inactive)
REMARK    1  A    between atoms: C_3  and  C_19
REMARK    2  A    between atoms: N_5  and  C1*_6
REMARK    3  A    between atoms: C2*_8  and  O2*_18
REMARK    4  A    between atoms: C3*_10  and  O3*_17
REMARK    5  A    between atoms: C4*_12  and  C5*_15
REMARK    6  A    between atoms: C5*_15  and  O5*_16
REMARK                            x       y       z     vdW  Elec       q    Type
REMARK                         _______ _______ _______ _____ _____    ______ ____
ROOT
ATOM      1  C1* UNL     1       8.045  -1.631  23.394  0.00  0.00    +0.270 C 
ATOM      2  O4* UNL     1       7.764  -0.312  22.870  0.00  0.00    -0.344 OA
ATOM      3  C4* UNL     1       9.014   0.425  22.882  0.00  0.00    +0.177 C 
ATOM      4  C3* UNL     1      10.123  -0.558  23.279  0.00  0.00    +0.178 C 
ATOM      5  C2* UNL     1       9.498  -1.919  23.014  0.00  0.00    +0.196 C 
ENDROOT
BRANCH   1   7
ATOM      6  C   UNL     1       5.726  -2.558  23.040  0.00  0.00    +0.223 A 
ATOM      7  N   UNL     1       7.074  -2.579  22.877  0.00  0.00    -0.220 N 
ATOM      8  N   UNL     1       7.466  -3.674  22.182  0.00  0.00    -0.142 NA
ATOM      9  C   UNL     1       6.284  -4.292  21.952  0.00  0.00    +0.236 A 
ATOM     10  N   UNL     1       5.197  -3.612  22.468  0.00  0.00    -0.211 NA
BRANCH   9  11
ATOM     11  C   UNL     1       6.173  -5.577  21.227  0.00  0.00    +0.281 C 
ATOM     12  N   UNL     1       6.249  -6.699  22.018  0.00  0.00    -0.323 N 
ATOM     13  H   UNL     1       6.168  -7.607  21.588  0.00  0.00    +0.145 HD
ATOM     14  H   UNL     1       6.365  -6.597  23.018  0.00  0.00    +0.145 HD
ATOM     15  O   UNL     1       6.015  -5.687  20.013  0.00  0.00    -0.267 OA
ENDBRANCH   9  11
ENDBRANCH   1   7
BRANCH   4  16
ATOM     16  O3* UNL     1      10.378  -0.444  24.691  0.00  0.00    -0.386 OA
ATOM     17  H3* UNL     1      11.284  -0.093  24.782  0.00  0.00    +0.210 HD
ENDBRANCH   4  16
BRANCH   5  18
ATOM     18  O2* UNL     1      10.130  -2.937  23.785  0.00  0.00    -0.385 OA
ATOM     19  H2* UNL     1       9.423  -3.443  24.228  0.00  0.00    +0.210 HD
ENDBRANCH   5  18
BRANCH   3  20
ATOM     20  C5* UNL     1       9.240   1.048  21.504  0.00  0.00    +0.190 C 
BRANCH  20  21
ATOM     21  O5* UNL     1      10.150   2.141  21.589  0.00  0.00    -0.392 OA
ATOM     22  H5* UNL     1       9.796   2.841  21.009  0.00  0.00    +0.210 HD
ENDBRANCH  20  21
ENDBRANCH   3  20
TORSDOF 6
ENDMDL
MODEL 2
REMARK VINA RESULT:      -6.0      2.499      3.813
REMARK  Name = 
REMARK  6 active torsions:
REMARK  status: ('A' for Active; 'I' for Inactive)
REMARK    1  A    between atoms: C_3  and  C_19
REMARK    2  A    between atoms: N_5  and  C1*_6
REMARK    3  A    between atoms: C2*_8  and  O2*_18
REMARK    4  A    between atoms: C3*_10  and  O3*_17
REMARK    5  A    between atoms: C4*_12  and  C5*_15
REMARK    6  A    between atoms: C5*_15  and  O5*_16
REMARK                            x       y       z     vdW  Elec       q    Type
REMARK                         _______ _______ _______ _____ _____    ______ ____
ROOT
ATOM      1  C1* UNL     1       8.919  -1.035  22.607  0.00  0.00    +0.270 C 
ATOM      2  O4* UNL     1      10.245  -0.547  22.916  0.00  0.00    -0.344 OA
ATOM      3  C4* UNL     1      10.195   0.901  22.833  0.00  0.00    +0.177 C 
ATOM      4  C3* UNL     1       8.728   1.298  22.627  0.00  0.00    +0.178 C 
ATOM      5  C2* UNL     1       7.962   0.062  23.076  0.00  0.00    +0.196 C 
ENDROOT
BRANCH   1   7
ATOM      6  C   UNL     1       7.878  -3.322  22.837  0.00  0.00    +0.223 A 
ATOM      7  N   UNL     1       8.720  -2.332  23.231  0.00  0.00    -0.220 N 
ATOM      8  N   UNL     1       9.365  -2.665  24.375  0.00  0.00    -0.142 NA
ATOM      9  C   UNL     1       8.857  -3.894  24.630  0.00  0.00    +0.236 A 
ATOM     10  N   UNL     1       7.943  -4.319  23.685  0.00  0.00    -0.211 NA
BRANCH   9  11
ATOM     11  C   UNL     1       9.239  -4.695  25.814  0.00  0.00    +0.281 C 
ATOM     12  N   UNL     1      10.195  -5.655  25.582  0.00  0.00    -0.323 N 
ATOM     13  H   UNL     1      10.509  -6.228  26.349  0.00  0.00    +0.145 HD
ATOM     14  H   UNL     1      10.582  -5.760  24.653  0.00  0.00    +0.145 HD
ATOM     15  O   UNL     1       8.773  -4.547  26.941  0.00  0.00    -0.267 OA
ENDBRANCH   9  11
ENDBRANCH   1   7
BRANCH   4  16
ATOM     16  O3* UNL     1       8.480   1.499  21.223  0.00  0.00    -0.386 OA
ATOM     17  H3* UNL     1       9.001   2.281  20.959  0.00  0.00    +0.210 HD
ENDBRANCH   4  16
BRANCH   5  18
ATOM     18  O2* UNL     1       6.664   0.018  22.489  0.00  0.00    -0.385 OA
ATOM     19  H2* UNL     1       6.736  -0.510  21.671  0.00  0.00    +0.210 HD
ENDBRANCH   5  18
BRANCH   3  20
ATOM     20  C5* UNL     1      10.797   1.495  24.107  0.00  0.00    +0.190 C 
BRANCH  20  21
ATOM     21  O5* UNL     1      10.625   0.606  25.207  0.00  0.00    -0.392 OA
ATOM     22  H5* UNL     1      11.272  -0.114  25.084  0.00  0.00    +0.210 HD
ENDBRANCH  20  21
ENDBRANCH   3  20
TORSDOF 6
ENDMDL
MODEL 3
REMARK VINA RESULT:      -6.0      3.165      3.700
REMARK  Name = 
REMARK  6 active torsions:
REMARK  status: ('A' for Active; 'I' for Inactive)
REMARK    1  A    between atoms: C_3  and  C_19
REMARK    2  A    between atoms: N_5  and  C1*_6
REMARK    3  A    between atoms: C2*_8  and  O2*_18
REMARK    4  A    between atoms: C3*_10  and  O3*_17
REMARK    5  A    between atoms: C4*_12  and  C5*_15
REMARK    6  A    between atoms: C5*_15  and  O5*_16
REMARK                            x       y       z     vdW  Elec       q    Type
REMARK                         _______ _______ _______ _____ _____    ______ ____
ROOT
ATOM      1  C1* UNL     1       9.180  -0.073  23.546  0.00  0.00    +0.270 C 
ATOM      2  O4* UNL     1       8.250   0.933  24.010  0.00  0.00    -0.344 OA
ATOM      3  C4* UNL     1       8.008   1.833  22.897  0.00  0.00    +0.177 C 
ATOM      4  C3* UNL     1       8.701   1.236  21.665  0.00  0.00    +0.178 C 
ATOM      5  C2* UNL     1       8.907  -0.221  22.049  0.00  0.00    +0.196 C 
ENDROOT
BRANCH   1   7
ATOM      6  C   UNL     1       8.622  -1.395  25.621  0.00  0.00    +0.223 A 
ATOM      7  N   UNL     1       9.013  -1.288  24.325  0.00  0.00    -0.220 N 
ATOM      8  N   UNL     1       9.308  -2.502  23.801  0.00  0.00    -0.142 NA
ATOM      9  C   UNL     1       9.074  -3.320  24.853  0.00  0.00    +0.236 A 
ATOM     10  N   UNL     1       8.642  -2.654  25.983  0.00  0.00    -0.211 NA
BRANCH   9  11
ATOM     11  C   UNL     1       9.275  -4.785  24.797  0.00  0.00    +0.281 C 
ATOM     12  N   UNL     1      10.115  -5.295  25.758  0.00  0.00    -0.323 N 
ATOM     13  H   UNL     1      10.286  -6.287  25.783  0.00  0.00    +0.145 HD
ATOM     14  H   UNL     1      10.534  -4.671  26.436  0.00  0.00    +0.145 HD
ATOM     15  O   UNL     1       8.747  -5.535  23.978  0.00  0.00    -0.267 OA
ENDBRANCH   9  11
ENDBRANCH   1   7
BRANCH   4  16
ATOM     16  O3* UNL     1       9.994   1.849  21.502  0.00  0.00    -0.386 OA
ATOM     17  H3* UNL     1      10.639   1.120  21.431  0.00  0.00    +0.210 HD
ENDBRANCH   4  16
BRANCH   5  18
ATOM     18  O2* UNL     1       9.968  -0.807  21.299  0.00  0.00    -0.385 OA
ATOM     19  H2* UNL     1      10.165  -0.204  20.558  0.00  0.00    +0.210 HD
ENDBRANCH   5  18
BRANCH   3  20
ATOM     20  C5* UNL     1       6.500   1.998  22.707  0.00  0.00    +0.190 C 
BRANCH  20  21
ATOM     21  O5* UNL     1       5.786   1.091  23.541  0.00  0.00    -0.392 OA
ATOM     22  H5* UNL     1       5.066   1.604  23.955  0.00  0.00    +0.210 HD
ENDBRANCH  20  21
ENDBRANCH   3  20
TORSDOF 6
ENDMDL
MODEL 4
REMARK VINA RESULT:      -5.9      2.720      3.339
REMARK  Name = 
REMARK  6 active torsions:
REMARK  status: ('A' for Active; 'I' for Inactive)
REMARK    1  A    between atoms: C_3  and  C_19
REMARK    2  A    between atoms: N_5  and  C1*_6
REMARK    3  A    between atoms: C2*_8  and  O2*_18
REMARK    4  A    between atoms: C3*_10  and  O3*_17
REMARK    5  A    between atoms: C4*_12  and  C5*_15
REMARK    6  A    between atoms: C5*_15  and  O5*_16
REMARK                            x       y       z     vdW  Elec       q    Type
REMARK                         _______ _______ _______ _____ _____    ______ ____
ROOT
ATOM      1  C1* UNL     1       8.299  -0.469  24.374  0.00  0.00    +0.270 C 
ATOM      2  O4* UNL     1       7.694   0.063  23.172  0.00  0.00    -0.344 OA
ATOM      3  C4* UNL     1       8.202   1.411  23.002  0.00  0.00    +0.177 C 
ATOM      4  C3* UNL     1       9.287   1.631  24.064  0.00  0.00    +0.178 C 
ATOM      5  C2* UNL     1       9.662   0.217  24.481  0.00  0.00    +0.196 C 
ENDROOT
BRANCH   1   7
ATOM      6  C   UNL     1       7.972  -2.706  23.256  0.00  0.00    +0.223 A 
ATOM      7  N   UNL     1       8.344  -1.918  24.297  0.00  0.00    -0.220 N 
ATOM      8  N   UNL     1       8.740  -2.664  25.357  0.00  0.00    -0.142 NA
ATOM      9  C   UNL     1       8.576  -3.922  24.885  0.00  0.00    +0.236 A 
ATOM     10  N   UNL     1       8.111  -3.967  23.586  0.00  0.00    -0.211 NA
BRANCH   9  11
ATOM     11  C   UNL     1       8.860  -5.130  25.692  0.00  0.00    +0.281 C 
ATOM     12  N   UNL     1      10.166  -5.556  25.660  0.00  0.00    -0.323 N 
ATOM     13  H   UNL     1      10.430  -6.366  26.198  0.00  0.00    +0.145 HD
ATOM     14  H   UNL     1      10.846  -5.042  25.115  0.00  0.00    +0.145 HD
ATOM     15  O   UNL     1       8.029  -5.736  26.364  0.00  0.00    -0.267 OA
ENDBRANCH   9  11
ENDBRANCH   1   7
BRANCH   4  16
ATOM     16  O3* UNL     1       8.713   2.302  25.200  0.00  0.00    -0.386 OA
ATOM     17  H3* UNL     1       9.407   2.330  25.886  0.00  0.00    +0.210 HD
ENDBRANCH   4  16
BRANCH   5  18
ATOM     18  O2* UNL     1      10.242   0.200  25.783  0.00  0.00    -0.385 OA
ATOM     19  H2* UNL     1       9.587   0.585  26.395  0.00  0.00    +0.210 HD
ENDBRANCH   5  18
BRANCH   3  20
ATOM     20  C5* UNL     1       8.728   1.570  21.575  0.00  0.00    +0.190 C 
BRANCH  20  21
ATOM     21  O5* UNL     1       9.997   2.218  21.576  0.00  0.00    -0.392 OA
ATOM     22  H5* UNL     1      10.044   2.732  22.404  0.00  0.00    +0.210 HD
ENDBRANCH  20  21
ENDBRANCH   3  20
TORSDOF 6
ENDMDL
MODEL 5
REMARK VINA RESULT:      -5.7      3.039      5.966
REMARK  Name = 
REMARK  6 active torsions:
REMARK  status: ('A' for Active; 'I' for Inactive)
REMARK    1  A    between atoms: C_3  and  C_19
REMARK    2  A    between atoms: N_5  and  C1*_6
REMARK    3  A    between atoms: C2*_8  and  O2*_18
REMARK    4  A    between atoms: C3*_10  and  O3*_17
REMARK    5  A    between atoms: C4*_12  and  C5*_15
REMARK    6  A    between atoms: C5*_15  and  O5*_16
REMARK                            x       y       z     vdW  Elec       q    Type
REMARK                         _______ _______ _______ _____ _____    ______ ____
ROOT
ATOM      1  C1* UNL     1       9.408  -2.806  24.542  0.00  0.00    +0.270 C 
ATOM      2  O4* UNL     1       8.969  -3.982  23.823  0.00  0.00    -0.344 OA
ATOM      3  C4* UNL     1       8.236  -4.807  24.766  0.00  0.00    +0.177 C 
ATOM      4  C3* UNL     1       8.094  -4.003  26.065  0.00  0.00    +0.178 C 
ATOM      5  C2* UNL     1       8.352  -2.571  25.622  0.00  0.00    +0.196 C 
ENDROOT
BRANCH   1   7
ATOM      6  C   UNL     1       9.648  -1.766  22.256  0.00  0.00    +0.223 A 
ATOM      7  N   UNL     1       9.591  -1.706  23.611  0.00  0.00    -0.220 N 
ATOM      8  N   UNL     1       9.791  -0.441  24.053  0.00  0.00    -0.142 NA
ATOM      9  C   UNL     1       9.970   0.231  22.892  0.00  0.00    +0.236 A 
ATOM     10  N   UNL     1       9.877  -0.570  21.771  0.00  0.00    -0.211 NA
BRANCH   9  11
ATOM     11  C   UNL     1      10.250   1.684  22.835  0.00  0.00    +0.281 C 
ATOM     12  N   UNL     1       9.935   2.290  21.643  0.00  0.00    -0.323 N 
ATOM     13  H   UNL     1      10.089   3.280  21.542  0.00  0.00    +0.145 HD
ATOM     14  H   UNL     1       9.536   1.740  20.894  0.00  0.00    +0.145 HD
ATOM     15  O   UNL     1      10.720   2.344  23.759  0.00  0.00    -0.267 OA
ENDBRANCH   9  11
ENDBRANCH   1   7
BRANCH   4  16
ATOM     16  O3* UNL     1       9.134  -4.389  26.981  0.00  0.00    -0.386 OA
ATOM     17  H3* UNL     1       9.943  -3.924  26.695  0.00  0.00    +0.210 HD
ENDBRANCH   4  16
BRANCH   5  18
ATOM     18  O2* UNL     1       8.780  -1.763  26.715  0.00  0.00    -0.385 OA
ATOM     19  H2* UNL     1       9.616  -1.337  26.448  0.00  0.00    +0.210 HD
ENDBRANCH   5  18
BRANCH   3  20
ATOM     20  C5* UNL     1       6.888  -5.188  24.153  0.00  0.00    +0.190 C 
BRANCH  20  21
ATOM     21  O5* UNL     1       6.693  -4.519  22.911  0.00  0.00    -0.392 OA
ATOM     22  H5* UNL     1       6.172  -5.124  22.350  0.00  0.00    +0.210 HD
ENDBRANCH  20  21
ENDBRANCH   3  20
TORSDOF 6
ENDMDL
MODEL 6
REMARK VINA RESULT:      -5.6      2.982      5.797
REMARK  Name = 
REMARK  6 active torsions:
REMARK  status: ('A' for Active; 'I' for Inactive)
REMARK    1  A    between atoms: C_3  and  C_19
REMARK    2  A    between atoms: N_5  and  C1*_6
REMARK    3  A    between atoms: C2*_8  and  O2*_18
REMARK    4  A    between atoms: C3*_10  and  O3*_17
REMARK    5  A    between atoms: C4*_12  and  C5*_15
REMARK    6  A    between atoms: C5*_15  and  O5*_16
REMARK                            x       y       z     vdW  Elec       q    Type
REMARK                         _______ _______ _______ _____ _____    ______ ____
ROOT
ATOM      1  C1* UNL     1       7.796  -2.799  23.836  0.00  0.00    +0.270 C 
ATOM      2  O4* UNL     1       8.377  -2.852  25.160  0.00  0.00    -0.344 OA
ATOM      3  C4* UNL     1       8.174  -4.198  25.660  0.00  0.00    +0.177 C 
ATOM      4  C3* UNL     1       7.589  -5.031  24.512  0.00  0.00    +0.178 C 
ATOM      5  C2* UNL     1       7.934  -4.215  23.275  0.00  0.00    +0.196 C 
ENDROOT
BRANCH   1   7
ATOM      6  C   UNL     1       9.681  -1.808  22.483  0.00  0.00    +0.223 A 
ATOM      7  N   UNL     1       8.451  -1.763  23.057  0.00  0.00    -0.220 N 
ATOM      8  N   UNL     1       7.868  -0.554  22.871  0.00  0.00    -0.142 NA
ATOM      9  C   UNL     1       8.818   0.104  22.165  0.00  0.00    +0.236 A 
ATOM     10  N   UNL     1       9.941  -0.658  21.909  0.00  0.00    -0.211 NA
BRANCH   9  11
ATOM     11  C   UNL     1       8.667   1.508  21.723  0.00  0.00    +0.281 C 
ATOM     12  N   UNL     1       9.845   2.200  21.572  0.00  0.00    -0.323 N 
ATOM     13  H   UNL     1       9.814   3.157  21.261  0.00  0.00    +0.145 HD
ATOM     14  H   UNL     1      10.724   1.734  21.756  0.00  0.00    +0.145 HD
ATOM     15  O   UNL     1       7.593   2.058  21.486  0.00  0.00    -0.267 OA
ENDBRANCH   9  11
ENDBRANCH   1   7
BRANCH   4  16
ATOM     16  O3* UNL     1       6.156  -5.080  24.638  0.00  0.00    -0.386 OA
ATOM     17  H3* UNL     1       5.861  -5.869  24.147  0.00  0.00    +0.210 HD
ENDBRANCH   4  16
BRANCH   5  18
ATOM     18  O2* UNL     1       7.057  -4.521  22.194  0.00  0.00    -0.385 OA
ATOM     19  H2* UNL     1       6.299  -5.010  22.568  0.00  0.00    +0.210 HD
ENDBRANCH   5  18
BRANCH   3  20
ATOM     20  C5* UNL     1       9.505  -4.747  26.173  0.00  0.00    +0.190 C 
BRANCH  20  21
ATOM     21  O5* UNL     1       9.796  -6.006  25.571  0.00  0.00    -0.392 OA
ATOM     22  H5* UNL     1       8.937  -6.439  25.408  0.00  0.00    +0.210 HD
ENDBRANCH  20  21
ENDBRANCH   3  20
TORSDOF 6
ENDMDL
MODEL 7
REMARK VINA RESULT:      -5.6      2.949      5.951
REMARK  Name = 
REMARK  6 active torsions:
REMARK  status: ('A' for Active; 'I' for Inactive)
REMARK    1  A    between atoms: C_3  and  C_19
REMARK    2  A    between atoms: N_5  and  C1*_6
REMARK    3  A    between atoms: C2*_8  and  O2*_18
REMARK    4  A    between atoms: C3*_10  and  O3*_17
REMARK    5  A    between atoms: C4*_12  and  C5*_15
REMARK    6  A    between atoms: C5*_15  and  O5*_16
REMARK                            x       y       z     vdW  Elec       q    Type
REMARK                         _______ _______ _______ _____ _____    ______ ____
ROOT
ATOM      1  C1* UNL     1       9.103  -2.504  23.579  0.00  0.00    +0.270 C 
ATOM      2  O4* UNL     1       8.321  -2.532  22.363  0.00  0.00    -0.344 OA
ATOM      3  C4* UNL     1       7.456  -3.695  22.441  0.00  0.00    +0.177 C 
ATOM      4  C3* UNL     1       7.617  -4.292  23.845  0.00  0.00    +0.178 C 
ATOM      5  C2* UNL     1       8.219  -3.149  24.647  0.00  0.00    +0.196 C 
ENDROOT
BRANCH   1   7
ATOM      6  C   UNL     1       9.636  -0.545  25.077  0.00  0.00    +0.223 A 
ATOM      7  N   UNL     1       9.514  -1.139  23.862  0.00  0.00    -0.220 N 
ATOM      8  N   UNL     1       9.775  -0.265  22.861  0.00  0.00    -0.142 NA
ATOM      9  C   UNL     1      10.052   0.867  23.549  0.00  0.00    +0.236 A 
ATOM     10  N   UNL     1       9.979   0.711  24.920  0.00  0.00    -0.211 NA
BRANCH   9  11
ATOM     11  C   UNL     1      10.388   2.150  22.892  0.00  0.00    +0.281 C 
ATOM     12  N   UNL     1       9.978   2.257  21.584  0.00  0.00    -0.323 N 
ATOM     13  H   UNL     1      10.165   3.110  21.081  0.00  0.00    +0.145 HD
ATOM     14  H   UNL     1       9.480   1.489  21.153  0.00  0.00    +0.145 HD
ATOM     15  O   UNL     1      10.978   3.082  23.432  0.00  0.00    -0.267 OA
ENDBRANCH   9  11
ENDBRANCH   1   7
BRANCH   4  16
ATOM     16  O3* UNL     1       8.573  -5.367  23.800  0.00  0.00    -0.386 OA
ATOM     17  H3* UNL     1       9.456  -4.955  23.841  0.00  0.00    +0.210 HD
ENDBRANCH   4  16
BRANCH   5  18
ATOM     18  O2* UNL     1       8.917  -3.633  25.792  0.00  0.00    -0.385 OA
ATOM     19  H2* UNL     1       8.262  -4.083  26.358  0.00  0.00    +0.210 HD
ENDBRANCH   5  18
BRANCH   3  20
ATOM     20  C5* UNL     1       6.019  -3.270  22.138  0.00  0.00    +0.190 C 
BRANCH  20  21
ATOM     21  O5* UNL     1       5.596  -3.788  20.880  0.00  0.00    -0.392 OA
ATOM     22  H5* UNL     1       5.280  -3.025  20.360  0.00  0.00    +0.210 HD
ENDBRANCH  20  21
ENDBRANCH   3  20
TORSDOF 6
ENDMDL
MODEL 8
REMARK VINA RESULT:      -5.5      2.896      6.269
REMARK  Name = 
REMARK  6 active torsions:
REMARK  status: ('A' for Active; 'I' for Inactive)
REMARK    1  A    between atoms: C_3  and  C_19
REMARK    2  A    between atoms: N_5  and  C1*_6
REMARK    3  A    between atoms: C2*_8  and  O2*_18
REMARK    4  A    between atoms: C3*_10  and  O3*_17
REMARK    5  A    between atoms: C4*_12  and  C5*_15
REMARK    6  A    between atoms: C5*_15  and  O5*_16
REMARK                            x       y       z     vdW  Elec       q    Type
REMARK                         _______ _______ _______ _____ _____    ______ ____
ROOT
ATOM      1  C1* UNL     1       6.439  -4.398  23.375  0.00  0.00    +0.270 C 
ATOM      2  O4* UNL     1       5.830  -4.426  24.688  0.00  0.00    -0.344 OA
ATOM      3  C4* UNL     1       4.933  -5.566  24.716  0.00  0.00    +0.177 C 
ATOM      4  C3* UNL     1       5.144  -6.349  23.414  0.00  0.00    +0.178 C 
ATOM      5  C2* UNL     1       6.498  -5.858  22.924  0.00  0.00    +0.196 C 
ENDROOT
BRANCH   1   7
ATOM      6  C   UNL     1       8.772  -4.021  24.259  0.00  0.00    +0.223 A 
ATOM      7  N   UNL     1       7.723  -3.724  23.448  0.00  0.00    -0.220 N 
ATOM      8  N   UNL     1       7.982  -2.627  22.697  0.00  0.00    -0.142 NA
ATOM      9  C   UNL     1       9.227  -2.297  23.110  0.00  0.00    +0.236 A 
ATOM     10  N   UNL     1       9.735  -3.152  24.068  0.00  0.00    -0.211 NA
BRANCH   9  11
ATOM     11  C   UNL     1       9.966  -1.125  22.589  0.00  0.00    +0.281 C 
ATOM     12  N   UNL     1       9.833  -0.906  21.239  0.00  0.00    -0.323 N 
ATOM     13  H   UNL     1      10.300  -0.117  20.823  0.00  0.00    +0.145 HD
ATOM     14  H   UNL     1       9.253  -1.526  20.688  0.00  0.00    +0.145 HD
ATOM     15  O   UNL     1      10.653  -0.368  23.272  0.00  0.00    -0.267 OA
ENDBRANCH   9  11
ENDBRANCH   1   7
BRANCH   4  16
ATOM     16  O3* UNL     1       4.146  -5.956  22.454  0.00  0.00    -0.386 OA
ATOM     17  H3* UNL     1       4.135  -4.980  22.448  0.00  0.00    +0.210 HD
ENDBRANCH   4  16
BRANCH   5  18
ATOM     18  O2* UNL     1       6.638  -6.047  21.518  0.00  0.00    -0.385 OA
ATOM     19  H2* UNL     1       5.740  -6.043  21.137  0.00  0.00    +0.210 HD
ENDBRANCH   5  18
BRANCH   3  20
ATOM     20  C5* UNL     1       5.226  -6.401  25.963  0.00  0.00    +0.190 C 
BRANCH  20  21
ATOM     21  O5* UNL     1       6.506  -6.075  26.498  0.00  0.00    -0.392 OA
ATOM     22  H5* UNL     1       7.129  -6.738  26.146  0.00  0.00    +0.210 HD
ENDBRANCH  20  21
ENDBRANCH   3  20
TORSDOF 6
ENDMDL
MODEL 9
REMARK VINA RESULT:      -5.5      2.666      3.739
REMARK  Name = 
REMARK  6 active torsions:
REMARK  status: ('A' for Active; 'I' for Inactive)
REMARK    1  A    between atoms: C_3  and  C_19
REMARK    2  A    between atoms: N_5  and  C1*_6
REMARK    3  A    between atoms: C2*_8  and  O2*_18
REMARK    4  A    between atoms: C3*_10  and  O3*_17
REMARK    5  A    between atoms: C4*_12  and  C5*_15
REMARK    6  A    between atoms: C5*_15  and  O5*_16
REMARK                            x       y       z     vdW  Elec       q    Type
REMARK                         _______ _______ _______ _____ _____    ______ ____
ROOT
ATOM      1  C1* UNL     1       7.311  -1.289  23.143  0.00  0.00    +0.270 C 
ATOM      2  O4* UNL     1       8.396  -0.977  22.237  0.00  0.00    -0.344 OA
ATOM      3  C4* UNL     1       8.430   0.467  22.096  0.00  0.00    +0.177 C 
ATOM      4  C3* UNL     1       7.421   1.049  23.094  0.00  0.00    +0.178 C 
ATOM      5  C2* UNL     1       7.208  -0.087  24.083  0.00  0.00    +0.196 C 
ENDROOT
BRANCH   1   7
ATOM      6  C   UNL     1       7.959  -3.726  23.216  0.00  0.00    +0.223 A 
ATOM      7  N   UNL     1       7.572  -2.560  23.795  0.00  0.00    -0.220 N 
ATOM      8  N   UNL     1       7.382  -2.715  25.128  0.00  0.00    -0.142 NA
ATOM      9  C   UNL     1       7.673  -4.026  25.297  0.00  0.00    +0.236 A 
ATOM     10  N   UNL     1       8.040  -4.664  24.128  0.00  0.00    -0.211 NA
BRANCH   9  11
ATOM     11  C   UNL     1       7.594  -4.707  26.608  0.00  0.00    +0.281 C 
ATOM     12  N   UNL     1       8.375  -5.832  26.727  0.00  0.00    -0.323 N 
ATOM     13  H   UNL     1       8.377  -6.337  27.599  0.00  0.00    +0.145 HD
ATOM     14  H   UNL     1       8.949  -6.126  25.947  0.00  0.00    +0.145 HD
ATOM     15  O   UNL     1       6.906  -4.331  27.554  0.00  0.00    -0.267 OA
ENDBRANCH   9  11
ENDBRANCH   1   7
BRANCH   4  16
ATOM     16  O3* UNL     1       6.175   1.303  22.421  0.00  0.00    -0.386 OA
ATOM     17  H3* UNL     1       6.399   1.532  21.499  0.00  0.00    +0.210 HD
ENDBRANCH   4  16
BRANCH   5  18
ATOM     18  O2* UNL     1       5.959   0.042  24.757  0.00  0.00    -0.385 OA
ATOM     19  H2* UNL     1       5.954   0.918  25.187  0.00  0.00    +0.210 HD
ENDBRANCH   5  18
BRANCH   3  20
ATOM     20  C5* UNL     1       9.856   0.959  22.339  0.00  0.00    +0.190 C 
BRANCH  20  21
ATOM     21  O5* UNL     1      10.117   2.140  21.584  0.00  0.00    -0.392 OA
ATOM     22  H5* UNL     1      11.078   2.156  21.420  0.00  0.00    +0.210 HD
ENDBRANCH  20  21
ENDBRANCH   3  20
TORSDOF 6
ENDMDL
