MODEL 1
REMARK VINA RESULT:      -6.1      0.000      0.000
REMARK  Name = 
REMARK  5 active torsions:
REMARK  status: ('A' for Active; 'I' for Inactive)
REMARK    1  A    between atoms: C3*_2  and  O3*_19
REMARK    2  A    between atoms: C4*_3  and  C5*_17
REMARK    3  A    between atoms: C1*_5  and  N_6
REMARK    4  A    between atoms: C_8  and  C_14
REMARK    5  A    between atoms: C5*_17  and  O5*_18
REMARK                            x       y       z     vdW  Elec       q    Type
REMARK                         _______ _______ _______ _____ _____    ______ ____
ROOT
ATOM      1  N   UNL     1       8.152  -4.286  24.709  0.00  0.00    -0.273 N 
ATOM      2  C   UNL     1       8.995  -5.112  25.435  0.00  0.00    +0.331 A 
ATOM      3  O   UNL     1      10.171  -5.320  25.143  0.00  0.00    -0.246 OA
ATOM      4  N   UNL     1       8.453  -5.668  26.561  0.00  0.00    -0.274 N 
ATOM      5  H   UNL     1       9.079  -6.213  27.134  0.00  0.00    +0.173 HD
ATOM      6  C   UNL     1       7.272  -5.295  27.140  0.00  0.00    +0.261 A 
ATOM      7  O   UNL     1       6.986  -5.629  28.285  0.00  0.00    -0.267 OA
ATOM      8  C   UNL     1       6.370  -4.444  26.309  0.00  0.00    +0.056 A 
ATOM      9  C   UNL     1       6.871  -4.003  25.147  0.00  0.00    +0.106 A 
ENDROOT
BRANCH   1  11
ATOM     10  C2* UNL     1       9.572  -2.376  23.996  0.00  0.00    +0.088 C 
ATOM     11  C1* UNL     1       8.731  -3.578  23.570  0.00  0.00    +0.226 C 
ATOM     12  O4* UNL     1       7.707  -3.094  22.679  0.00  0.00    -0.348 OA
ATOM     13  C4* UNL     1       7.875  -1.669  22.495  0.00  0.00    +0.175 C 
ATOM     14  C3* UNL     1       9.312  -1.373  22.898  0.00  0.00    +0.150 C 
BRANCH  14  15
ATOM     15  O3* UNL     1      10.208  -1.611  21.811  0.00  0.00    -0.389 OA
ATOM     16  H3* UNL     1      10.940  -0.968  21.856  0.00  0.00    +0.210 HD
ENDBRANCH  14  15
BRANCH  13  17
ATOM     17  C5* UNL     1       6.861  -0.900  23.358  0.00  0.00    +0.190 C 
BRANCH  17  18
ATOM     18  O5* UNL     1       6.482   0.333  22.748  0.00  0.00    -0.392 OA
ATOM     19  H5* UNL     1       6.653   1.049  23.386  0.00  0.00    +0.210 HD
ENDBRANCH  17  18
ENDBRANCH  13  17
ENDBRANCH   1  11
BRANCH   8  20
ATOM     20  C   UNL     1       5.086  -4.018  26.844  0.00  0.00    +0.022 C 
ATOM     21  C   UNL     1       3.919  -4.661  26.700  0.00  0.00    +0.052 C 
ATOM     22 BR   UNL     1       2.306  -4.030  27.368  0.00  0.00    -0.059 Br
ENDBRANCH   8  20
TORSDOF 5
ENDMDL
MODEL 2
REMARK VINA RESULT:      -6.1      2.465      2.924
REMARK  Name = 
REMARK  5 active torsions:
REMARK  status: ('A' for Active; 'I' for Inactive)
REMARK    1  A    between atoms: C3*_2  and  O3*_19
REMARK    2  A    between atoms: C4*_3  and  C5*_17
REMARK    3  A    between atoms: C1*_5  and  N_6
REMARK    4  A    between atoms: C_8  and  C_14
REMARK    5  A    between atoms: C5*_17  and  O5*_18
REMARK                            x       y       z     vdW  Elec       q    Type
REMARK                         _______ _______ _______ _____ _____    ______ ____
ROOT
ATOM      1  N   UNL     1       6.734  -4.837  23.285  0.00  0.00    -0.273 N 
ATOM      2  C   UNL     1       6.158  -5.673  22.342  0.00  0.00    +0.331 A 
ATOM      3  O   UNL     1       6.532  -5.751  21.174  0.00  0.00    -0.246 OA
ATOM      4  N   UNL     1       5.147  -6.474  22.800  0.00  0.00    -0.274 N 
ATOM      5  H   UNL     1       4.771  -7.136  22.141  0.00  0.00    +0.173 HD
ATOM      6  C   UNL     1       4.838  -6.686  24.115  0.00  0.00    +0.261 A 
ATOM      7  O   UNL     1       4.120  -7.617  24.462  0.00  0.00    -0.267 OA
ATOM      8  C   UNL     1       5.440  -5.734  25.096  0.00  0.00    +0.056 A 
ATOM      9  C   UNL     1       6.343  -4.872  24.611  0.00  0.00    +0.106 A 
ENDROOT
BRANCH   1  11
ATOM     10  C2* UNL     1       8.764  -3.621  24.042  0.00  0.00    +0.088 C 
ATOM     11  C1* UNL     1       7.896  -4.058  22.864  0.00  0.00    +0.226 C 
ATOM     12  O4* UNL     1       7.498  -2.866  22.156  0.00  0.00    -0.348 OA
ATOM     13  C4* UNL     1       8.091  -1.715  22.799  0.00  0.00    +0.175 C 
ATOM     14  C3* UNL     1       9.254  -2.258  23.616  0.00  0.00    +0.150 C 
BRANCH  14  15
ATOM     15  O3* UNL     1      10.424  -2.400  22.809  0.00  0.00    -0.389 OA
ATOM     16  H3* UNL     1      10.577  -1.570  22.321  0.00  0.00    +0.210 HD
ENDBRANCH  14  15
BRANCH  13  17
ATOM     17  C5* UNL     1       7.049  -1.002  23.677  0.00  0.00    +0.190 C 
BRANCH  17  18
ATOM     18  O5* UNL     1       6.361   0.017  22.952  0.00  0.00    -0.392 OA
ATOM     19  H5* UNL     1       5.622   0.329  23.503  0.00  0.00    +0.210 HD
ENDBRANCH  17  18
ENDBRANCH  13  17
ENDBRANCH   1  11
BRANCH   8  20
ATOM     20  C   UNL     1       5.146  -5.880  26.513  0.00  0.00    +0.022 C 
ATOM     21  C   UNL     1       6.035  -5.809  27.514  0.00  0.00    +0.052 C 
ATOM     22 BR   UNL     1       5.596  -6.058  29.300  0.00  0.00    -0.059 Br
ENDBRANCH   8  20
TORSDOF 5
ENDMDL
MODEL 3
REMARK VINA RESULT:      -6.0      2.925      5.333
REMARK  Name = 
REMARK  5 active torsions:
REMARK  status: ('A' for Active; 'I' for Inactive)
REMARK    1  A    between atoms: C3*_2  and  O3*_19
REMARK    2  A    between atoms: C4*_3  and  C5*_17
REMARK    3  A    between atoms: C1*_5  and  N_6
REMARK    4  A    between atoms: C_8  and  C_14
REMARK    5  A    between atoms: C5*_17  and  O5*_18
REMARK                            x       y       z     vdW  Elec       q    Type
REMARK                         _______ _______ _______ _____ _____    ______ ____
ROOT
ATOM      1  N   UNL     1       9.168  -1.875  24.065  0.00  0.00    -0.273 N 
ATOM      2  C   UNL     1      10.123  -1.220  23.303  0.00  0.00    +0.331 A 
ATOM      3  O   UNL     1      10.692  -1.723  22.337  0.00  0.00    -0.246 OA
ATOM      4  N   UNL     1      10.377   0.076  23.660  0.00  0.00    -0.274 N 
ATOM      5  H   UNL     1      11.017   0.582  23.068  0.00  0.00    +0.173 HD
ATOM      6  C   UNL     1       9.619   0.826  24.515  0.00  0.00    +0.261 A 
ATOM      7  O   UNL     1       9.734   2.045  24.572  0.00  0.00    -0.267 OA
ATOM      8  C   UNL     1       8.635   0.079  25.352  0.00  0.00    +0.056 A 
ATOM      9  C   UNL     1       8.481  -1.222  25.072  0.00  0.00    +0.106 A 
ENDROOT
BRANCH   1  11
ATOM     10  C2* UNL     1       7.289  -3.483  23.829  0.00  0.00    +0.088 C 
ATOM     11  C1* UNL     1       8.780  -3.217  23.638  0.00  0.00    +0.226 C 
ATOM     12  O4* UNL     1       9.497  -4.228  24.374  0.00  0.00    -0.348 OA
ATOM     13  C4* UNL     1       8.547  -5.129  24.988  0.00  0.00    +0.175 C 
ATOM     14  C3* UNL     1       7.250  -4.943  24.213  0.00  0.00    +0.150 C 
BRANCH  14  15
ATOM     15  O3* UNL     1       7.240  -5.748  23.033  0.00  0.00    -0.389 OA
ATOM     16  H3* UNL     1       8.085  -6.229  22.969  0.00  0.00    +0.210 HD
ENDBRANCH  14  15
BRANCH  13  17
ATOM     17  C5* UNL     1       8.384  -4.792  26.479  0.00  0.00    +0.190 C 
BRANCH  17  18
ATOM     18  O5* UNL     1       8.011  -5.941  27.238  0.00  0.00    -0.392 OA
ATOM     19  H5* UNL     1       8.142  -6.727  26.679  0.00  0.00    +0.210 HD
ENDBRANCH  17  18
ENDBRANCH  13  17
ENDBRANCH   1  11
BRANCH   8  20
ATOM     20  C   UNL     1       7.801   0.801  26.301  0.00  0.00    +0.022 C 
ATOM     21  C   UNL     1       7.252   0.294  27.413  0.00  0.00    +0.052 C 
ATOM     22 BR   UNL     1       6.153   1.263  28.553  0.00  0.00    -0.059 Br
ENDBRANCH   8  20
TORSDOF 5
ENDMDL
MODEL 4
REMARK VINA RESULT:      -6.0      3.037      3.992
REMARK  Name = 
REMARK  5 active torsions:
REMARK  status: ('A' for Active; 'I' for Inactive)
REMARK    1  A    between atoms: C3*_2  and  O3*_19
REMARK    2  A    between atoms: C4*_3  and  C5*_17
REMARK    3  A    between atoms: C1*_5  and  N_6
REMARK    4  A    between atoms: C_8  and  C_14
REMARK    5  A    between atoms: C5*_17  and  O5*_18
REMARK                            x       y       z     vdW  Elec       q    Type
REMARK                         _______ _______ _______ _____ _____    ______ ____
ROOT
ATOM      1  N   UNL     1       9.069  -1.467  25.140  0.00  0.00    -0.273 N 
ATOM      2  C   UNL     1       8.635  -1.636  26.446  0.00  0.00    +0.331 A 
ATOM      3  O   UNL     1       8.707  -0.767  27.311  0.00  0.00    -0.246 OA
ATOM      4  N   UNL     1       8.056  -2.845  26.725  0.00  0.00    -0.274 N 
ATOM      5  H   UNL     1       7.673  -2.951  27.650  0.00  0.00    +0.173 HD
ATOM      6  C   UNL     1       7.664  -3.769  25.796  0.00  0.00    +0.261 A 
ATOM      7  O   UNL     1       6.907  -4.688  26.088  0.00  0.00    -0.267 OA
ATOM      8  C   UNL     1       8.191  -3.579  24.412  0.00  0.00    +0.056 A 
ATOM      9  C   UNL     1       8.862  -2.442  24.182  0.00  0.00    +0.106 A 
ENDROOT
BRANCH   1  11
ATOM     10  C2* UNL     1       8.478   0.787  24.280  0.00  0.00    +0.088 C 
ATOM     11  C1* UNL     1       9.579  -0.148  24.774  0.00  0.00    +0.226 C 
ATOM     12  O4* UNL     1      10.568  -0.242  23.729  0.00  0.00    -0.348 OA
ATOM     13  C4* UNL     1      10.169   0.604  22.625  0.00  0.00    +0.175 C 
ATOM     14  C3* UNL     1       9.172   1.594  23.208  0.00  0.00    +0.150 C 
BRANCH  14  15
ATOM     15  O3* UNL     1       9.844   2.704  23.806  0.00  0.00    -0.389 OA
ATOM     16  H3* UNL     1       9.349   3.520  23.605  0.00  0.00    +0.210 HD
ENDBRANCH  14  15
BRANCH  13  17
ATOM     17  C5* UNL     1       9.552  -0.247  21.503  0.00  0.00    +0.190 C 
BRANCH  17  18
ATOM     18  O5* UNL     1      10.193  -1.517  21.394  0.00  0.00    -0.392 OA
ATOM     19  H5* UNL     1      10.395  -1.672  20.454  0.00  0.00    +0.210 HD
ENDBRANCH  17  18
ENDBRANCH  13  17
ENDBRANCH   1  11
BRANCH   8  20
ATOM     20  C   UNL     1       7.835  -4.528  23.370  0.00  0.00    +0.022 C 
ATOM     21  C   UNL     1       6.880  -4.362  22.444  0.00  0.00    +0.052 C 
ATOM     22 BR   UNL     1       6.443  -5.642  21.173  0.00  0.00    -0.059 Br
ENDBRANCH   8  20
TORSDOF 5
ENDMDL
MODEL 5
REMARK VINA RESULT:      -5.8      2.550      3.407
REMARK  Name = 
REMARK  5 active torsions:
REMARK  status: ('A' for Active; 'I' for Inactive)
REMARK    1  A    between atoms: C3*_2  and  O3*_19
REMARK    2  A    between atoms: C4*_3  and  C5*_17
REMARK    3  A    between atoms: C1*_5  and  N_6
REMARK    4  A    between atoms: C_8  and  C_14
REMARK    5  A    between atoms: C5*_17  and  O5*_18
REMARK                            x       y       z     vdW  Elec       q    Type
REMARK                         _______ _______ _______ _____ _____    ______ ____
ROOT
ATOM      1  N   UNL     1       6.633  -5.310  25.624  0.00  0.00    -0.273 N 
ATOM      2  C   UNL     1       7.311  -5.383  26.831  0.00  0.00    +0.331 A 
ATOM      3  O   UNL     1       8.338  -4.755  27.080  0.00  0.00    -0.246 OA
ATOM      4  N   UNL     1       6.736  -6.177  27.785  0.00  0.00    -0.274 N 
ATOM      5  H   UNL     1       7.182  -6.180  28.688  0.00  0.00    +0.173 HD
ATOM      6  C   UNL     1       5.469  -6.689  27.732  0.00  0.00    +0.261 A 
ATOM      7  O   UNL     1       4.922  -7.148  28.728  0.00  0.00    -0.267 OA
ATOM      8  C   UNL     1       4.791  -6.635  26.403  0.00  0.00    +0.056 A 
ATOM      9  C   UNL     1       5.423  -5.953  25.439  0.00  0.00    +0.106 A 
ENDROOT
BRANCH   1  11
ATOM     10  C2* UNL     1       6.035  -3.682  23.845  0.00  0.00    +0.088 C 
ATOM     11  C1* UNL     1       7.149  -4.376  24.625  0.00  0.00    +0.226 C 
ATOM     12  O4* UNL     1       7.994  -5.047  23.669  0.00  0.00    -0.348 OA
ATOM     13  C4* UNL     1       7.496  -4.788  22.336  0.00  0.00    +0.175 C 
ATOM     14  C3* UNL     1       6.623  -3.548  22.460  0.00  0.00    +0.150 C 
BRANCH  14  15
ATOM     15  O3* UNL     1       7.412  -2.359  22.388  0.00  0.00    -0.389 OA
ATOM     16  H3* UNL     1       7.390  -2.018  21.475  0.00  0.00    +0.210 HD
ENDBRANCH  14  15
BRANCH  13  17
ATOM     17  C5* UNL     1       6.706  -6.002  21.820  0.00  0.00    +0.190 C 
BRANCH  17  18
ATOM     18  O5* UNL     1       5.875  -5.655  20.713  0.00  0.00    -0.392 OA
ATOM     19  H5* UNL     1       5.435  -4.811  20.921  0.00  0.00    +0.210 HD
ENDBRANCH  17  18
ENDBRANCH  13  17
ENDBRANCH   1  11
BRANCH   8  20
ATOM     20  C   UNL     1       3.448  -7.175  26.258  0.00  0.00    +0.022 C 
ATOM     21  C   UNL     1       2.922  -7.689  25.137  0.00  0.00    +0.052 C 
ATOM     22 BR   UNL     1       1.178  -8.313  25.010  0.00  0.00    -0.059 Br
ENDBRANCH   8  20
TORSDOF 5
ENDMDL
MODEL 6
REMARK VINA RESULT:      -5.8      3.298      5.174
REMARK  Name = 
REMARK  5 active torsions:
REMARK  status: ('A' for Active; 'I' for Inactive)
REMARK    1  A    between atoms: C3*_2  and  O3*_19
REMARK    2  A    between atoms: C4*_3  and  C5*_17
REMARK    3  A    between atoms: C1*_5  and  N_6
REMARK    4  A    between atoms: C_8  and  C_14
REMARK    5  A    between atoms: C5*_17  and  O5*_18
REMARK                            x       y       z     vdW  Elec       q    Type
REMARK                         _______ _______ _______ _____ _____    ______ ____
ROOT
ATOM      1  N   UNL     1       8.104  -3.128  23.620  0.00  0.00    -0.273 N 
ATOM      2  C   UNL     1       9.373  -3.088  24.177  0.00  0.00    +0.331 A 
ATOM      3  O   UNL     1      10.023  -4.086  24.478  0.00  0.00    -0.246 OA
ATOM      4  N   UNL     1       9.908  -1.839  24.338  0.00  0.00    -0.274 N 
ATOM      5  H   UNL     1      10.857  -1.802  24.675  0.00  0.00    +0.173 HD
ATOM      6  C   UNL     1       9.415  -0.688  23.788  0.00  0.00    +0.261 A 
ATOM      7  O   UNL     1      10.087   0.336  23.735  0.00  0.00    -0.267 OA
ATOM      8  C   UNL     1       8.027  -0.760  23.242  0.00  0.00    +0.056 A 
ATOM      9  C   UNL     1       7.466  -1.976  23.200  0.00  0.00    +0.106 A 
ENDROOT
BRANCH   1  11
ATOM     10  C2* UNL     1       6.843  -4.488  21.966  0.00  0.00    +0.088 C 
ATOM     11  C1* UNL     1       7.551  -4.447  23.319  0.00  0.00    +0.226 C 
ATOM     12  O4* UNL     1       6.595  -4.853  24.319  0.00  0.00    -0.348 OA
ATOM     13  C4* UNL     1       5.344  -5.178  23.671  0.00  0.00    +0.175 C 
ATOM     14  C3* UNL     1       5.693  -5.435  22.213  0.00  0.00    +0.150 C 
BRANCH  14  15
ATOM     15  O3* UNL     1       6.133  -6.781  22.021  0.00  0.00    -0.389 OA
ATOM     16  H3* UNL     1       7.107  -6.802  22.035  0.00  0.00    +0.210 HD
ENDBRANCH  14  15
BRANCH  13  17
ATOM     17  C5* UNL     1       4.347  -4.019  23.832  0.00  0.00    +0.190 C 
BRANCH  17  18
ATOM     18  O5* UNL     1       4.676  -3.196  24.951  0.00  0.00    -0.392 OA
ATOM     19  H5* UNL     1       4.102  -2.410  24.924  0.00  0.00    +0.210 HD
ENDBRANCH  17  18
ENDBRANCH  13  17
ENDBRANCH   1  11
BRANCH   8  20
ATOM     20  C   UNL     1       7.422   0.426  22.656  0.00  0.00    +0.022 C 
ATOM     21  C   UNL     1       6.790   1.400  23.324  0.00  0.00    +0.052 C 
ATOM     22 BR   UNL     1       5.993   2.862  22.503  0.00  0.00    -0.059 Br
ENDBRANCH   8  20
TORSDOF 5
ENDMDL
MODEL 7
REMARK VINA RESULT:      -5.6      3.710      4.718
REMARK  Name = 
REMARK  5 active torsions:
REMARK  status: ('A' for Active; 'I' for Inactive)
REMARK    1  A    between atoms: C3*_2  and  O3*_19
REMARK    2  A    between atoms: C4*_3  and  C5*_17
REMARK    3  A    between atoms: C1*_5  and  N_6
REMARK    4  A    between atoms: C_8  and  C_14
REMARK    5  A    between atoms: C5*_17  and  O5*_18
REMARK                            x       y       z     vdW  Elec       q    Type
REMARK                         _______ _______ _______ _____ _____    ______ ____
ROOT
ATOM      1  N   UNL     1       7.124  -0.245  24.230  0.00  0.00    -0.273 N 
ATOM      2  C   UNL     1       6.227   0.248  25.165  0.00  0.00    +0.331 A 
ATOM      3  O   UNL     1       6.214   1.413  25.556  0.00  0.00    -0.246 OA
ATOM      4  N   UNL     1       5.291  -0.643  25.614  0.00  0.00    -0.274 N 
ATOM      5  H   UNL     1       4.591  -0.275  26.239  0.00  0.00    +0.173 HD
ATOM      6  C   UNL     1       5.024  -1.862  25.054  0.00  0.00    +0.261 A 
ATOM      7  O   UNL     1       3.998  -2.479  25.323  0.00  0.00    -0.267 OA
ATOM      8  C   UNL     1       6.037  -2.380  24.088  0.00  0.00    +0.056 A 
ATOM      9  C   UNL     1       7.020  -1.537  23.747  0.00  0.00    +0.106 A 
ENDROOT
BRANCH   1  11
ATOM     10  C2* UNL     1       8.069   0.642  22.111  0.00  0.00    +0.088 C 
ATOM     11  C1* UNL     1       8.059   0.707  23.637  0.00  0.00    +0.226 C 
ATOM     12  O4* UNL     1       9.407   0.468  24.089  0.00  0.00    -0.348 OA
ATOM     13  C4* UNL     1      10.266   0.289  22.939  0.00  0.00    +0.175 C 
ATOM     14  C3* UNL     1       9.516   0.910  21.769  0.00  0.00    +0.150 C 
BRANCH  14  15
ATOM     15  O3* UNL     1       9.740   2.320  21.708  0.00  0.00    -0.389 OA
ATOM     16  H3* UNL     1      10.102   2.546  20.832  0.00  0.00    +0.210 HD
ENDBRANCH  14  15
BRANCH  13  17
ATOM     17  C5* UNL     1      10.550  -1.205  22.716  0.00  0.00    +0.190 C 
BRANCH  17  18
ATOM     18  O5* UNL     1      10.180  -1.620  21.402  0.00  0.00    -0.392 OA
ATOM     19  H5* UNL     1       9.478  -2.289  21.485  0.00  0.00    +0.210 HD
ENDBRANCH  17  18
ENDBRANCH  13  17
ENDBRANCH   1  11
BRANCH   8  20
ATOM     20  C   UNL     1       5.836  -3.677  23.462  0.00  0.00    +0.022 C 
ATOM     21  C   UNL     1       6.435  -4.115  22.346  0.00  0.00    +0.052 C 
ATOM     22 BR   UNL     1       6.091  -5.767  21.572  0.00  0.00    -0.059 Br
ENDBRANCH   8  20
TORSDOF 5
ENDMDL
MODEL 8
REMARK VINA RESULT:      -5.4      3.007      5.362
REMARK  Name = 
REMARK  5 active torsions:
REMARK  status: ('A' for Active; 'I' for Inactive)
REMARK    1  A    between atoms: C3*_2  and  O3*_19
REMARK    2  A    between atoms: C4*_3  and  C5*_17
REMARK    3  A    between atoms: C1*_5  and  N_6
REMARK    4  A    between atoms: C_8  and  C_14
REMARK    5  A    between atoms: C5*_17  and  O5*_18
REMARK                            x       y       z     vdW  Elec       q    Type
REMARK                         _______ _______ _______ _____ _____    ______ ____
ROOT
ATOM      1  N   UNL     1       7.616  -4.287  24.246  0.00  0.00    -0.273 N 
ATOM      2  C   UNL     1       8.959  -4.492  24.518  0.00  0.00    +0.331 A 
ATOM      3  O   UNL     1       9.437  -5.577  24.841  0.00  0.00    -0.246 OA
ATOM      4  N   UNL     1       9.768  -3.400  24.357  0.00  0.00    -0.274 N 
ATOM      5  H   UNL     1      10.755  -3.555  24.482  0.00  0.00    +0.173 HD
ATOM      6  C   UNL     1       9.412  -2.234  23.737  0.00  0.00    +0.261 A 
ATOM      7  O   UNL     1      10.252  -1.417  23.378  0.00  0.00    -0.267 OA
ATOM      8  C   UNL     1       7.951  -2.030  23.504  0.00  0.00    +0.056 A 
ATOM      9  C   UNL     1       7.153  -3.070  23.781  0.00  0.00    +0.106 A 
ENDROOT
BRANCH   1  11
ATOM     10  C2* UNL     1       5.599  -5.369  23.279  0.00  0.00    +0.088 C 
ATOM     11  C1* UNL     1       6.742  -5.458  24.288  0.00  0.00    +0.226 C 
ATOM     12  O4* UNL     1       6.154  -5.626  25.593  0.00  0.00    -0.348 OA
ATOM     13  C4* UNL     1       4.715  -5.681  25.459  0.00  0.00    +0.175 C 
ATOM     14  C3* UNL     1       4.454  -6.036  24.003  0.00  0.00    +0.150 C 
BRANCH  14  15
ATOM     15  O3* UNL     1       4.519  -7.449  23.802  0.00  0.00    -0.389 OA
ATOM     16  H3* UNL     1       5.411  -7.684  23.487  0.00  0.00    +0.210 HD
ENDBRANCH  14  15
BRANCH  13  17
ATOM     17  C5* UNL     1       4.094  -4.328  25.845  0.00  0.00    +0.190 C 
BRANCH  17  18
ATOM     18  O5* UNL     1       3.005  -4.490  26.752  0.00  0.00    -0.392 OA
ATOM     19  H5* UNL     1       2.516  -5.291  26.493  0.00  0.00    +0.210 HD
ENDBRANCH  17  18
ENDBRANCH  13  17
ENDBRANCH   1  11
BRANCH   8  20
ATOM     20  C   UNL     1       7.488  -0.808  22.866  0.00  0.00    +0.022 C 
ATOM     21  C   UNL     1       7.299   0.374  23.469  0.00  0.00    +0.052 C 
ATOM     22 BR   UNL     1       6.653   1.882  22.600  0.00  0.00    -0.059 Br
ENDBRANCH   8  20
TORSDOF 5
ENDMDL
MODEL 9
REMARK VINA RESULT:      -5.4      3.461      5.770
REMARK  Name = 
REMARK  5 active torsions:
REMARK  status: ('A' for Active; 'I' for Inactive)
REMARK    1  A    between atoms: C3*_2  and  O3*_19
REMARK    2  A    between atoms: C4*_3  and  C5*_17
REMARK    3  A    between atoms: C1*_5  and  N_6
REMARK    4  A    between atoms: C_8  and  C_14
REMARK    5  A    between atoms: C5*_17  and  O5*_18
REMARK                            x       y       z     vdW  Elec       q    Type
REMARK                         _______ _______ _______ _____ _____    ______ ____
ROOT
ATOM      1  N   UNL     1       8.625  -1.180  23.326  0.00  0.00    -0.273 N 
ATOM      2  C   UNL     1       9.934  -1.106  22.876  0.00  0.00    +0.331 A 
ATOM      3  O   UNL     1      10.429  -1.896  22.075  0.00  0.00    -0.246 OA
ATOM      4  N   UNL     1      10.661  -0.046  23.343  0.00  0.00    -0.274 N 
ATOM      5  H   UNL     1      11.590   0.057  22.966  0.00  0.00    +0.173 HD
ATOM      6  C   UNL     1      10.149   1.041  23.997  0.00  0.00    +0.261 A 
ATOM      7  O   UNL     1      10.800   2.071  24.134  0.00  0.00    -0.267 OA
ATOM      8  C   UNL     1       8.753   0.905  24.508  0.00  0.00    +0.056 A 
ATOM      9  C   UNL     1       8.089  -0.200  24.142  0.00  0.00    +0.106 A 
ENDROOT
BRANCH   1  11
ATOM     10  C2* UNL     1       6.294  -1.885  22.832  0.00  0.00    +0.088 C 
ATOM     11  C1* UNL     1       7.781  -2.226  22.754  0.00  0.00    +0.226 C 
ATOM     12  O4* UNL     1       7.972  -3.482  23.435  0.00  0.00    -0.348 OA
ATOM     13  C4* UNL     1       6.691  -3.964  23.905  0.00  0.00    +0.175 C 
ATOM     14  C3* UNL     1       5.649  -3.228  23.076  0.00  0.00    +0.150 C 
BRANCH  14  15
ATOM     15  O3* UNL     1       5.431  -3.887  21.827  0.00  0.00    -0.389 OA
ATOM     16  H3* UNL     1       5.802  -4.787  21.873  0.00  0.00    +0.210 HD
ENDBRANCH  14  15
BRANCH  13  17
ATOM     17  C5* UNL     1       6.539  -3.683  25.409  0.00  0.00    +0.190 C 
BRANCH  17  18
ATOM     18  O5* UNL     1       7.805  -3.489  26.037  0.00  0.00    -0.392 OA
ATOM     19  H5* UNL     1       8.405  -3.085  25.386  0.00  0.00    +0.210 HD
ENDBRANCH  17  18
ENDBRANCH  13  17
ENDBRANCH   1  11
BRANCH   8  20
ATOM     20  C   UNL     1       8.141   2.009  25.231  0.00  0.00    +0.022 C 
ATOM     21  C   UNL     1       7.399   2.987  24.694  0.00  0.00    +0.052 C 
ATOM     22 BR   UNL     1       6.691   4.398  25.671  0.00  0.00    -0.059 Br
ENDBRANCH   8  20
TORSDOF 5
ENDMDL
