MODEL 1
REMARK VINA RESULT:      -6.2      0.000      0.000
REMARK  Name = 
REMARK  7 active torsions:
REMARK  status: ('A' for Active; 'I' for Inactive)
REMARK    1  A    between atoms: C_1  and  C_2
REMARK    2  A    between atoms: C_4  and  C_25
REMARK    3  A    between atoms: C_6  and  C_24
REMARK    4  A    between atoms: C_7  and  N_8
REMARK    5  A    between atoms: N_15  and  C_16
REMARK    6  A    between atoms: C_19  and  C_22
REMARK    7  A    between atoms: C_26  and  C_27
REMARK                            x       y       z     vdW  Elec       q    Type
REMARK                         _______ _______ _______ _____ _____    ______ ____
ROOT
ATOM      1  N   UNL     1       8.574   4.659  23.868  0.00  0.00    -0.299 N 
ATOM      2  H   UNL     1       8.218   5.459  23.359  0.00  0.00    +0.154 HD
ATOM      3  C   UNL     1       8.104   4.711  25.201  0.00  0.00    +0.128 A 
ATOM      4  C   UNL     1       8.292   5.870  25.923  0.00  0.00    +0.063 A 
ATOM      5  C   UNL     1       7.833   5.866  27.220  0.00  0.00    +0.118 A 
ATOM      6  N   UNL     1       7.224   4.810  27.789  0.00  0.00    -0.223 NA
ATOM      7  C   UNL     1       7.080   3.718  27.026  0.00  0.00    +0.221 A 
ATOM      8  N   UNL     1       6.476   2.614  27.630  0.00  0.00    -0.284 N 
ATOM      9  H   UNL     1       6.224   2.841  28.581  0.00  0.00    +0.155 HD
ATOM     10  N   UNL     1       7.495   3.658  25.753  0.00  0.00    -0.199 NA
ENDROOT
BRANCH   1  13
ATOM     11  C   UNL     1       6.363   3.407  22.219  0.00  0.00    +0.046 C 
ATOM     12  C   UNL     1       7.778   2.901  22.304  0.00  0.00    -0.028 A 
ATOM     13  C   UNL     1       8.812   3.544  23.019  0.00  0.00    +0.038 A 
ATOM     14  C   UNL     1      10.116   2.981  22.949  0.00  0.00    -0.028 A 
ATOM     15  C   UNL     1      11.327   3.698  23.496  0.00  0.00    +0.046 C 
ATOM     16  C   UNL     1      10.324   1.723  22.332  0.00  0.00    +0.013 A 
ATOM     17  C   UNL     1       9.277   1.034  21.723  0.00  0.00    -0.024 A 
ATOM     18  C   UNL     1       8.026   1.653  21.696  0.00  0.00    +0.013 A 
BRANCH  17  19
ATOM     19  C   UNL     1       9.353  -0.334  21.178  0.00  0.00    +0.019 C 
ATOM     20  C   UNL     1       9.472  -1.516  21.798  0.00  0.00    +0.089 C 
BRANCH  20  21
ATOM     21  C   UNL     1       9.545  -1.722  23.198  0.00  0.00    +0.091 C 
ATOM     22  N   UNL     1       9.621  -1.859  24.349  0.00  0.00    -0.191 NA
ENDBRANCH  20  21
ENDBRANCH  17  19
ENDBRANCH   1  13
BRANCH   8  23
ATOM     23  C   UNL     1       6.385   1.273  27.229  0.00  0.00    +0.034 A 
ATOM     24  C   UNL     1       7.458   0.404  27.474  0.00  0.00    +0.024 A 
ATOM     25  C   UNL     1       7.429  -0.927  27.031  0.00  0.00    +0.020 A 
ATOM     26  C   UNL     1       6.317  -1.412  26.336  0.00  0.00    +0.052 A 
ATOM     27  C   UNL     1       5.226  -0.577  26.127  0.00  0.00    +0.020 A 
ATOM     28  C   UNL     1       5.262   0.740  26.583  0.00  0.00    +0.024 A 
BRANCH  26  29
ATOM     29  C   UNL     1       6.294  -2.748  25.823  0.00  0.00    +0.099 C 
ATOM     30  N   UNL     1       6.297  -3.835  25.418  0.00  0.00    -0.191 NA
ENDBRANCH  26  29
ENDBRANCH   8  23
TORSDOF 5
ENDMDL
MODEL 2
REMARK VINA RESULT:      -6.0      2.487      6.173
REMARK  Name = 
REMARK  7 active torsions:
REMARK  status: ('A' for Active; 'I' for Inactive)
REMARK    1  A    between atoms: C_1  and  C_2
REMARK    2  A    between atoms: C_4  and  C_25
REMARK    3  A    between atoms: C_6  and  C_24
REMARK    4  A    between atoms: C_7  and  N_8
REMARK    5  A    between atoms: N_15  and  C_16
REMARK    6  A    between atoms: C_19  and  C_22
REMARK    7  A    between atoms: C_26  and  C_27
REMARK                            x       y       z     vdW  Elec       q    Type
REMARK                         _______ _______ _______ _____ _____    ______ ____
ROOT
ATOM      1  N   UNL     1       8.149   1.450  25.074  0.00  0.00    -0.299 N 
ATOM      2  H   UNL     1       8.909   1.891  25.576  0.00  0.00    +0.154 HD
ATOM      3  C   UNL     1       8.640   0.924  23.858  0.00  0.00    +0.128 A 
ATOM      4  C   UNL     1       9.358   1.752  23.021  0.00  0.00    +0.063 A 
ATOM      5  C   UNL     1       9.800   1.199  21.842  0.00  0.00    +0.118 A 
ATOM      6  N   UNL     1       9.569  -0.078  21.487  0.00  0.00    -0.223 NA
ATOM      7  C   UNL     1       8.860  -0.820  22.349  0.00  0.00    +0.221 A 
ATOM      8  N   UNL     1       8.595  -2.136  21.963  0.00  0.00    -0.284 N 
ATOM      9  H   UNL     1       9.015  -2.318  21.064  0.00  0.00    +0.155 HD
ATOM     10  N   UNL     1       8.408  -0.348  23.519  0.00  0.00    -0.199 NA
ENDROOT
BRANCH   1  13
ATOM     11  C   UNL     1       8.688  -0.795  27.035  0.00  0.00    +0.046 C 
ATOM     12  C   UNL     1       7.353  -0.136  26.813  0.00  0.00    -0.028 A 
ATOM     13  C   UNL     1       7.140   0.960  25.948  0.00  0.00    +0.038 A 
ATOM     14  C   UNL     1       5.834   1.519  25.896  0.00  0.00    -0.028 A 
ATOM     15  C   UNL     1       5.546   2.813  25.174  0.00  0.00    +0.046 C 
ATOM     16  C   UNL     1       4.752   0.881  26.551  0.00  0.00    +0.013 A 
ATOM     17  C   UNL     1       4.945  -0.269  27.315  0.00  0.00    -0.024 A 
ATOM     18  C   UNL     1       6.252  -0.739  27.454  0.00  0.00    +0.013 A 
BRANCH  17  19
ATOM     19  C   UNL     1       3.877  -1.085  27.920  0.00  0.00    +0.019 C 
ATOM     20  C   UNL     1       3.174  -2.113  27.422  0.00  0.00    +0.089 C 
BRANCH  20  21
ATOM     21  C   UNL     1       3.321  -2.679  26.132  0.00  0.00    +0.091 C 
ATOM     22  N   UNL     1       3.427  -3.114  25.060  0.00  0.00    -0.191 NA
ENDBRANCH  20  21
ENDBRANCH  17  19
ENDBRANCH   1  13
BRANCH   8  23
ATOM     23  C   UNL     1       7.709  -3.092  22.480  0.00  0.00    +0.034 A 
ATOM     24  C   UNL     1       8.094  -3.868  23.583  0.00  0.00    +0.024 A 
ATOM     25  C   UNL     1       7.260  -4.877  24.087  0.00  0.00    +0.020 A 
ATOM     26  C   UNL     1       6.018  -5.123  23.494  0.00  0.00    +0.052 A 
ATOM     27  C   UNL     1       5.601  -4.331  22.431  0.00  0.00    +0.020 A 
ATOM     28  C   UNL     1       6.434  -3.323  21.947  0.00  0.00    +0.024 A 
BRANCH  26  29
ATOM     29  C   UNL     1       5.180  -6.187  23.955  0.00  0.00    +0.099 C 
ATOM     30  N   UNL     1       4.515  -7.066  24.319  0.00  0.00    -0.191 NA
ENDBRANCH  26  29
ENDBRANCH   8  23
TORSDOF 5
ENDMDL
MODEL 3
REMARK VINA RESULT:      -5.9      1.608      5.075
REMARK  Name = 
REMARK  7 active torsions:
REMARK  status: ('A' for Active; 'I' for Inactive)
REMARK    1  A    between atoms: C_1  and  C_2
REMARK    2  A    between atoms: C_4  and  C_25
REMARK    3  A    between atoms: C_6  and  C_24
REMARK    4  A    between atoms: C_7  and  N_8
REMARK    5  A    between atoms: N_15  and  C_16
REMARK    6  A    between atoms: C_19  and  C_22
REMARK    7  A    between atoms: C_26  and  C_27
REMARK                            x       y       z     vdW  Elec       q    Type
REMARK                         _______ _______ _______ _____ _____    ______ ____
ROOT
ATOM      1  N   UNL     1       6.592   4.941  25.874  0.00  0.00    -0.299 N 
ATOM      2  H   UNL     1       6.583   5.517  26.706  0.00  0.00    +0.154 HD
ATOM      3  C   UNL     1       7.660   5.345  25.041  0.00  0.00    +0.128 A 
ATOM      4  C   UNL     1       7.771   6.679  24.711  0.00  0.00    +0.063 A 
ATOM      5  C   UNL     1       8.817   7.021  23.885  0.00  0.00    +0.118 A 
ATOM      6  N   UNL     1       9.708   6.134  23.406  0.00  0.00    -0.223 NA
ATOM      7  C   UNL     1       9.532   4.856  23.768  0.00  0.00    +0.221 A 
ATOM      8  N   UNL     1      10.439   3.932  23.244  0.00  0.00    -0.284 N 
ATOM      9  H   UNL     1      11.115   4.410  22.666  0.00  0.00    +0.155 HD
ATOM     10  N   UNL     1       8.541   4.455  24.577  0.00  0.00    -0.199 NA
ENDROOT
BRANCH   1  13
ATOM     11  C   UNL     1       6.832   3.569  28.563  0.00  0.00    +0.046 C 
ATOM     12  C   UNL     1       6.216   2.964  27.330  0.00  0.00    -0.028 A 
ATOM     13  C   UNL     1       6.046   3.649  26.108  0.00  0.00    +0.038 A 
ATOM     14  C   UNL     1       5.384   2.965  25.051  0.00  0.00    -0.028 A 
ATOM     15  C   UNL     1       4.963   3.668  23.783  0.00  0.00    +0.046 C 
ATOM     16  C   UNL     1       5.072   1.588  25.170  0.00  0.00    +0.013 A 
ATOM     17  C   UNL     1       5.344   0.883  26.341  0.00  0.00    -0.024 A 
ATOM     18  C   UNL     1       5.886   1.595  27.412  0.00  0.00    +0.013 A 
BRANCH  17  19
ATOM     19  C   UNL     1       5.189  -0.572  26.520  0.00  0.00    +0.019 C 
ATOM     20  C   UNL     1       6.107  -1.541  26.636  0.00  0.00    +0.089 C 
BRANCH  20  21
ATOM     21  C   UNL     1       7.513  -1.366  26.620  0.00  0.00    +0.091 C 
ATOM     22  N   UNL     1       8.668  -1.241  26.637  0.00  0.00    -0.191 NA
ENDBRANCH  20  21
ENDBRANCH  17  19
ENDBRANCH   1  13
BRANCH   8  23
ATOM     23  C   UNL     1      10.418   2.531  23.209  0.00  0.00    +0.034 A 
ATOM     24  C   UNL     1       9.945   1.874  22.064  0.00  0.00    +0.024 A 
ATOM     25  C   UNL     1       9.850   0.475  22.018  0.00  0.00    +0.020 A 
ATOM     26  C   UNL     1      10.234  -0.293  23.121  0.00  0.00    +0.052 A 
ATOM     27  C   UNL     1      10.750   0.340  24.246  0.00  0.00    +0.020 A 
ATOM     28  C   UNL     1      10.851   1.731  24.275  0.00  0.00    +0.024 A 
BRANCH  26  29
ATOM     29  C   UNL     1      10.087  -1.716  23.115  0.00  0.00    +0.099 C 
ATOM     30  N   UNL     1       9.966  -2.870  23.134  0.00  0.00    -0.191 NA
ENDBRANCH  26  29
ENDBRANCH   8  23
TORSDOF 5
ENDMDL
MODEL 4
REMARK VINA RESULT:      -5.7      2.925      6.796
REMARK  Name = 
REMARK  7 active torsions:
REMARK  status: ('A' for Active; 'I' for Inactive)
REMARK    1  A    between atoms: C_1  and  C_2
REMARK    2  A    between atoms: C_4  and  C_25
REMARK    3  A    between atoms: C_6  and  C_24
REMARK    4  A    between atoms: C_7  and  N_8
REMARK    5  A    between atoms: N_15  and  C_16
REMARK    6  A    between atoms: C_19  and  C_22
REMARK    7  A    between atoms: C_26  and  C_27
REMARK                            x       y       z     vdW  Elec       q    Type
REMARK                         _______ _______ _______ _____ _____    ______ ____
ROOT
ATOM      1  N   UNL     1       8.174  -3.178  22.812  0.00  0.00    -0.299 N 
ATOM      2  H   UNL     1       8.013  -3.529  21.877  0.00  0.00    +0.154 HD
ATOM      3  C   UNL     1       8.561  -1.820  22.740  0.00  0.00    +0.128 A 
ATOM      4  C   UNL     1       9.602  -1.474  21.905  0.00  0.00    +0.063 A 
ATOM      5  C   UNL     1       9.952  -0.144  21.881  0.00  0.00    +0.118 A 
ATOM      6  N   UNL     1       9.335   0.801  22.613  0.00  0.00    -0.223 NA
ATOM      7  C   UNL     1       8.335   0.388  23.403  0.00  0.00    +0.221 A 
ATOM      8  N   UNL     1       7.717   1.365  24.186  0.00  0.00    -0.284 N 
ATOM      9  H   UNL     1       8.139   2.264  24.003  0.00  0.00    +0.155 HD
ATOM     10  N   UNL     1       7.936  -0.891  23.468  0.00  0.00    -0.199 NA
ENDROOT
BRANCH   1  13
ATOM     11  C   UNL     1       9.425  -4.455  25.257  0.00  0.00    +0.046 C 
ATOM     12  C   UNL     1       7.968  -4.527  24.888  0.00  0.00    -0.028 A 
ATOM     13  C   UNL     1       7.392  -3.861  23.785  0.00  0.00    +0.038 A 
ATOM     14  C   UNL     1       5.985  -3.969  23.604  0.00  0.00    -0.028 A 
ATOM     15  C   UNL     1       5.243  -3.133  22.591  0.00  0.00    +0.046 C 
ATOM     16  C   UNL     1       5.226  -4.861  24.400  0.00  0.00    +0.013 A 
ATOM     17  C   UNL     1       5.817  -5.605  25.420  0.00  0.00    -0.024 A 
ATOM     18  C   UNL     1       7.177  -5.400  25.662  0.00  0.00    +0.013 A 
BRANCH  17  19
ATOM     19  C   UNL     1       5.152  -6.656  26.210  0.00  0.00    +0.019 C 
ATOM     20  C   UNL     1       5.004  -6.792  27.535  0.00  0.00    +0.089 C 
BRANCH  20  21
ATOM     21  C   UNL     1       5.476  -5.895  28.525  0.00  0.00    +0.091 C 
ATOM     22  N   UNL     1       5.897  -5.175  29.334  0.00  0.00    -0.191 NA
ENDBRANCH  20  21
ENDBRANCH  17  19
ENDBRANCH   1  13
BRANCH   8  23
ATOM     23  C   UNL     1       6.833   1.262  25.269  0.00  0.00    +0.034 A 
ATOM     24  C   UNL     1       7.344   1.148  26.571  0.00  0.00    +0.024 A 
ATOM     25  C   UNL     1       6.491   0.979  27.672  0.00  0.00    +0.020 A 
ATOM     26  C   UNL     1       5.106   0.927  27.487  0.00  0.00    +0.052 A 
ATOM     27  C   UNL     1       4.582   1.087  26.210  0.00  0.00    +0.020 A 
ATOM     28  C   UNL     1       5.439   1.266  25.125  0.00  0.00    +0.024 A 
BRANCH  26  29
ATOM     29  C   UNL     1       4.224   0.695  28.590  0.00  0.00    +0.099 C 
ATOM     30  N   UNL     1       3.509   0.530  29.489  0.00  0.00    -0.191 NA
ENDBRANCH  26  29
ENDBRANCH   8  23
TORSDOF 5
ENDMDL
MODEL 5
REMARK VINA RESULT:      -5.7      3.013      6.644
REMARK  Name = 
REMARK  7 active torsions:
REMARK  status: ('A' for Active; 'I' for Inactive)
REMARK    1  A    between atoms: C_1  and  C_2
REMARK    2  A    between atoms: C_4  and  C_25
REMARK    3  A    between atoms: C_6  and  C_24
REMARK    4  A    between atoms: C_7  and  N_8
REMARK    5  A    between atoms: N_15  and  C_16
REMARK    6  A    between atoms: C_19  and  C_22
REMARK    7  A    between atoms: C_26  and  C_27
REMARK                            x       y       z     vdW  Elec       q    Type
REMARK                         _______ _______ _______ _____ _____    ______ ____
ROOT
ATOM      1  N   UNL     1       8.608  -3.078  23.412  0.00  0.00    -0.299 N 
ATOM      2  H   UNL     1       8.611  -3.267  22.417  0.00  0.00    +0.154 HD
ATOM      3  C   UNL     1       8.998  -1.736  23.630  0.00  0.00    +0.128 A 
ATOM      4  C   UNL     1      10.166  -1.285  23.052  0.00  0.00    +0.063 A 
ATOM      5  C   UNL     1      10.512   0.021  23.307  0.00  0.00    +0.118 A 
ATOM      6  N   UNL     1       9.775   0.850  24.069  0.00  0.00    -0.223 NA
ATOM      7  C   UNL     1       8.656   0.339  24.600  0.00  0.00    +0.221 A 
ATOM      8  N   UNL     1       7.910   1.192  25.416  0.00  0.00    -0.284 N 
ATOM      9  H   UNL     1       8.355   2.097  25.458  0.00  0.00    +0.155 HD
ATOM     10  N   UNL     1       8.256  -0.922  24.385  0.00  0.00    -0.199 NA
ENDROOT
BRANCH   1  13
ATOM     11  C   UNL     1       5.657  -3.063  22.733  0.00  0.00    +0.046 C 
ATOM     12  C   UNL     1       6.286  -3.837  23.860  0.00  0.00    -0.028 A 
ATOM     13  C   UNL     1       7.674  -3.889  24.112  0.00  0.00    +0.038 A 
ATOM     14  C   UNL     1       8.125  -4.721  25.174  0.00  0.00    -0.028 A 
ATOM     15  C   UNL     1       9.589  -5.015  25.394  0.00  0.00    +0.046 C 
ATOM     16  C   UNL     1       7.196  -5.327  26.055  0.00  0.00    +0.013 A 
ATOM     17  C   UNL     1       5.822  -5.182  25.871  0.00  0.00    -0.024 A 
ATOM     18  C   UNL     1       5.394  -4.461  24.756  0.00  0.00    +0.013 A 
BRANCH  17  19
ATOM     19  C   UNL     1       4.779  -5.651  26.801  0.00  0.00    +0.019 C 
ATOM     20  C   UNL     1       3.830  -6.586  26.650  0.00  0.00    +0.089 C 
BRANCH  20  21
ATOM     21  C   UNL     1       3.615  -7.380  25.497  0.00  0.00    +0.091 C 
ATOM     22  N   UNL     1       3.427  -8.003  24.534  0.00  0.00    -0.191 NA
ENDBRANCH  20  21
ENDBRANCH  17  19
ENDBRANCH   1  13
BRANCH   8  23
ATOM     23  C   UNL     1       6.855   0.937  26.303  0.00  0.00    +0.034 A 
ATOM     24  C   UNL     1       5.545   0.845  25.811  0.00  0.00    +0.024 A 
ATOM     25  C   UNL     1       4.457   0.654  26.676  0.00  0.00    +0.020 A 
ATOM     26  C   UNL     1       4.665   0.547  28.055  0.00  0.00    +0.052 A 
ATOM     27  C   UNL     1       5.962   0.588  28.553  0.00  0.00    +0.020 A 
ATOM     28  C   UNL     1       7.036   0.766  27.682  0.00  0.00    +0.024 A 
BRANCH  26  29
ATOM     29  C   UNL     1       3.564   0.414  28.958  0.00  0.00    +0.099 C 
ATOM     30  N   UNL     1       2.655   0.306  29.672  0.00  0.00    -0.191 NA
ENDBRANCH  26  29
ENDBRANCH   8  23
TORSDOF 5
ENDMDL
MODEL 6
REMARK VINA RESULT:      -5.6      2.141      6.612
REMARK  Name = 
REMARK  7 active torsions:
REMARK  status: ('A' for Active; 'I' for Inactive)
REMARK    1  A    between atoms: C_1  and  C_2
REMARK    2  A    between atoms: C_4  and  C_25
REMARK    3  A    between atoms: C_6  and  C_24
REMARK    4  A    between atoms: C_7  and  N_8
REMARK    5  A    between atoms: N_15  and  C_16
REMARK    6  A    between atoms: C_19  and  C_22
REMARK    7  A    between atoms: C_26  and  C_27
REMARK                            x       y       z     vdW  Elec       q    Type
REMARK                         _______ _______ _______ _____ _____    ______ ____
ROOT
ATOM      1  N   UNL     1       6.828  -4.794  24.547  0.00  0.00    -0.299 N 
ATOM      2  H   UNL     1       7.274  -5.656  24.837  0.00  0.00    +0.154 HD
ATOM      3  C   UNL     1       5.811  -4.464  25.472  0.00  0.00    +0.128 A 
ATOM      4  C   UNL     1       4.867  -5.419  25.785  0.00  0.00    +0.063 A 
ATOM      5  C   UNL     1       3.888  -5.046  26.676  0.00  0.00    +0.118 A 
ATOM      6  N   UNL     1       3.822  -3.826  27.240  0.00  0.00    -0.223 NA
ATOM      7  C   UNL     1       4.772  -2.950  26.884  0.00  0.00    +0.221 A 
ATOM      8  N   UNL     1       4.683  -1.675  27.446  0.00  0.00    -0.284 N 
ATOM      9  H   UNL     1       3.888  -1.632  28.067  0.00  0.00    +0.155 HD
ATOM     10  N   UNL     1       5.760  -3.251  26.029  0.00  0.00    -0.199 NA
ENDROOT
BRANCH   1  13
ATOM     11  C   UNL     1       9.701  -4.349  25.397  0.00  0.00    +0.046 C 
ATOM     12  C   UNL     1       9.024  -3.677  24.233  0.00  0.00    -0.028 A 
ATOM     13  C   UNL     1       7.707  -3.956  23.808  0.00  0.00    +0.038 A 
ATOM     14  C   UNL     1       7.228  -3.288  22.647  0.00  0.00    -0.028 A 
ATOM     15  C   UNL     1       5.924  -3.665  21.988  0.00  0.00    +0.046 C 
ATOM     16  C   UNL     1       7.987  -2.249  22.052  0.00  0.00    +0.013 A 
ATOM     17  C   UNL     1       9.243  -1.897  22.543  0.00  0.00    -0.024 A 
ATOM     18  C   UNL     1       9.750  -2.641  23.610  0.00  0.00    +0.013 A 
BRANCH  17  19
ATOM     19  C   UNL     1      10.049  -0.750  22.089  0.00  0.00    +0.019 C 
ATOM     20  C   UNL     1       9.713   0.534  21.900  0.00  0.00    +0.089 C 
BRANCH  20  21
ATOM     21  C   UNL     1       8.435   1.104  22.118  0.00  0.00    +0.091 C 
ATOM     22  N   UNL     1       7.396   1.581  22.330  0.00  0.00    -0.191 NA
ENDBRANCH  20  21
ENDBRANCH  17  19
ENDBRANCH   1  13
BRANCH   8  23
ATOM     23  C   UNL     1       5.334  -0.475  27.128  0.00  0.00    +0.034 A 
ATOM     24  C   UNL     1       5.028   0.181  25.926  0.00  0.00    +0.024 A 
ATOM     25  C   UNL     1       5.705   1.349  25.545  0.00  0.00    +0.020 A 
ATOM     26  C   UNL     1       6.701   1.885  26.368  0.00  0.00    +0.052 A 
ATOM     27  C   UNL     1       6.982   1.274  27.584  0.00  0.00    +0.020 A 
ATOM     28  C   UNL     1       6.294   0.120  27.957  0.00  0.00    +0.024 A 
BRANCH  26  29
ATOM     29  C   UNL     1       7.443   3.041  25.967  0.00  0.00    +0.099 C 
ATOM     30  N   UNL     1       8.049   3.968  25.621  0.00  0.00    -0.191 NA
ENDBRANCH  26  29
ENDBRANCH   8  23
TORSDOF 5
ENDMDL
MODEL 7
REMARK VINA RESULT:      -5.6      1.724      7.482
REMARK  Name = 
REMARK  7 active torsions:
REMARK  status: ('A' for Active; 'I' for Inactive)
REMARK    1  A    between atoms: C_1  and  C_2
REMARK    2  A    between atoms: C_4  and  C_25
REMARK    3  A    between atoms: C_6  and  C_24
REMARK    4  A    between atoms: C_7  and  N_8
REMARK    5  A    between atoms: N_15  and  C_16
REMARK    6  A    between atoms: C_19  and  C_22
REMARK    7  A    between atoms: C_26  and  C_27
REMARK                            x       y       z     vdW  Elec       q    Type
REMARK                         _______ _______ _______ _____ _____    ______ ____
ROOT
ATOM      1  N   UNL     1       5.836  -2.895  25.685  0.00  0.00    -0.299 N 
ATOM      2  H   UNL     1       4.852  -3.129  25.636  0.00  0.00    +0.154 HD
ATOM      3  C   UNL     1       6.477  -3.338  24.506  0.00  0.00    +0.128 A 
ATOM      4  C   UNL     1       6.308  -4.649  24.113  0.00  0.00    +0.063 A 
ATOM      5  C   UNL     1       6.965  -5.037  22.969  0.00  0.00    +0.118 A 
ATOM      6  N   UNL     1       7.738  -4.212  22.240  0.00  0.00    -0.223 NA
ATOM      7  C   UNL     1       7.858  -2.954  22.685  0.00  0.00    +0.221 A 
ATOM      8  N   UNL     1       8.686  -2.109  21.944  0.00  0.00    -0.284 N 
ATOM      9  H   UNL     1       9.060  -2.609  21.151  0.00  0.00    +0.155 HD
ATOM     10  N   UNL     1       7.238  -2.507  23.787  0.00  0.00    -0.199 NA
ENDROOT
BRANCH   1  13
ATOM     11  C   UNL     1       3.571  -1.220  26.795  0.00  0.00    +0.046 C 
ATOM     12  C   UNL     1       5.036  -0.912  26.948  0.00  0.00    -0.028 A 
ATOM     13  C   UNL     1       6.077  -1.746  26.487  0.00  0.00    +0.038 A 
ATOM     14  C   UNL     1       7.415  -1.353  26.766  0.00  0.00    -0.028 A 
ATOM     15  C   UNL     1       8.587  -2.269  26.509  0.00  0.00    +0.046 C 
ATOM     16  C   UNL     1       7.689  -0.081  27.326  0.00  0.00    +0.013 A 
ATOM     17  C   UNL     1       6.660   0.791  27.678  0.00  0.00    -0.024 A 
ATOM     18  C   UNL     1       5.349   0.345  27.507  0.00  0.00    +0.013 A 
BRANCH  17  19
ATOM     19  C   UNL     1       6.835   2.182  28.135  0.00  0.00    +0.019 C 
ATOM     20  C   UNL     1       7.112   3.299  27.448  0.00  0.00    +0.089 C 
BRANCH  20  21
ATOM     21  C   UNL     1       7.299   3.394  26.047  0.00  0.00    +0.091 C 
ATOM     22  N   UNL     1       7.447   3.437  24.895  0.00  0.00    -0.191 NA
ENDBRANCH  20  21
ENDBRANCH  17  19
ENDBRANCH   1  13
BRANCH   8  23
ATOM     23  C   UNL     1       9.222  -0.847  22.237  0.00  0.00    +0.034 A 
ATOM     24  C   UNL     1      10.005  -0.677  23.388  0.00  0.00    +0.024 A 
ATOM     25  C   UNL     1      10.503   0.585  23.746  0.00  0.00    +0.020 A 
ATOM     26  C   UNL     1      10.230   1.701  22.950  0.00  0.00    +0.052 A 
ATOM     27  C   UNL     1       9.496   1.541  21.781  0.00  0.00    +0.020 A 
ATOM     28  C   UNL     1       9.016   0.280  21.429  0.00  0.00    +0.024 A 
BRANCH  26  29
ATOM     29  C   UNL     1      10.678   3.005  23.331  0.00  0.00    +0.099 C 
ATOM     30  N   UNL     1      11.046   4.068  23.617  0.00  0.00    -0.191 NA
ENDBRANCH  26  29
ENDBRANCH   8  23
TORSDOF 5
ENDMDL
MODEL 8
REMARK VINA RESULT:      -5.5      2.315      5.534
REMARK  Name = 
REMARK  7 active torsions:
REMARK  status: ('A' for Active; 'I' for Inactive)
REMARK    1  A    between atoms: C_1  and  C_2
REMARK    2  A    between atoms: C_4  and  C_25
REMARK    3  A    between atoms: C_6  and  C_24
REMARK    4  A    between atoms: C_7  and  N_8
REMARK    5  A    between atoms: N_15  and  C_16
REMARK    6  A    between atoms: C_19  and  C_22
REMARK    7  A    between atoms: C_26  and  C_27
REMARK                            x       y       z     vdW  Elec       q    Type
REMARK                         _______ _______ _______ _____ _____    ______ ____
ROOT
ATOM      1  N   UNL     1       8.958  -0.156  22.574  0.00  0.00    -0.299 N 
ATOM      2  H   UNL     1       9.840  -0.495  22.211  0.00  0.00    +0.154 HD
ATOM      3  C   UNL     1       8.197  -1.252  23.042  0.00  0.00    +0.128 A 
ATOM      4  C   UNL     1       7.996  -2.325  22.200  0.00  0.00    +0.063 A 
ATOM      5  C   UNL     1       7.235  -3.359  22.694  0.00  0.00    +0.118 A 
ATOM      6  N   UNL     1       6.701  -3.365  23.929  0.00  0.00    -0.223 NA
ATOM      7  C   UNL     1       6.936  -2.286  24.688  0.00  0.00    +0.221 A 
ATOM      8  N   UNL     1       6.354  -2.280  25.957  0.00  0.00    -0.284 N 
ATOM      9  H   UNL     1       5.843  -3.139  26.100  0.00  0.00    +0.155 HD
ATOM     10  N   UNL     1       7.676  -1.248  24.273  0.00  0.00    -0.199 NA
ENDROOT
BRANCH   1  13
ATOM     11  C   UNL     1       6.911   1.960  21.866  0.00  0.00    +0.046 C 
ATOM     12  C   UNL     1       8.153   2.191  22.685  0.00  0.00    -0.028 A 
ATOM     13  C   UNL     1       9.054   1.174  23.067  0.00  0.00    +0.038 A 
ATOM     14  C   UNL     1      10.148   1.536  23.901  0.00  0.00    -0.028 A 
ATOM     15  C   UNL     1      11.045   0.502  24.537  0.00  0.00    +0.046 C 
ATOM     16  C   UNL     1      10.417   2.898  24.183  0.00  0.00    +0.013 A 
ATOM     17  C   UNL     1       9.587   3.913  23.709  0.00  0.00    -0.024 A 
ATOM     18  C   UNL     1       8.451   3.535  22.991  0.00  0.00    +0.013 A 
BRANCH  17  19
ATOM     19  C   UNL     1       9.849   5.359  23.826  0.00  0.00    +0.019 C 
ATOM     20  C   UNL     1      10.996   6.048  23.749  0.00  0.00    +0.089 C 
BRANCH  20  21
ATOM     21  C   UNL     1      12.283   5.504  23.516  0.00  0.00    +0.091 C 
ATOM     22  N   UNL     1      13.324   5.026  23.318  0.00  0.00    -0.191 NA
ENDBRANCH  20  21
ENDBRANCH  17  19
ENDBRANCH   1  13
BRANCH   8  23
ATOM     23  C   UNL     1       6.188  -1.252  26.896  0.00  0.00    +0.034 A 
ATOM     24  C   UNL     1       4.933  -1.054  27.490  0.00  0.00    +0.024 A 
ATOM     25  C   UNL     1       4.713   0.004  28.384  0.00  0.00    +0.020 A 
ATOM     26  C   UNL     1       5.754   0.882  28.704  0.00  0.00    +0.052 A 
ATOM     27  C   UNL     1       7.016   0.670  28.162  0.00  0.00    +0.020 A 
ATOM     28  C   UNL     1       7.224  -0.392  27.283  0.00  0.00    +0.024 A 
BRANCH  26  29
ATOM     29  C   UNL     1       5.533   2.002  29.567  0.00  0.00    +0.099 C 
ATOM     30  N   UNL     1       5.331   2.905  30.268  0.00  0.00    -0.191 NA
ENDBRANCH  26  29
ENDBRANCH   8  23
TORSDOF 5
ENDMDL
MODEL 9
REMARK VINA RESULT:      -5.5      2.805      6.896
REMARK  Name = 
REMARK  7 active torsions:
REMARK  status: ('A' for Active; 'I' for Inactive)
REMARK    1  A    between atoms: C_1  and  C_2
REMARK    2  A    between atoms: C_4  and  C_25
REMARK    3  A    between atoms: C_6  and  C_24
REMARK    4  A    between atoms: C_7  and  N_8
REMARK    5  A    between atoms: N_15  and  C_16
REMARK    6  A    between atoms: C_19  and  C_22
REMARK    7  A    between atoms: C_26  and  C_27
REMARK                            x       y       z     vdW  Elec       q    Type
REMARK                         _______ _______ _______ _____ _____    ______ ____
ROOT
ATOM      1  N   UNL     1       8.019  -3.290  23.273  0.00  0.00    -0.299 N 
ATOM      2  H   UNL     1       7.783  -3.829  22.449  0.00  0.00    +0.154 HD
ATOM      3  C   UNL     1       8.365  -1.976  22.883  0.00  0.00    +0.128 A 
ATOM      4  C   UNL     1       9.319  -1.807  21.901  0.00  0.00    +0.063 A 
ATOM      5  C   UNL     1       9.634  -0.511  21.568  0.00  0.00    +0.118 A 
ATOM      6  N   UNL     1       9.063   0.564  22.141  0.00  0.00    -0.223 NA
ATOM      7  C   UNL     1       8.148   0.321  23.090  0.00  0.00    +0.221 A 
ATOM      8  N   UNL     1       7.581   1.438  23.706  0.00  0.00    -0.284 N 
ATOM      9  H   UNL     1       7.964   2.281  23.302  0.00  0.00    +0.155 HD
ATOM     10  N   UNL     1       7.787  -0.917  23.456  0.00  0.00    -0.199 NA
ENDROOT
BRANCH   1  13
ATOM     11  C   UNL     1       4.997  -3.415  23.422  0.00  0.00    +0.046 C 
ATOM     12  C   UNL     1       5.938  -3.750  24.548  0.00  0.00    -0.028 A 
ATOM     13  C   UNL     1       7.345  -3.757  24.434  0.00  0.00    +0.038 A 
ATOM     14  C   UNL     1       8.101  -4.161  25.569  0.00  0.00    -0.028 A 
ATOM     15  C   UNL     1       9.587  -4.408  25.493  0.00  0.00    +0.046 C 
ATOM     16  C   UNL     1       7.465  -4.372  26.818  0.00  0.00    +0.013 A 
ATOM     17  C   UNL     1       6.083  -4.253  26.956  0.00  0.00    -0.024 A 
ATOM     18  C   UNL     1       5.342  -3.972  25.807  0.00  0.00    +0.013 A 
BRANCH  17  19
ATOM     19  C   UNL     1       5.341  -4.314  28.228  0.00  0.00    +0.019 C 
ATOM     20  C   UNL     1       5.318  -5.255  29.182  0.00  0.00    +0.089 C 
BRANCH  20  21
ATOM     21  C   UNL     1       6.053  -6.466  29.179  0.00  0.00    +0.091 C 
ATOM     22  N   UNL     1       6.682  -7.443  29.197  0.00  0.00    -0.191 NA
ENDBRANCH  20  21
ENDBRANCH  17  19
ENDBRANCH   1  13
BRANCH   8  23
ATOM     23  C   UNL     1       6.801   1.561  24.864  0.00  0.00    +0.034 A 
ATOM     24  C   UNL     1       5.404   1.630  24.755  0.00  0.00    +0.024 A 
ATOM     25  C   UNL     1       4.597   1.817  25.887  0.00  0.00    +0.020 A 
ATOM     26  C   UNL     1       5.177   1.934  27.153  0.00  0.00    +0.052 A 
ATOM     27  C   UNL     1       6.556   1.821  27.285  0.00  0.00    +0.020 A 
ATOM     28  C   UNL     1       7.347   1.623  26.153  0.00  0.00    +0.024 A 
BRANCH  26  29
ATOM     29  C   UNL     1       4.375   2.186  28.311  0.00  0.00    +0.099 C 
ATOM     30  N   UNL     1       3.717   2.368  29.250  0.00  0.00    -0.191 NA
ENDBRANCH  26  29
ENDBRANCH   8  23
TORSDOF 5
ENDMDL
