MODEL 1
REMARK VINA RESULT:      -6.1      0.000      0.000
REMARK  Name = 
REMARK  24 active torsions:
REMARK  status: ('A' for Active; 'I' for Inactive)
REMARK    1  A    between atoms: C_1  and  C_2
REMARK    2  A    between atoms: C_2  and  C_3
REMARK    3  A    between atoms: C_2  and  C_4
REMARK    4  A    between atoms: C_6  and  C_9
REMARK    5  A    between atoms: C_9  and  N_10
REMARK    6  A    between atoms: N_10  and  C_11
REMARK    7  A    between atoms: N_14  and  C_15
REMARK    8  A    between atoms: C_15  and  C_17
REMARK    9  A    between atoms: C_15  and  C_20
REMARK   10  A    between atoms: C_17  and  C_18
REMARK   11  A    between atoms: C_17  and  C_19
REMARK   12  A    between atoms: N_22  and  C_23
REMARK   13  A    between atoms: C_23  and  C_25
REMARK   14  A    between atoms: C_23  and  C_32
REMARK   15  A    between atoms: C_25  and  C_26
REMARK   16  A    between atoms: C_32  and  C_33
REMARK   17  A    between atoms: C_33  and  C_35
REMARK   18  A    between atoms: C_33  and  O_55
REMARK   19  A    between atoms: C_35  and  C_37
REMARK   20  A    between atoms: C_35  and  N_44
REMARK   21  A    between atoms: C_37  and  C_38
REMARK   22  A    between atoms: C_45  and  O_47
REMARK   23  A    between atoms: O_47  and  C_48
REMARK   24  A    between atoms: C_48  and  C_49
REMARK                            x       y       z     vdW  Elec       q    Type
REMARK                         _______ _______ _______ _____ _____    ______ ____
ROOT
ATOM      1  C   UNL     1       8.441  -3.625  25.939  0.00  0.00    +0.080 C 
ENDROOT
BRANCH   1   3
ATOM      2  C   UNL     1       6.979  -1.617  26.409  0.00  0.00    +0.234 C 
ATOM      3  N   UNL     1       7.136  -2.921  25.992  0.00  0.00    -0.311 N 
ATOM      4  H   UNL     1       6.342  -3.369  25.550  0.00  0.00    +0.149 HD
ATOM      5  O   UNL     1       7.909  -0.922  26.821  0.00  0.00    -0.274 OA
BRANCH   2   6
ATOM      6  C   UNL     1       5.562  -1.005  26.293  0.00  0.00    +0.163 C 
BRANCH   6   9
ATOM      7  N   UNL     1       2.842  -3.001  27.917  0.00  0.00    -0.283 N 
ATOM      8  C   UNL     1       3.450  -2.262  26.909  0.00  0.00    +0.303 C 
ATOM      9  N   UNL     1       4.719  -1.829  27.182  0.00  0.00    -0.288 N 
ATOM     10  H   UNL     1       5.235  -2.291  27.916  0.00  0.00    +0.151 HD
ATOM     11  O   UNL     1       2.898  -1.981  25.851  0.00  0.00    -0.253 OA
ATOM     12  C   UNL     1       3.474  -3.332  29.188  0.00  0.00    +0.134 C 
BRANCH   7  13
ATOM     13  C   UNL     1       1.419  -3.336  27.789  0.00  0.00    +0.164 C 
BRANCH  13  17
ATOM     14  C   UNL     1       1.033  -6.333  25.735  0.00  0.00    +0.081 A 
ATOM     15  S   UNL     1       0.956  -7.284  27.172  0.00  0.00    -0.080 S 
ATOM     16  C   UNL     1       1.120  -5.868  28.117  0.00  0.00    +0.071 A 
ATOM     17  C   UNL     1       1.176  -4.748  27.311  0.00  0.00    +0.066 A 
ATOM     18  N   UNL     1       1.114  -5.030  25.939  0.00  0.00    -0.247 NA
BRANCH  14  20
ATOM     19  C   UNL     1       1.076  -6.040  23.229  0.00  0.00    +0.014 C 
ATOM     20  C   UNL     1       1.067  -7.031  24.391  0.00  0.00    +0.038 C 
ATOM     21  C   UNL     1       2.269  -7.974  24.298  0.00  0.00    +0.014 C 
ENDBRANCH  14  20
ENDBRANCH  13  17
ENDBRANCH   7  13
ENDBRANCH   6   9
BRANCH   6  22
ATOM     22  C   UNL     1       5.656   0.488  26.714  0.00  0.00    +0.012 C 
ATOM     23  C   UNL     1       5.119   0.759  28.130  0.00  0.00    +0.009 C 
ATOM     24  C   UNL     1       4.965   1.426  25.726  0.00  0.00    +0.009 C 
ENDBRANCH   6  22
ENDBRANCH   2   6
ENDBRANCH   1   3
BRANCH   1  25
ATOM     25  C   UNL     1       8.859  -3.791  24.448  0.00  0.00    +0.055 C 
BRANCH  25  26
ATOM     26  C   UNL     1       9.285  -2.507  23.698  0.00  0.00    +0.137 C 
BRANCH  26  27
ATOM     27  O   UNL     1       9.681  -1.555  24.700  0.00  0.00    -0.390 OA
ATOM     28  H   UNL     1       9.530  -0.664  24.341  0.00  0.00    +0.210 HD
ENDBRANCH  26  27
BRANCH  26  29
ATOM     29  C   UNL     1       8.128  -1.875  22.852  0.00  0.00    +0.109 C 
BRANCH  29  30
ATOM     30  N   UNL     1       8.462  -0.528  22.368  0.00  0.00    -0.275 N 
ATOM     31  H   UNL     1       9.419  -0.330  22.116  0.00  0.00    +0.152 HD
ATOM     32  C   UNL     1       7.639   0.552  22.374  0.00  0.00    +0.401 C 
ATOM     33  O   UNL     1       6.455   0.549  22.672  0.00  0.00    -0.226 OA
BRANCH  32  34
ATOM     34  O   UNL     1       8.352   1.630  21.974  0.00  0.00    -0.449 OA
BRANCH  34  35
ATOM     35  C   UNL     1       9.785   1.536  22.052  0.00  0.00    +0.249 C 
BRANCH  35  36
ATOM     36  C   UNL     1      10.393   2.411  23.156  0.00  0.00    +0.099 C 
ATOM     37  S   UNL     1       9.223   3.691  23.726  0.00  0.00    -0.137 S 
ATOM     38  C   UNL     1       8.596   2.672  25.085  0.00  0.00    +0.151 C 
ATOM     39  N   UNL     1       9.271   1.379  25.033  0.00  0.00    -0.306 NA
ATOM     40  H   UNL     1       9.348   0.987  25.970  0.00  0.00    +0.123 HD
ATOM     41  C   UNL     1      10.595   1.600  24.442  0.00  0.00    +0.099 C 
ENDBRANCH  35  36
ENDBRANCH  34  35
ENDBRANCH  32  34
ENDBRANCH  29  30
BRANCH  29  42
ATOM     42  C   UNL     1       7.629  -2.754  21.676  0.00  0.00    +0.060 C 
BRANCH  42  43
ATOM     43  C   UNL     1       6.524  -3.710  22.093  0.00  0.00    -0.046 A 
ATOM     44  C   UNL     1       6.594  -5.068  21.748  0.00  0.00    +0.004 A 
ATOM     45  C   UNL     1       5.610  -5.962  22.172  0.00  0.00    +0.000 A 
ATOM     46  C   UNL     1       4.535  -5.506  22.930  0.00  0.00    +0.000 A 
ATOM     47  C   UNL     1       4.441  -4.156  23.261  0.00  0.00    +0.000 A 
ATOM     48  C   UNL     1       5.431  -3.260  22.846  0.00  0.00    +0.004 A 
ENDBRANCH  42  43
ENDBRANCH  29  42
ENDBRANCH  26  29
ENDBRANCH  25  26
ENDBRANCH   1  25
BRANCH   1  49
ATOM     49  C   UNL     1       8.483  -4.950  26.760  0.00  0.00    +0.057 C 
BRANCH  49  50
ATOM     50  C   UNL     1       7.145  -5.586  27.070  0.00  0.00    -0.046 A 
ATOM     51  C   UNL     1       6.777  -5.868  28.396  0.00  0.00    +0.004 A 
ATOM     52  C   UNL     1       5.537  -6.439  28.687  0.00  0.00    +0.000 A 
ATOM     53  C   UNL     1       4.654  -6.742  27.659  0.00  0.00    +0.000 A 
ATOM     54  C   UNL     1       5.009  -6.484  26.339  0.00  0.00    +0.000 A 
ATOM     55  C   UNL     1       6.253  -5.923  26.051  0.00  0.00    +0.004 A 
ENDBRANCH  49  50
ENDBRANCH   1  49
TORSDOF 19
ENDMDL
MODEL 2
REMARK VINA RESULT:      -5.9      2.623      8.946
REMARK  Name = 
REMARK  24 active torsions:
REMARK  status: ('A' for Active; 'I' for Inactive)
REMARK    1  A    between atoms: C_1  and  C_2
REMARK    2  A    between atoms: C_2  and  C_3
REMARK    3  A    between atoms: C_2  and  C_4
REMARK    4  A    between atoms: C_6  and  C_9
REMARK    5  A    between atoms: C_9  and  N_10
REMARK    6  A    between atoms: N_10  and  C_11
REMARK    7  A    between atoms: N_14  and  C_15
REMARK    8  A    between atoms: C_15  and  C_17
REMARK    9  A    between atoms: C_15  and  C_20
REMARK   10  A    between atoms: C_17  and  C_18
REMARK   11  A    between atoms: C_17  and  C_19
REMARK   12  A    between atoms: N_22  and  C_23
REMARK   13  A    between atoms: C_23  and  C_25
REMARK   14  A    between atoms: C_23  and  C_32
REMARK   15  A    between atoms: C_25  and  C_26
REMARK   16  A    between atoms: C_32  and  C_33
REMARK   17  A    between atoms: C_33  and  C_35
REMARK   18  A    between atoms: C_33  and  O_55
REMARK   19  A    between atoms: C_35  and  C_37
REMARK   20  A    between atoms: C_35  and  N_44
REMARK   21  A    between atoms: C_37  and  C_38
REMARK   22  A    between atoms: C_45  and  O_47
REMARK   23  A    between atoms: O_47  and  C_48
REMARK   24  A    between atoms: C_48  and  C_49
REMARK                            x       y       z     vdW  Elec       q    Type
REMARK                         _______ _______ _______ _____ _____    ______ ____
ROOT
ATOM      1  C   UNL     1       7.211  -2.169  26.050  0.00  0.00    +0.080 C 
ENDROOT
BRANCH   1   3
ATOM      2  C   UNL     1       5.438  -0.400  26.391  0.00  0.00    +0.234 C 
ATOM      3  N   UNL     1       6.561  -1.076  26.814  0.00  0.00    -0.311 N 
ATOM      4  H   UNL     1       6.865  -0.926  27.769  0.00  0.00    +0.149 HD
ATOM      5  O   UNL     1       4.889  -0.612  25.308  0.00  0.00    -0.274 OA
BRANCH   2   6
ATOM      6  C   UNL     1       4.828   0.635  27.367  0.00  0.00    +0.163 C 
BRANCH   6   9
ATOM      7  N   UNL     1       5.943   4.015  26.205  0.00  0.00    -0.283 N 
ATOM      8  C   UNL     1       6.005   2.837  26.942  0.00  0.00    +0.303 C 
ATOM      9  N   UNL     1       5.003   1.939  26.697  0.00  0.00    -0.288 N 
ATOM     10  H   UNL     1       4.482   2.025  25.837  0.00  0.00    +0.151 HD
ATOM     11  O   UNL     1       6.870   2.610  27.779  0.00  0.00    -0.253 OA
ATOM     12  C   UNL     1       4.913   4.313  25.218  0.00  0.00    +0.134 C 
BRANCH   7  13
ATOM     13  C   UNL     1       6.858   5.111  26.545  0.00  0.00    +0.164 C 
BRANCH  13  17
ATOM     14  C   UNL     1       9.553   4.614  24.128  0.00  0.00    +0.081 A 
ATOM     15  S   UNL     1       9.409   6.267  23.657  0.00  0.00    -0.080 S 
ATOM     16  C   UNL     1       8.162   6.485  24.806  0.00  0.00    +0.071 A 
ATOM     17  C   UNL     1       7.947   5.321  25.519  0.00  0.00    +0.066 A 
ATOM     18  N   UNL     1       8.765   4.252  25.125  0.00  0.00    -0.247 NA
BRANCH  14  20
ATOM     19  C   UNL     1      11.899   4.287  23.255  0.00  0.00    +0.014 C 
ATOM     20  C   UNL     1      10.490   3.707  23.356  0.00  0.00    +0.038 C 
ATOM     21  C   UNL     1      10.531   2.310  23.979  0.00  0.00    +0.014 C 
ENDBRANCH  14  20
ENDBRANCH  13  17
ENDBRANCH   7  13
ENDBRANCH   6   9
BRANCH   6  22
ATOM     22  C   UNL     1       3.344   0.241  27.607  0.00  0.00    +0.012 C 
ATOM     23  C   UNL     1       2.366   1.419  27.458  0.00  0.00    +0.009 C 
ATOM     24  C   UNL     1       3.121  -0.429  28.962  0.00  0.00    +0.009 C 
ENDBRANCH   6  22
ENDBRANCH   2   6
ENDBRANCH   1   3
BRANCH   1  25
ATOM     25  C   UNL     1       7.004  -3.508  26.817  0.00  0.00    +0.055 C 
BRANCH  25  26
ATOM     26  C   UNL     1       5.574  -4.097  26.815  0.00  0.00    +0.137 C 
BRANCH  26  27
ATOM     27  O   UNL     1       5.016  -3.830  28.112  0.00  0.00    -0.390 OA
ATOM     28  H   UNL     1       5.338  -2.960  28.403  0.00  0.00    +0.210 HD
ENDBRANCH  26  27
BRANCH  26  29
ATOM     29  C   UNL     1       5.547  -5.646  26.579  0.00  0.00    +0.109 C 
BRANCH  29  30
ATOM     30  N   UNL     1       4.756  -6.352  27.598  0.00  0.00    -0.275 N 
ATOM     31  H   UNL     1       3.751  -6.249  27.585  0.00  0.00    +0.152 HD
ATOM     32  C   UNL     1       5.247  -7.013  28.677  0.00  0.00    +0.401 C 
ATOM     33  O   UNL     1       6.426  -7.228  28.910  0.00  0.00    -0.226 OA
BRANCH  32  34
ATOM     34  O   UNL     1       4.203  -7.411  29.441  0.00  0.00    -0.449 OA
BRANCH  34  35
ATOM     35  C   UNL     1       3.365  -6.383  29.996  0.00  0.00    +0.249 C 
BRANCH  35  36
ATOM     36  C   UNL     1       1.868  -6.714  29.927  0.00  0.00    +0.099 C 
ATOM     37  S   UNL     1       0.957  -5.516  28.892  0.00  0.00    -0.137 S 
ATOM     38  C   UNL     1       1.098  -6.530  27.398  0.00  0.00    +0.151 C 
ATOM     39  N   UNL     1       1.867  -7.725  27.730  0.00  0.00    -0.306 NA
ATOM     40  H   UNL     1       1.573  -8.505  27.144  0.00  0.00    +0.123 HD
ATOM     41  C   UNL     1       1.635  -8.015  29.150  0.00  0.00    +0.099 C 
ENDBRANCH  35  36
ENDBRANCH  34  35
ENDBRANCH  32  34
ENDBRANCH  29  30
BRANCH  29  42
ATOM     42  C   UNL     1       5.094  -6.079  25.161  0.00  0.00    +0.060 C 
BRANCH  42  43
ATOM     43  C   UNL     1       5.649  -5.177  24.072  0.00  0.00    -0.046 A 
ATOM     44  C   UNL     1       4.856  -4.160  23.521  0.00  0.00    +0.004 A 
ATOM     45  C   UNL     1       5.376  -3.294  22.558  0.00  0.00    +0.000 A 
ATOM     46  C   UNL     1       6.689  -3.446  22.122  0.00  0.00    +0.000 A 
ATOM     47  C   UNL     1       7.481  -4.465  22.645  0.00  0.00    +0.000 A 
ATOM     48  C   UNL     1       6.965  -5.328  23.616  0.00  0.00    +0.004 A 
ENDBRANCH  42  43
ENDBRANCH  29  42
ENDBRANCH  26  29
ENDBRANCH  25  26
ENDBRANCH   1  25
BRANCH   1  49
ATOM     49  C   UNL     1       8.695  -1.882  25.665  0.00  0.00    +0.057 C 
BRANCH  49  50
ATOM     50  C   UNL     1       8.937  -1.402  24.251  0.00  0.00    -0.046 A 
ATOM     51  C   UNL     1       8.064  -0.483  23.647  0.00  0.00    +0.004 A 
ATOM     52  C   UNL     1       8.294  -0.025  22.349  0.00  0.00    +0.000 A 
ATOM     53  C   UNL     1       9.392  -0.486  21.634  0.00  0.00    +0.000 A 
ATOM     54  C   UNL     1      10.258  -1.409  22.212  0.00  0.00    +0.000 A 
ATOM     55  C   UNL     1      10.020  -1.872  23.505  0.00  0.00    +0.004 A 
ENDBRANCH  49  50
ENDBRANCH   1  49
TORSDOF 19
ENDMDL
MODEL 3
REMARK VINA RESULT:      -5.9      3.057      6.940
REMARK  Name = 
REMARK  24 active torsions:
REMARK  status: ('A' for Active; 'I' for Inactive)
REMARK    1  A    between atoms: C_1  and  C_2
REMARK    2  A    between atoms: C_2  and  C_3
REMARK    3  A    between atoms: C_2  and  C_4
REMARK    4  A    between atoms: C_6  and  C_9
REMARK    5  A    between atoms: C_9  and  N_10
REMARK    6  A    between atoms: N_10  and  C_11
REMARK    7  A    between atoms: N_14  and  C_15
REMARK    8  A    between atoms: C_15  and  C_17
REMARK    9  A    between atoms: C_15  and  C_20
REMARK   10  A    between atoms: C_17  and  C_18
REMARK   11  A    between atoms: C_17  and  C_19
REMARK   12  A    between atoms: N_22  and  C_23
REMARK   13  A    between atoms: C_23  and  C_25
REMARK   14  A    between atoms: C_23  and  C_32
REMARK   15  A    between atoms: C_25  and  C_26
REMARK   16  A    between atoms: C_32  and  C_33
REMARK   17  A    between atoms: C_33  and  C_35
REMARK   18  A    between atoms: C_33  and  O_55
REMARK   19  A    between atoms: C_35  and  C_37
REMARK   20  A    between atoms: C_35  and  N_44
REMARK   21  A    between atoms: C_37  and  C_38
REMARK   22  A    between atoms: C_45  and  O_47
REMARK   23  A    between atoms: O_47  and  C_48
REMARK   24  A    between atoms: C_48  and  C_49
REMARK                            x       y       z     vdW  Elec       q    Type
REMARK                         _______ _______ _______ _____ _____    ______ ____
ROOT
ATOM      1  C   UNL     1       4.572  -1.735  26.409  0.00  0.00    +0.080 C 
ENDROOT
BRANCH   1   3
ATOM      2  C   UNL     1       4.717   0.408  27.743  0.00  0.00    +0.234 C 
ATOM      3  N   UNL     1       4.096  -0.386  26.803  0.00  0.00    -0.311 N 
ATOM      4  H   UNL     1       3.370   0.039  26.238  0.00  0.00    +0.149 HD
ATOM      5  O   UNL     1       5.708   0.049  28.382  0.00  0.00    -0.274 OA
BRANCH   2   6
ATOM      6  C   UNL     1       4.150   1.833  27.949  0.00  0.00    +0.163 C 
BRANCH   6   9
ATOM      7  N   UNL     1       4.266   4.089  24.963  0.00  0.00    -0.283 N 
ATOM      8  C   UNL     1       4.366   3.750  26.308  0.00  0.00    +0.303 C 
ATOM      9  N   UNL     1       4.135   2.434  26.601  0.00  0.00    -0.288 N 
ATOM     10  H   UNL     1       4.206   1.759  25.855  0.00  0.00    +0.151 HD
ATOM     11  O   UNL     1       4.614   4.563  27.191  0.00  0.00    -0.253 OA
ATOM     12  C   UNL     1       3.956   3.142  23.899  0.00  0.00    +0.134 C 
BRANCH   7  13
ATOM     13  C   UNL     1       4.304   5.506  24.585  0.00  0.00    +0.164 C 
BRANCH  13  17
ATOM     14  C   UNL     1       7.775   6.474  23.981  0.00  0.00    +0.081 A 
ATOM     15  S   UNL     1       7.507   6.302  22.285  0.00  0.00    -0.080 S 
ATOM     16  C   UNL     1       5.881   5.868  22.587  0.00  0.00    +0.071 A 
ATOM     17  C   UNL     1       5.605   5.920  23.941  0.00  0.00    +0.066 A 
ATOM     18  N   UNL     1       6.705   6.282  24.732  0.00  0.00    -0.247 NA
BRANCH  14  20
ATOM     19  C   UNL     1       9.345   6.403  25.956  0.00  0.00    +0.014 C 
ATOM     20  C   UNL     1       9.176   6.759  24.480  0.00  0.00    +0.038 C 
ATOM     21  C   UNL     1      10.216   6.022  23.632  0.00  0.00    +0.014 C 
ENDBRANCH  14  20
ENDBRANCH  13  17
ENDBRANCH   7  13
ENDBRANCH   6   9
BRANCH   6  22
ATOM     22  C   UNL     1       2.744   1.693  28.595  0.00  0.00    +0.012 C 
ATOM     23  C   UNL     1       1.594   2.084  27.652  0.00  0.00    +0.009 C 
ATOM     24  C   UNL     1       2.611   2.476  29.900  0.00  0.00    +0.009 C 
ENDBRANCH   6  22
ENDBRANCH   2   6
ENDBRANCH   1   3
BRANCH   1  25
ATOM     25  C   UNL     1       5.550  -1.589  25.206  0.00  0.00    +0.055 C 
BRANCH  25  26
ATOM     26  C   UNL     1       7.061  -1.605  25.531  0.00  0.00    +0.137 C 
BRANCH  26  27
ATOM     27  O   UNL     1       7.424  -0.258  25.878  0.00  0.00    -0.390 OA
ATOM     28  H   UNL     1       8.007  -0.295  26.655  0.00  0.00    +0.210 HD
ENDBRANCH  26  27
BRANCH  26  29
ATOM     29  C   UNL     1       7.948  -2.054  24.321  0.00  0.00    +0.109 C 
BRANCH  29  30
ATOM     30  N   UNL     1       9.189  -1.273  24.217  0.00  0.00    -0.275 N 
ATOM     31  H   UNL     1       9.469  -0.706  25.004  0.00  0.00    +0.152 HD
ATOM     32  C   UNL     1       9.934  -1.098  23.095  0.00  0.00    +0.401 C 
ATOM     33  O   UNL     1       9.759  -1.656  22.024  0.00  0.00    -0.226 OA
BRANCH  32  34
ATOM     34  O   UNL     1      10.918  -0.212  23.374  0.00  0.00    -0.449 OA
BRANCH  34  35
ATOM     35  C   UNL     1      10.701   0.685  24.477  0.00  0.00    +0.249 C 
BRANCH  35  36
ATOM     36  C   UNL     1      10.376   2.120  24.041  0.00  0.00    +0.099 C 
ATOM     37  S   UNL     1      10.085   2.230  22.242  0.00  0.00    -0.137 S 
ATOM     38  C   UNL     1       8.293   2.033  22.406  0.00  0.00    +0.151 C 
ATOM     39  N   UNL     1       7.983   1.851  23.821  0.00  0.00    -0.306 NA
ATOM     40  H   UNL     1       7.055   2.218  24.026  0.00  0.00    +0.123 HD
ATOM     41  C   UNL     1       9.013   2.559  24.589  0.00  0.00    +0.099 C 
ENDBRANCH  35  36
ENDBRANCH  34  35
ENDBRANCH  32  34
ENDBRANCH  29  30
BRANCH  29  42
ATOM     42  C   UNL     1       8.270  -3.570  24.278  0.00  0.00    +0.060 C 
BRANCH  42  43
ATOM     43  C   UNL     1       7.520  -4.294  23.173  0.00  0.00    -0.046 A 
ATOM     44  C   UNL     1       6.602  -3.602  22.369  0.00  0.00    +0.004 A 
ATOM     45  C   UNL     1       5.948  -4.248  21.318  0.00  0.00    +0.000 A 
ATOM     46  C   UNL     1       6.191  -5.596  21.070  0.00  0.00    +0.000 A 
ATOM     47  C   UNL     1       7.084  -6.300  21.875  0.00  0.00    +0.000 A 
ATOM     48  C   UNL     1       7.747  -5.654  22.922  0.00  0.00    +0.004 A 
ENDBRANCH  42  43
ENDBRANCH  29  42
ENDBRANCH  26  29
ENDBRANCH  25  26
ENDBRANCH   1  25
BRANCH   1  49
ATOM     49  C   UNL     1       3.429  -2.769  26.175  0.00  0.00    +0.057 C 
BRANCH  49  50
ATOM     50  C   UNL     1       3.838  -4.089  25.557  0.00  0.00    -0.046 A 
ATOM     51  C   UNL     1       4.785  -4.911  26.189  0.00  0.00    +0.004 A 
ATOM     52  C   UNL     1       5.153  -6.137  25.631  0.00  0.00    +0.000 A 
ATOM     53  C   UNL     1       4.586  -6.552  24.433  0.00  0.00    +0.000 A 
ATOM     54  C   UNL     1       3.658  -5.742  23.786  0.00  0.00    +0.000 A 
ATOM     55  C   UNL     1       3.300  -4.513  24.341  0.00  0.00    +0.004 A 
ENDBRANCH  49  50
ENDBRANCH   1  49
TORSDOF 19
ENDMDL
MODEL 4
REMARK VINA RESULT:      -5.8      2.615      8.740
REMARK  Name = 
REMARK  24 active torsions:
REMARK  status: ('A' for Active; 'I' for Inactive)
REMARK    1  A    between atoms: C_1  and  C_2
REMARK    2  A    between atoms: C_2  and  C_3
REMARK    3  A    between atoms: C_2  and  C_4
REMARK    4  A    between atoms: C_6  and  C_9
REMARK    5  A    between atoms: C_9  and  N_10
REMARK    6  A    between atoms: N_10  and  C_11
REMARK    7  A    between atoms: N_14  and  C_15
REMARK    8  A    between atoms: C_15  and  C_17
REMARK    9  A    between atoms: C_15  and  C_20
REMARK   10  A    between atoms: C_17  and  C_18
REMARK   11  A    between atoms: C_17  and  C_19
REMARK   12  A    between atoms: N_22  and  C_23
REMARK   13  A    between atoms: C_23  and  C_25
REMARK   14  A    between atoms: C_23  and  C_32
REMARK   15  A    between atoms: C_25  and  C_26
REMARK   16  A    between atoms: C_32  and  C_33
REMARK   17  A    between atoms: C_33  and  C_35
REMARK   18  A    between atoms: C_33  and  O_55
REMARK   19  A    between atoms: C_35  and  C_37
REMARK   20  A    between atoms: C_35  and  N_44
REMARK   21  A    between atoms: C_37  and  C_38
REMARK   22  A    between atoms: C_45  and  O_47
REMARK   23  A    between atoms: O_47  and  C_48
REMARK   24  A    between atoms: C_48  and  C_49
REMARK                            x       y       z     vdW  Elec       q    Type
REMARK                         _______ _______ _______ _____ _____    ______ ____
ROOT
ATOM      1  C   UNL     1       8.880  -2.605  23.898  0.00  0.00    +0.080 C 
ENDROOT
BRANCH   1   3
ATOM      2  C   UNL     1       7.213  -0.904  24.747  0.00  0.00    +0.234 C 
ATOM      3  N   UNL     1       8.240  -1.796  24.965  0.00  0.00    -0.311 N 
ATOM      4  H   UNL     1       8.461  -2.029  25.926  0.00  0.00    +0.149 HD
ATOM      5  O   UNL     1       6.756  -0.659  23.629  0.00  0.00    -0.274 OA
BRANCH   2   6
ATOM      6  C   UNL     1       6.588  -0.229  25.992  0.00  0.00    +0.163 C 
BRANCH   6   9
ATOM      7  N   UNL     1       5.290   3.169  25.108  0.00  0.00    -0.283 N 
ATOM      8  C   UNL     1       6.154   2.248  25.688  0.00  0.00    +0.303 C 
ATOM      9  N   UNL     1       5.848   0.934  25.462  0.00  0.00    -0.288 N 
ATOM     10  H   UNL     1       5.242   0.710  24.688  0.00  0.00    +0.151 HD
ATOM     11  O   UNL     1       7.112   2.566  26.382  0.00  0.00    -0.253 OA
ATOM     12  C   UNL     1       4.134   2.812  24.294  0.00  0.00    +0.134 C 
BRANCH   7  13
ATOM     13  C   UNL     1       5.426   4.587  25.460  0.00  0.00    +0.164 C 
BRANCH  13  17
ATOM     14  C   UNL     1       8.416   6.278  24.213  0.00  0.00    +0.081 A 
ATOM     15  S   UNL     1       7.735   6.272  22.628  0.00  0.00    -0.080 S 
ATOM     16  C   UNL     1       6.336   5.497  23.233  0.00  0.00    +0.071 A 
ATOM     17  C   UNL     1       6.428   5.323  24.601  0.00  0.00    +0.066 A 
ATOM     18  N   UNL     1       7.629   5.789  25.155  0.00  0.00    -0.247 NA
BRANCH  14  20
ATOM     19  C   UNL     1      10.187   6.966  25.875  0.00  0.00    +0.014 C 
ATOM     20  C   UNL     1       9.839   6.763  24.401  0.00  0.00    +0.038 C 
ATOM     21  C   UNL     1      10.833   5.803  23.745  0.00  0.00    +0.014 C 
ENDBRANCH  14  20
ENDBRANCH  13  17
ENDBRANCH   7  13
ENDBRANCH   6   9
BRANCH   6  22
ATOM     22  C   UNL     1       5.691  -1.282  26.699  0.00  0.00    +0.012 C 
ATOM     23  C   UNL     1       4.633  -1.906  25.773  0.00  0.00    +0.009 C 
ATOM     24  C   UNL     1       5.003  -0.731  27.947  0.00  0.00    +0.009 C 
ENDBRANCH   6  22
ENDBRANCH   2   6
ENDBRANCH   1   3
BRANCH   1  25
ATOM     25  C   UNL     1       9.000  -4.077  24.389  0.00  0.00    +0.055 C 
BRANCH  25  26
ATOM     26  C   UNL     1       8.310  -4.423  25.729  0.00  0.00    +0.137 C 
BRANCH  26  27
ATOM     27  O   UNL     1       9.221  -5.260  26.460  0.00  0.00    -0.390 OA
ATOM     28  H   UNL     1       9.742  -5.769  25.815  0.00  0.00    +0.210 HD
ENDBRANCH  26  27
BRANCH  26  29
ATOM     29  C   UNL     1       6.966  -5.205  25.546  0.00  0.00    +0.109 C 
BRANCH  29  30
ATOM     30  N   UNL     1       6.028  -4.973  26.654  0.00  0.00    -0.275 N 
ATOM     31  H   UNL     1       5.251  -4.347  26.504  0.00  0.00    +0.152 HD
ATOM     32  C   UNL     1       6.184  -5.391  27.937  0.00  0.00    +0.401 C 
ATOM     33  O   UNL     1       7.068  -6.126  28.348  0.00  0.00    -0.226 OA
BRANCH  32  34
ATOM     34  O   UNL     1       5.180  -4.868  28.678  0.00  0.00    -0.449 OA
BRANCH  34  35
ATOM     35  C   UNL     1       4.494  -5.757  29.577  0.00  0.00    +0.249 C 
BRANCH  35  36
ATOM     36  C   UNL     1       2.966  -5.661  29.481  0.00  0.00    +0.099 C 
ATOM     37  S   UNL     1       2.386  -3.936  29.629  0.00  0.00    -0.137 S 
ATOM     38  C   UNL     1       2.366  -3.670  27.838  0.00  0.00    +0.151 C 
ATOM     39  N   UNL     1       2.839  -4.891  27.192  0.00  0.00    -0.306 NA
ATOM     40  H   UNL     1       2.407  -4.991  26.275  0.00  0.00    +0.123 HD
ATOM     41  C   UNL     1       2.487  -6.014  28.067  0.00  0.00    +0.099 C 
ENDBRANCH  35  36
ENDBRANCH  34  35
ENDBRANCH  32  34
ENDBRANCH  29  30
BRANCH  29  42
ATOM     42  C   UNL     1       6.254  -4.966  24.189  0.00  0.00    +0.060 C 
BRANCH  42  43
ATOM     43  C   UNL     1       4.854  -5.556  24.154  0.00  0.00    -0.046 A 
ATOM     44  C   UNL     1       3.784  -4.813  23.635  0.00  0.00    +0.004 A 
ATOM     45  C   UNL     1       2.506  -5.369  23.552  0.00  0.00    +0.000 A 
ATOM     46  C   UNL     1       2.280  -6.666  24.003  0.00  0.00    +0.000 A 
ATOM     47  C   UNL     1       3.329  -7.407  24.542  0.00  0.00    +0.000 A 
ATOM     48  C   UNL     1       4.612  -6.857  24.618  0.00  0.00    +0.004 A 
ENDBRANCH  42  43
ENDBRANCH  29  42
ENDBRANCH  26  29
ENDBRANCH  25  26
ENDBRANCH   1  25
BRANCH   1  49
ATOM     49  C   UNL     1      10.215  -2.005  23.360  0.00  0.00    +0.057 C 
BRANCH  49  50
ATOM     50  C   UNL     1      10.238  -0.506  23.153  0.00  0.00    -0.046 A 
ATOM     51  C   UNL     1       9.793   0.057  21.947  0.00  0.00    +0.004 A 
ATOM     52  C   UNL     1       9.798   1.440  21.759  0.00  0.00    +0.000 A 
ATOM     53  C   UNL     1      10.254   2.277  22.770  0.00  0.00    +0.000 A 
ATOM     54  C   UNL     1      10.714   1.734  23.966  0.00  0.00    +0.000 A 
ATOM     55  C   UNL     1      10.718   0.351  24.146  0.00  0.00    +0.004 A 
ENDBRANCH  49  50
ENDBRANCH   1  49
TORSDOF 19
ENDMDL
MODEL 5
REMARK VINA RESULT:      -5.7      2.605      6.857
REMARK  Name = 
REMARK  24 active torsions:
REMARK  status: ('A' for Active; 'I' for Inactive)
REMARK    1  A    between atoms: C_1  and  C_2
REMARK    2  A    between atoms: C_2  and  C_3
REMARK    3  A    between atoms: C_2  and  C_4
REMARK    4  A    between atoms: C_6  and  C_9
REMARK    5  A    between atoms: C_9  and  N_10
REMARK    6  A    between atoms: N_10  and  C_11
REMARK    7  A    between atoms: N_14  and  C_15
REMARK    8  A    between atoms: C_15  and  C_17
REMARK    9  A    between atoms: C_15  and  C_20
REMARK   10  A    between atoms: C_17  and  C_18
REMARK   11  A    between atoms: C_17  and  C_19
REMARK   12  A    between atoms: N_22  and  C_23
REMARK   13  A    between atoms: C_23  and  C_25
REMARK   14  A    between atoms: C_23  and  C_32
REMARK   15  A    between atoms: C_25  and  C_26
REMARK   16  A    between atoms: C_32  and  C_33
REMARK   17  A    between atoms: C_33  and  C_35
REMARK   18  A    between atoms: C_33  and  O_55
REMARK   19  A    between atoms: C_35  and  C_37
REMARK   20  A    between atoms: C_35  and  N_44
REMARK   21  A    between atoms: C_37  and  C_38
REMARK   22  A    between atoms: C_45  and  O_47
REMARK   23  A    between atoms: O_47  and  C_48
REMARK   24  A    between atoms: C_48  and  C_49
REMARK                            x       y       z     vdW  Elec       q    Type
REMARK                         _______ _______ _______ _____ _____    ______ ____
ROOT
ATOM      1  C   UNL     1       8.879   1.852  22.392  0.00  0.00    +0.080 C 
ENDROOT
BRANCH   1   3
ATOM      2  C   UNL     1       6.615   2.900  22.808  0.00  0.00    +0.234 C 
ATOM      3  N   UNL     1       7.600   1.993  23.133  0.00  0.00    -0.311 N 
ATOM      4  H   UNL     1       7.372   1.279  23.815  0.00  0.00    +0.149 HD
ATOM      5  O   UNL     1       6.724   3.717  21.892  0.00  0.00    -0.274 OA
BRANCH   2   6
ATOM      6  C   UNL     1       5.299   2.833  23.620  0.00  0.00    +0.163 C 
BRANCH   6   9
ATOM      7  N   UNL     1       5.312   0.888  26.819  0.00  0.00    -0.283 N 
ATOM      8  C   UNL     1       4.749   1.538  25.726  0.00  0.00    +0.303 C 
ATOM      9  N   UNL     1       5.642   2.072  24.837  0.00  0.00    -0.288 N 
ATOM     10  H   UNL     1       6.590   1.728  24.847  0.00  0.00    +0.151 HD
ATOM     11  O   UNL     1       3.541   1.662  25.564  0.00  0.00    -0.253 OA
ATOM     12  C   UNL     1       6.746   0.745  27.040  0.00  0.00    +0.134 C 
BRANCH   7  13
ATOM     13  C   UNL     1       4.437   0.461  27.916  0.00  0.00    +0.164 C 
BRANCH  13  17
ATOM     14  C   UNL     1       3.889  -3.151  27.985  0.00  0.00    +0.081 A 
ATOM     15  S   UNL     1       2.307  -2.903  27.342  0.00  0.00    -0.080 S 
ATOM     16  C   UNL     1       2.589  -1.217  27.301  0.00  0.00    +0.071 A 
ATOM     17  C   UNL     1       3.871  -0.926  27.726  0.00  0.00    +0.066 A 
ATOM     18  N   UNL     1       4.614  -2.053  28.107  0.00  0.00    -0.247 NA
BRANCH  14  20
ATOM     19  C   UNL     1       4.712  -4.600  29.880  0.00  0.00    +0.014 C 
ATOM     20  C   UNL     1       4.301  -4.545  28.409  0.00  0.00    +0.038 C 
ATOM     21  C   UNL     1       3.184  -5.552  28.129  0.00  0.00    +0.014 C 
ENDBRANCH  14  20
ENDBRANCH  13  17
ENDBRANCH   7  13
ENDBRANCH   6   9
BRANCH   6  22
ATOM     22  C   UNL     1       4.838   4.291  23.893  0.00  0.00    +0.012 C 
ATOM     23  C   UNL     1       5.368   4.862  25.219  0.00  0.00    +0.009 C 
ATOM     24  C   UNL     1       3.319   4.450  23.849  0.00  0.00    +0.009 C 
ENDBRANCH   6  22
ENDBRANCH   2   6
ENDBRANCH   1   3
BRANCH   1  25
ATOM     25  C   UNL     1       8.873   0.489  21.640  0.00  0.00    +0.055 C 
BRANCH  25  26
ATOM     26  C   UNL     1       9.768  -0.630  22.221  0.00  0.00    +0.137 C 
BRANCH  26  27
ATOM     27  O   UNL     1      10.089  -1.510  21.130  0.00  0.00    -0.390 OA
ATOM     28  H   UNL     1       9.666  -2.369  21.303  0.00  0.00    +0.210 HD
ENDBRANCH  26  27
BRANCH  26  29
ATOM     29  C   UNL     1       9.057  -1.471  23.334  0.00  0.00    +0.109 C 
BRANCH  29  30
ATOM     30  N   UNL     1       7.841  -2.136  22.843  0.00  0.00    -0.275 N 
ATOM     31  H   UNL     1       7.940  -2.908  22.201  0.00  0.00    +0.152 HD
ATOM     32  C   UNL     1       6.564  -1.714  23.034  0.00  0.00    +0.401 C 
ATOM     33  O   UNL     1       6.216  -0.784  23.743  0.00  0.00    -0.226 OA
BRANCH  32  34
ATOM     34  O   UNL     1       5.742  -2.515  22.318  0.00  0.00    -0.449 OA
BRANCH  34  35
ATOM     35  C   UNL     1       6.150  -3.882  22.137  0.00  0.00    +0.249 C 
BRANCH  35  36
ATOM     36  C   UNL     1       5.013  -4.891  22.347  0.00  0.00    +0.099 C 
ATOM     37  S   UNL     1       5.561  -6.333  23.324  0.00  0.00    -0.137 S 
ATOM     38  C   UNL     1       5.016  -5.616  24.896  0.00  0.00    +0.151 C 
ATOM     39  N   UNL     1       4.472  -4.289  24.626  0.00  0.00    -0.306 NA
ATOM     40  H   UNL     1       3.748  -4.063  25.305  0.00  0.00    +0.123 HD
ATOM     41  C   UNL     1       3.930  -4.307  23.262  0.00  0.00    +0.099 C 
ENDBRANCH  35  36
ENDBRANCH  34  35
ENDBRANCH  32  34
ENDBRANCH  29  30
BRANCH  29  42
ATOM     42  C   UNL     1       9.968  -2.498  24.055  0.00  0.00    +0.060 C 
BRANCH  42  43
ATOM     43  C   UNL     1       9.205  -3.357  25.049  0.00  0.00    -0.046 A 
ATOM     44  C   UNL     1       8.382  -2.761  26.016  0.00  0.00    +0.004 A 
ATOM     45  C   UNL     1       7.638  -3.546  26.898  0.00  0.00    +0.000 A 
ATOM     46  C   UNL     1       7.720  -4.934  26.835  0.00  0.00    +0.000 A 
ATOM     47  C   UNL     1       8.550  -5.538  25.893  0.00  0.00    +0.000 A 
ATOM     48  C   UNL     1       9.290  -4.755  25.003  0.00  0.00    +0.004 A 
ENDBRANCH  42  43
ENDBRANCH  29  42
ENDBRANCH  26  29
ENDBRANCH  25  26
ENDBRANCH   1  25
BRANCH   1  49
ATOM     49  C   UNL     1      10.149   2.090  23.264  0.00  0.00    +0.057 C 
BRANCH  49  50
ATOM     50  C   UNL     1      10.486   3.533  23.573  0.00  0.00    -0.046 A 
ATOM     51  C   UNL     1      11.761   4.046  23.286  0.00  0.00    +0.004 A 
ATOM     52  C   UNL     1      12.071   5.381  23.554  0.00  0.00    +0.000 A 
ATOM     53  C   UNL     1      11.115   6.216  24.118  0.00  0.00    +0.000 A 
ATOM     54  C   UNL     1       9.851   5.718  24.423  0.00  0.00    +0.000 A 
ATOM     55  C   UNL     1       9.549   4.382  24.164  0.00  0.00    +0.004 A 
ENDBRANCH  49  50
ENDBRANCH   1  49
TORSDOF 19
ENDMDL
MODEL 6
REMARK VINA RESULT:      -5.7      2.417      4.815
REMARK  Name = 
REMARK  24 active torsions:
REMARK  status: ('A' for Active; 'I' for Inactive)
REMARK    1  A    between atoms: C_1  and  C_2
REMARK    2  A    between atoms: C_2  and  C_3
REMARK    3  A    between atoms: C_2  and  C_4
REMARK    4  A    between atoms: C_6  and  C_9
REMARK    5  A    between atoms: C_9  and  N_10
REMARK    6  A    between atoms: N_10  and  C_11
REMARK    7  A    between atoms: N_14  and  C_15
REMARK    8  A    between atoms: C_15  and  C_17
REMARK    9  A    between atoms: C_15  and  C_20
REMARK   10  A    between atoms: C_17  and  C_18
REMARK   11  A    between atoms: C_17  and  C_19
REMARK   12  A    between atoms: N_22  and  C_23
REMARK   13  A    between atoms: C_23  and  C_25
REMARK   14  A    between atoms: C_23  and  C_32
REMARK   15  A    between atoms: C_25  and  C_26
REMARK   16  A    between atoms: C_32  and  C_33
REMARK   17  A    between atoms: C_33  and  C_35
REMARK   18  A    between atoms: C_33  and  O_55
REMARK   19  A    between atoms: C_35  and  C_37
REMARK   20  A    between atoms: C_35  and  N_44
REMARK   21  A    between atoms: C_37  and  C_38
REMARK   22  A    between atoms: C_45  and  O_47
REMARK   23  A    between atoms: O_47  and  C_48
REMARK   24  A    between atoms: C_48  and  C_49
REMARK                            x       y       z     vdW  Elec       q    Type
REMARK                         _______ _______ _______ _____ _____    ______ ____
ROOT
ATOM      1  C   UNL     1       9.428  -1.932  24.507  0.00  0.00    +0.080 C 
ENDROOT
BRANCH   1   3
ATOM      2  C   UNL     1       7.944  -0.771  26.193  0.00  0.00    +0.234 C 
ATOM      3  N   UNL     1       8.229  -1.150  24.899  0.00  0.00    -0.311 N 
ATOM      4  H   UNL     1       7.674  -0.739  24.158  0.00  0.00    +0.149 HD
ATOM      5  O   UNL     1       8.641  -1.085  27.159  0.00  0.00    -0.274 OA
BRANCH   2   6
ATOM      6  C   UNL     1       6.708   0.137  26.405  0.00  0.00    +0.163 C 
BRANCH   6   9
ATOM      7  N   UNL     1       3.887  -1.935  27.733  0.00  0.00    -0.283 N 
ATOM      8  C   UNL     1       4.617  -1.243  26.773  0.00  0.00    +0.303 C 
ATOM      9  N   UNL     1       5.777  -0.671  27.217  0.00  0.00    -0.288 N 
ATOM     10  H   UNL     1       6.181  -1.013  28.076  0.00  0.00    +0.151 HD
ATOM     11  O   UNL     1       4.251  -1.116  25.610  0.00  0.00    -0.253 OA
ATOM     12  C   UNL     1       4.295  -2.084  29.125  0.00  0.00    +0.134 C 
BRANCH   7  13
ATOM     13  C   UNL     1       2.541  -2.409  27.394  0.00  0.00    +0.164 C 
BRANCH  13  17
ATOM     14  C   UNL     1       2.387  -5.573  25.573  0.00  0.00    +0.081 A 
ATOM     15  S   UNL     1       2.751  -6.411  27.037  0.00  0.00    -0.080 S 
ATOM     16  C   UNL     1       2.801  -4.921  27.875  0.00  0.00    +0.071 A 
ATOM     17  C   UNL     1       2.496  -3.873  27.027  0.00  0.00    +0.066 A 
ATOM     18  N   UNL     1       2.248  -4.265  25.704  0.00  0.00    -0.247 NA
BRANCH  14  20
ATOM     19  C   UNL     1       3.130  -5.692  23.164  0.00  0.00    +0.014 C 
ATOM     20  C   UNL     1       2.317  -6.353  24.276  0.00  0.00    +0.038 C 
ATOM     21  C   UNL     1       2.775  -7.798  24.485  0.00  0.00    +0.014 C 
ENDBRANCH  14  20
ENDBRANCH  13  17
ENDBRANCH   7  13
ENDBRANCH   6   9
BRANCH   6  22
ATOM     22  C   UNL     1       7.193   1.437  27.105  0.00  0.00    +0.012 C 
ATOM     23  C   UNL     1       6.673   1.588  28.544  0.00  0.00    +0.009 C 
ATOM     24  C   UNL     1       6.851   2.699  26.313  0.00  0.00    +0.009 C 
ENDBRANCH   6  22
ENDBRANCH   2   6
ENDBRANCH   1   3
BRANCH   1  25
ATOM     25  C   UNL     1      10.233  -1.117  23.452  0.00  0.00    +0.055 C 
BRANCH  25  26
ATOM     26  C   UNL     1       9.411  -0.343  22.396  0.00  0.00    +0.137 C 
BRANCH  26  27
ATOM     27  O   UNL     1       9.818  -0.840  21.110  0.00  0.00    -0.390 OA
ATOM     28  H   UNL     1       9.028  -0.890  20.544  0.00  0.00    +0.210 HD
ENDBRANCH  26  27
BRANCH  26  29
ATOM     29  C   UNL     1       9.667   1.202  22.426  0.00  0.00    +0.109 C 
BRANCH  29  30
ATOM     30  N   UNL     1       8.527   1.968  21.904  0.00  0.00    -0.275 N 
ATOM     31  H   UNL     1       8.709   2.726  21.262  0.00  0.00    +0.152 HD
ATOM     32  C   UNL     1       7.238   1.872  22.321  0.00  0.00    +0.401 C 
ATOM     33  O   UNL     1       6.800   1.052  23.112  0.00  0.00    -0.226 OA
BRANCH  32  34
ATOM     34  O   UNL     1       6.517   2.830  21.693  0.00  0.00    -0.449 OA
BRANCH  34  35
ATOM     35  C   UNL     1       6.580   4.161  22.235  0.00  0.00    +0.249 C 
BRANCH  35  36
ATOM     36  C   UNL     1       5.505   4.438  23.296  0.00  0.00    +0.099 C 
ATOM     37  S   UNL     1       5.557   6.169  23.874  0.00  0.00    -0.137 S 
ATOM     38  C   UNL     1       4.311   6.722  22.682  0.00  0.00    +0.151 C 
ATOM     39  N   UNL     1       3.929   5.578  21.860  0.00  0.00    -0.306 NA
ATOM     40  H   UNL     1       2.962   5.676  21.552  0.00  0.00    +0.123 HD
ATOM     41  C   UNL     1       4.103   4.373  22.678  0.00  0.00    +0.099 C 
ENDBRANCH  35  36
ENDBRANCH  34  35
ENDBRANCH  32  34
ENDBRANCH  29  30
BRANCH  29  42
ATOM     42  C   UNL     1      10.095   1.762  23.807  0.00  0.00    +0.060 C 
BRANCH  42  43
ATOM     43  C   UNL     1      10.423   3.245  23.758  0.00  0.00    -0.046 A 
ATOM     44  C   UNL     1       9.464   4.197  24.132  0.00  0.00    +0.004 A 
ATOM     45  C   UNL     1       9.775   5.557  24.138  0.00  0.00    +0.000 A 
ATOM     46  C   UNL     1      11.044   5.983  23.754  0.00  0.00    +0.000 A 
ATOM     47  C   UNL     1      12.000   5.050  23.359  0.00  0.00    +0.000 A 
ATOM     48  C   UNL     1      11.693   3.686  23.360  0.00  0.00    +0.004 A 
ENDBRANCH  42  43
ENDBRANCH  29  42
ENDBRANCH  26  29
ENDBRANCH  25  26
ENDBRANCH   1  25
BRANCH   1  49
ATOM     49  C   UNL     1       9.120  -3.398  24.076  0.00  0.00    +0.057 C 
BRANCH  49  50
ATOM     50  C   UNL     1       8.172  -4.170  24.967  0.00  0.00    -0.046 A 
ATOM     51  C   UNL     1       6.893  -4.528  24.511  0.00  0.00    +0.004 A 
ATOM     52  C   UNL     1       6.021  -5.255  25.324  0.00  0.00    +0.000 A 
ATOM     53  C   UNL     1       6.413  -5.627  26.603  0.00  0.00    +0.000 A 
ATOM     54  C   UNL     1       7.671  -5.267  27.077  0.00  0.00    +0.000 A 
ATOM     55  C   UNL     1       8.535  -4.531  26.266  0.00  0.00    +0.004 A 
ENDBRANCH  49  50
ENDBRANCH   1  49
TORSDOF 19
ENDMDL
MODEL 7
REMARK VINA RESULT:      -5.7      2.909      5.804
REMARK  Name = 
REMARK  24 active torsions:
REMARK  status: ('A' for Active; 'I' for Inactive)
REMARK    1  A    between atoms: C_1  and  C_2
REMARK    2  A    between atoms: C_2  and  C_3
REMARK    3  A    between atoms: C_2  and  C_4
REMARK    4  A    between atoms: C_6  and  C_9
REMARK    5  A    between atoms: C_9  and  N_10
REMARK    6  A    between atoms: N_10  and  C_11
REMARK    7  A    between atoms: N_14  and  C_15
REMARK    8  A    between atoms: C_15  and  C_17
REMARK    9  A    between atoms: C_15  and  C_20
REMARK   10  A    between atoms: C_17  and  C_18
REMARK   11  A    between atoms: C_17  and  C_19
REMARK   12  A    between atoms: N_22  and  C_23
REMARK   13  A    between atoms: C_23  and  C_25
REMARK   14  A    between atoms: C_23  and  C_32
REMARK   15  A    between atoms: C_25  and  C_26
REMARK   16  A    between atoms: C_32  and  C_33
REMARK   17  A    between atoms: C_33  and  C_35
REMARK   18  A    between atoms: C_33  and  O_55
REMARK   19  A    between atoms: C_35  and  C_37
REMARK   20  A    between atoms: C_35  and  N_44
REMARK   21  A    between atoms: C_37  and  C_38
REMARK   22  A    between atoms: C_45  and  O_47
REMARK   23  A    between atoms: O_47  and  C_48
REMARK   24  A    between atoms: C_48  and  C_49
REMARK                            x       y       z     vdW  Elec       q    Type
REMARK                         _______ _______ _______ _____ _____    ______ ____
ROOT
ATOM      1  C   UNL     1       7.563  -0.779  23.677  0.00  0.00    +0.080 C 
ENDROOT
BRANCH   1   3
ATOM      2  C   UNL     1       7.111   0.421  25.856  0.00  0.00    +0.234 C 
ATOM      3  N   UNL     1       6.731   0.048  24.585  0.00  0.00    -0.311 N 
ATOM      4  H   UNL     1       5.910   0.495  24.192  0.00  0.00    +0.149 HD
ATOM      5  O   UNL     1       8.167   0.061  26.378  0.00  0.00    -0.274 OA
BRANCH   2   6
ATOM      6  C   UNL     1       6.168   1.379  26.622  0.00  0.00    +0.163 C 
BRANCH   6   9
ATOM      7  N   UNL     1       3.891  -1.142  28.195  0.00  0.00    -0.283 N 
ATOM      8  C   UNL     1       4.523  -0.473  27.154  0.00  0.00    +0.303 C 
ATOM      9  N   UNL     1       5.398   0.508  27.532  0.00  0.00    -0.288 N 
ATOM     10  H   UNL     1       5.754   0.494  28.476  0.00  0.00    +0.151 HD
ATOM     11  O   UNL     1       4.307  -0.708  25.970  0.00  0.00    -0.253 OA
ATOM     12  C   UNL     1       4.120  -0.867  29.608  0.00  0.00    +0.134 C 
BRANCH   7  13
ATOM     13  C   UNL     1       2.797  -2.068  27.880  0.00  0.00    +0.164 C 
BRANCH  13  17
ATOM     14  C   UNL     1       3.888  -4.971  25.948  0.00  0.00    +0.081 A 
ATOM     15  S   UNL     1       4.344  -5.753  27.417  0.00  0.00    -0.080 S 
ATOM     16  C   UNL     1       3.812  -4.392  28.305  0.00  0.00    +0.071 A 
ATOM     17  C   UNL     1       3.275  -3.439  27.461  0.00  0.00    +0.066 A 
ATOM     18  N   UNL     1       3.315  -3.791  26.105  0.00  0.00    -0.247 NA
BRANCH  14  20
ATOM     19  C   UNL     1       3.897  -7.128  24.636  0.00  0.00    +0.014 C 
ATOM     20  C   UNL     1       4.220  -5.635  24.627  0.00  0.00    +0.038 C 
ATOM     21  C   UNL     1       3.496  -4.939  23.472  0.00  0.00    +0.014 C 
ENDBRANCH  14  20
ENDBRANCH  13  17
ENDBRANCH   7  13
ENDBRANCH   6   9
BRANCH   6  22
ATOM     22  C   UNL     1       7.051   2.431  27.348  0.00  0.00    +0.012 C 
ATOM     23  C   UNL     1       6.748   2.552  28.851  0.00  0.00    +0.009 C 
ATOM     24  C   UNL     1       6.972   3.815  26.706  0.00  0.00    +0.009 C 
ENDBRANCH   6  22
ENDBRANCH   2   6
ENDBRANCH   1   3
BRANCH   1  25
ATOM     25  C   UNL     1       8.658   0.125  23.038  0.00  0.00    +0.055 C 
BRANCH  25  26
ATOM     26  C   UNL     1       8.176   1.201  22.038  0.00  0.00    +0.137 C 
BRANCH  26  27
ATOM     27  O   UNL     1       9.019   1.096  20.879  0.00  0.00    -0.390 OA
ATOM     28  H   UNL     1       8.499   1.371  20.104  0.00  0.00    +0.210 HD
ENDBRANCH  26  27
BRANCH  26  29
ATOM     29  C   UNL     1       8.294   2.659  22.598  0.00  0.00    +0.109 C 
BRANCH  29  30
ATOM     30  N   UNL     1       6.982   3.303  22.761  0.00  0.00    -0.275 N 
ATOM     31  H   UNL     1       6.206   2.741  23.078  0.00  0.00    +0.152 HD
ATOM     32  C   UNL     1       6.653   4.562  22.371  0.00  0.00    +0.401 C 
ATOM     33  O   UNL     1       7.424   5.400  21.932  0.00  0.00    -0.226 OA
BRANCH  32  34
ATOM     34  O   UNL     1       5.326   4.734  22.573  0.00  0.00    -0.449 OA
BRANCH  34  35
ATOM     35  C   UNL     1       4.736   4.046  23.689  0.00  0.00    +0.249 C 
BRANCH  35  36
ATOM     36  C   UNL     1       3.384   3.400  23.360  0.00  0.00    +0.099 C 
ATOM     37  S   UNL     1       1.988   4.395  23.990  0.00  0.00    -0.137 S 
ATOM     38  C   UNL     1       1.774   5.287  22.429  0.00  0.00    +0.151 C 
ATOM     39  N   UNL     1       2.796   4.824  21.496  0.00  0.00    -0.306 NA
ATOM     40  H   UNL     1       2.452   4.888  20.540  0.00  0.00    +0.123 HD
ATOM     41  C   UNL     1       3.116   3.437  21.851  0.00  0.00    +0.099 C 
ENDBRANCH  35  36
ENDBRANCH  34  35
ENDBRANCH  32  34
ENDBRANCH  29  30
BRANCH  29  42
ATOM     42  C   UNL     1       9.115   2.788  23.907  0.00  0.00    +0.060 C 
BRANCH  42  43
ATOM     43  C   UNL     1      10.136   3.912  23.845  0.00  0.00    -0.046 A 
ATOM     44  C   UNL     1       9.822   5.185  24.342  0.00  0.00    +0.004 A 
ATOM     45  C   UNL     1      10.772   6.207  24.336  0.00  0.00    +0.000 A 
ATOM     46  C   UNL     1      12.042   5.973  23.816  0.00  0.00    +0.000 A 
ATOM     47  C   UNL     1      12.361   4.720  23.298  0.00  0.00    +0.000 A 
ATOM     48  C   UNL     1      11.414   3.692  23.312  0.00  0.00    +0.004 A 
ENDBRANCH  42  43
ENDBRANCH  29  42
ENDBRANCH  26  29
ENDBRANCH  25  26
ENDBRANCH   1  25
BRANCH   1  49
ATOM     49  C   UNL     1       6.743  -1.609  22.642  0.00  0.00    +0.057 C 
BRANCH  49  50
ATOM     50  C   UNL     1       6.978  -3.104  22.649  0.00  0.00    -0.046 A 
ATOM     51  C   UNL     1       7.703  -3.710  23.687  0.00  0.00    +0.004 A 
ATOM     52  C   UNL     1       7.907  -5.091  23.706  0.00  0.00    +0.000 A 
ATOM     53  C   UNL     1       7.397  -5.881  22.683  0.00  0.00    +0.000 A 
ATOM     54  C   UNL     1       6.691  -5.295  21.638  0.00  0.00    +0.000 A 
ATOM     55  C   UNL     1       6.498  -3.914  21.618  0.00  0.00    +0.004 A 
ENDBRANCH  49  50
ENDBRANCH   1  49
TORSDOF 19
ENDMDL
MODEL 8
REMARK VINA RESULT:      -5.5      2.623      7.982
REMARK  Name = 
REMARK  24 active torsions:
REMARK  status: ('A' for Active; 'I' for Inactive)
REMARK    1  A    between atoms: C_1  and  C_2
REMARK    2  A    between atoms: C_2  and  C_3
REMARK    3  A    between atoms: C_2  and  C_4
REMARK    4  A    between atoms: C_6  and  C_9
REMARK    5  A    between atoms: C_9  and  N_10
REMARK    6  A    between atoms: N_10  and  C_11
REMARK    7  A    between atoms: N_14  and  C_15
REMARK    8  A    between atoms: C_15  and  C_17
REMARK    9  A    between atoms: C_15  and  C_20
REMARK   10  A    between atoms: C_17  and  C_18
REMARK   11  A    between atoms: C_17  and  C_19
REMARK   12  A    between atoms: N_22  and  C_23
REMARK   13  A    between atoms: C_23  and  C_25
REMARK   14  A    between atoms: C_23  and  C_32
REMARK   15  A    between atoms: C_25  and  C_26
REMARK   16  A    between atoms: C_32  and  C_33
REMARK   17  A    between atoms: C_33  and  C_35
REMARK   18  A    between atoms: C_33  and  O_55
REMARK   19  A    between atoms: C_35  and  C_37
REMARK   20  A    between atoms: C_35  and  N_44
REMARK   21  A    between atoms: C_37  and  C_38
REMARK   22  A    between atoms: C_45  and  O_47
REMARK   23  A    between atoms: O_47  and  C_48
REMARK   24  A    between atoms: C_48  and  C_49
REMARK                            x       y       z     vdW  Elec       q    Type
REMARK                         _______ _______ _______ _____ _____    ______ ____
ROOT
ATOM      1  C   UNL     1       7.884   1.322  25.934  0.00  0.00    +0.080 C 
ENDROOT
BRANCH   1   3
ATOM      2  C   UNL     1       9.612   0.372  24.351  0.00  0.00    +0.234 C 
ATOM      3  N   UNL     1       8.324   0.775  24.626  0.00  0.00    -0.311 N 
ATOM      4  H   UNL     1       7.605   0.538  23.952  0.00  0.00    +0.149 HD
ATOM      5  O   UNL     1      10.538   0.470  25.158  0.00  0.00    -0.274 OA
BRANCH   2   6
ATOM      6  C   UNL     1       9.868  -0.279  22.970  0.00  0.00    +0.163 C 
BRANCH   6   9
ATOM      7  N   UNL     1       7.716  -3.343  22.975  0.00  0.00    -0.283 N 
ATOM      8  C   UNL     1       8.839  -2.575  23.264  0.00  0.00    +0.303 C 
ATOM      9  N   UNL     1       8.796  -1.282  22.819  0.00  0.00    -0.288 N 
ATOM     10  H   UNL     1       7.897  -0.884  22.593  0.00  0.00    +0.151 HD
ATOM     11  O   UNL     1       9.822  -3.011  23.851  0.00  0.00    -0.253 OA
ATOM     12  C   UNL     1       6.544  -2.849  22.264  0.00  0.00    +0.134 C 
BRANCH   7  13
ATOM     13  C   UNL     1       7.759  -4.786  23.241  0.00  0.00    +0.164 C 
BRANCH  13  17
ATOM     14  C   UNL     1       4.870  -6.284  24.903  0.00  0.00    +0.081 A 
ATOM     15  S   UNL     1       5.591  -5.930  26.431  0.00  0.00    -0.080 S 
ATOM     16  C   UNL     1       6.926  -5.217  25.635  0.00  0.00    +0.071 A 
ATOM     17  C   UNL     1       6.744  -5.236  24.265  0.00  0.00    +0.066 A 
ATOM     18  N   UNL     1       5.548  -5.845  23.857  0.00  0.00    -0.247 NA
BRANCH  14  20
ATOM     19  C   UNL     1       2.840  -7.053  26.191  0.00  0.00    +0.014 C 
ATOM     20  C   UNL     1       3.593  -7.097  24.862  0.00  0.00    +0.038 C 
ATOM     21  C   UNL     1       2.687  -6.631  23.720  0.00  0.00    +0.014 C 
ENDBRANCH  14  20
ENDBRANCH  13  17
ENDBRANCH   7  13
ENDBRANCH   6   9
BRANCH   6  22
ATOM     22  C   UNL     1       9.836   0.849  21.903  0.00  0.00    +0.012 C 
ATOM     23  C   UNL     1      10.413   2.183  22.404  0.00  0.00    +0.009 C 
ATOM     24  C   UNL     1       8.437   1.089  21.337  0.00  0.00    +0.009 C 
ENDBRANCH   6  22
ENDBRANCH   2   6
ENDBRANCH   1   3
BRANCH   1  25
ATOM     25  C   UNL     1       6.596   0.571  26.383  0.00  0.00    +0.055 C 
BRANCH  25  26
ATOM     26  C   UNL     1       5.835   1.158  27.594  0.00  0.00    +0.137 C 
BRANCH  26  27
ATOM     27  O   UNL     1       5.747   0.111  28.574  0.00  0.00    -0.390 OA
ATOM     28  H   UNL     1       6.638  -0.259  28.698  0.00  0.00    +0.210 HD
ENDBRANCH  26  27
BRANCH  26  29
ATOM     29  C   UNL     1       4.381   1.622  27.242  0.00  0.00    +0.109 C 
BRANCH  29  30
ATOM     30  N   UNL     1       3.368   0.629  27.629  0.00  0.00    -0.275 N 
ATOM     31  H   UNL     1       3.632  -0.103  28.273  0.00  0.00    +0.152 HD
ATOM     32  C   UNL     1       2.134   0.487  27.081  0.00  0.00    +0.401 C 
ATOM     33  O   UNL     1       1.623   1.235  26.262  0.00  0.00    -0.226 OA
BRANCH  32  34
ATOM     34  O   UNL     1       1.558  -0.616  27.613  0.00  0.00    -0.449 OA
BRANCH  34  35
ATOM     35  C   UNL     1       2.248  -1.258  28.699  0.00  0.00    +0.249 C 
BRANCH  35  36
ATOM     36  C   UNL     1       2.614  -2.720  28.408  0.00  0.00    +0.099 C 
ATOM     37  S   UNL     1       1.989  -3.263  26.781  0.00  0.00    -0.137 S 
ATOM     38  C   UNL     1       3.535  -2.861  25.928  0.00  0.00    +0.151 C 
ATOM     39  N   UNL     1       4.458  -2.291  26.904  0.00  0.00    -0.306 NA
ATOM     40  H   UNL     1       5.419  -2.504  26.642  0.00  0.00    +0.123 HD
ATOM     41  C   UNL     1       4.127  -2.871  28.210  0.00  0.00    +0.099 C 
ENDBRANCH  35  36
ENDBRANCH  34  35
ENDBRANCH  32  34
ENDBRANCH  29  30
BRANCH  29  42
ATOM     42  C   UNL     1       3.993   3.018  27.793  0.00  0.00    +0.060 C 
BRANCH  42  43
ATOM     43  C   UNL     1       4.213   4.127  26.777  0.00  0.00    -0.046 A 
ATOM     44  C   UNL     1       3.444   4.179  25.606  0.00  0.00    +0.004 A 
ATOM     45  C   UNL     1       3.605   5.223  24.694  0.00  0.00    +0.000 A 
ATOM     46  C   UNL     1       4.550   6.217  24.934  0.00  0.00    +0.000 A 
ATOM     47  C   UNL     1       5.336   6.166  26.083  0.00  0.00    +0.000 A 
ATOM     48  C   UNL     1       5.170   5.126  27.002  0.00  0.00    +0.004 A 
ENDBRANCH  42  43
ENDBRANCH  29  42
ENDBRANCH  26  29
ENDBRANCH  25  26
ENDBRANCH   1  25
BRANCH   1  49
ATOM     49  C   UNL     1       7.756   2.875  25.963  0.00  0.00    +0.057 C 
BRANCH  49  50
ATOM     50  C   UNL     1       7.510   3.550  24.632  0.00  0.00    -0.046 A 
ATOM     51  C   UNL     1       6.460   3.131  23.800  0.00  0.00    +0.004 A 
ATOM     52  C   UNL     1       6.219   3.762  22.579  0.00  0.00    +0.000 A 
ATOM     53  C   UNL     1       7.029   4.814  22.170  0.00  0.00    +0.000 A 
ATOM     54  C   UNL     1       8.084   5.232  22.975  0.00  0.00    +0.000 A 
ATOM     55  C   UNL     1       8.328   4.592  24.189  0.00  0.00    +0.004 A 
ENDBRANCH  49  50
ENDBRANCH   1  49
TORSDOF 19
ENDMDL
MODEL 9
REMARK VINA RESULT:      -5.4      2.718      5.532
REMARK  Name = 
REMARK  24 active torsions:
REMARK  status: ('A' for Active; 'I' for Inactive)
REMARK    1  A    between atoms: C_1  and  C_2
REMARK    2  A    between atoms: C_2  and  C_3
REMARK    3  A    between atoms: C_2  and  C_4
REMARK    4  A    between atoms: C_6  and  C_9
REMARK    5  A    between atoms: C_9  and  N_10
REMARK    6  A    between atoms: N_10  and  C_11
REMARK    7  A    between atoms: N_14  and  C_15
REMARK    8  A    between atoms: C_15  and  C_17
REMARK    9  A    between atoms: C_15  and  C_20
REMARK   10  A    between atoms: C_17  and  C_18
REMARK   11  A    between atoms: C_17  and  C_19
REMARK   12  A    between atoms: N_22  and  C_23
REMARK   13  A    between atoms: C_23  and  C_25
REMARK   14  A    between atoms: C_23  and  C_32
REMARK   15  A    between atoms: C_25  and  C_26
REMARK   16  A    between atoms: C_32  and  C_33
REMARK   17  A    between atoms: C_33  and  C_35
REMARK   18  A    between atoms: C_33  and  O_55
REMARK   19  A    between atoms: C_35  and  C_37
REMARK   20  A    between atoms: C_35  and  N_44
REMARK   21  A    between atoms: C_37  and  C_38
REMARK   22  A    between atoms: C_45  and  O_47
REMARK   23  A    between atoms: O_47  and  C_48
REMARK   24  A    between atoms: C_48  and  C_49
REMARK                            x       y       z     vdW  Elec       q    Type
REMARK                         _______ _______ _______ _____ _____    ______ ____
ROOT
ATOM      1  C   UNL     1       8.123  -1.355  23.891  0.00  0.00    +0.080 C 
ENDROOT
BRANCH   1   3
ATOM      2  C   UNL     1       6.308  -0.315  25.311  0.00  0.00    +0.234 C 
ATOM      3  N   UNL     1       7.425  -1.111  25.177  0.00  0.00    -0.311 N 
ATOM      4  H   UNL     1       7.687  -1.686  25.970  0.00  0.00    +0.149 HD
ATOM      5  O   UNL     1       5.807   0.310  24.374  0.00  0.00    -0.274 OA
BRANCH   2   6
ATOM      6  C   UNL     1       5.642  -0.262  26.707  0.00  0.00    +0.163 C 
BRANCH   6   9
ATOM      7  N   UNL     1       4.395  -3.675  27.609  0.00  0.00    -0.283 N 
ATOM      8  C   UNL     1       4.298  -2.357  27.177  0.00  0.00    +0.303 C 
ATOM      9  N   UNL     1       5.481  -1.675  27.104  0.00  0.00    -0.288 N 
ATOM     10  H   UNL     1       6.338  -2.206  27.068  0.00  0.00    +0.151 HD
ATOM     11  O   UNL     1       3.234  -1.814  26.903  0.00  0.00    -0.253 OA
ATOM     12  C   UNL     1       5.647  -4.336  27.956  0.00  0.00    +0.134 C 
BRANCH   7  13
ATOM     13  C   UNL     1       3.163  -4.416  27.904  0.00  0.00    +0.164 C 
BRANCH  13  17
ATOM     14  C   UNL     1       2.162  -5.915  24.726  0.00  0.00    +0.081 A 
ATOM     15  S   UNL     1       2.483  -7.478  25.384  0.00  0.00    -0.080 S 
ATOM     16  C   UNL     1       2.930  -6.758  26.870  0.00  0.00    +0.071 A 
ATOM     17  C   UNL     1       2.772  -5.386  26.814  0.00  0.00    +0.066 A 
ATOM     18  N   UNL     1       2.318  -4.915  25.575  0.00  0.00    -0.247 NA
BRANCH  14  20
ATOM     19  C   UNL     1       1.678  -7.158  22.583  0.00  0.00    +0.014 C 
ATOM     20  C   UNL     1       1.802  -5.794  23.259  0.00  0.00    +0.038 C 
ATOM     21  C   UNL     1       0.511  -4.991  23.080  0.00  0.00    +0.014 C 
ENDBRANCH  14  20
ENDBRANCH  13  17
ENDBRANCH   7  13
ENDBRANCH   6   9
BRANCH   6  22
ATOM     22  C   UNL     1       6.571   0.557  27.643  0.00  0.00    +0.012 C 
ATOM     23  C   UNL     1       5.989   0.770  29.051  0.00  0.00    +0.009 C 
ATOM     24  C   UNL     1       6.963   1.911  27.053  0.00  0.00    +0.009 C 
ENDBRANCH   6  22
ENDBRANCH   2   6
ENDBRANCH   1   3
BRANCH   1  25
ATOM     25  C   UNL     1       8.995  -0.111  23.551  0.00  0.00    +0.055 C 
BRANCH  25  26
ATOM     26  C   UNL     1       8.567   0.725  22.323  0.00  0.00    +0.137 C 
BRANCH  26  27
ATOM     27  O   UNL     1       9.710   0.796  21.453  0.00  0.00    -0.390 OA
ATOM     28  H   UNL     1      10.129  -0.081  21.437  0.00  0.00    +0.210 HD
ENDBRANCH  26  27
BRANCH  26  29
ATOM     29  C   UNL     1       8.140   2.186  22.690  0.00  0.00    +0.109 C 
BRANCH  29  30
ATOM     30  N   UNL     1       6.684   2.378  22.614  0.00  0.00    -0.275 N 
ATOM     31  H   UNL     1       6.088   1.564  22.655  0.00  0.00    +0.152 HD
ATOM     32  C   UNL     1       6.043   3.540  22.327  0.00  0.00    +0.401 C 
ATOM     33  O   UNL     1       6.567   4.636  22.203  0.00  0.00    -0.226 OA
BRANCH  32  34
ATOM     34  O   UNL     1       4.719   3.279  22.221  0.00  0.00    -0.449 OA
BRANCH  34  35
ATOM     35  C   UNL     1       3.938   3.343  23.427  0.00  0.00    +0.249 C 
BRANCH  35  36
ATOM     36  C   UNL     1       2.705   4.248  23.306  0.00  0.00    +0.099 C 
ATOM     37  S   UNL     1       2.861   5.745  24.341  0.00  0.00    -0.137 S 
ATOM     38  C   UNL     1       3.541   6.743  22.991  0.00  0.00    +0.151 C 
ATOM     39  N   UNL     1       3.662   5.891  21.812  0.00  0.00    -0.306 NA
ATOM     40  H   UNL     1       3.555   6.448  20.966  0.00  0.00    +0.123 HD
ATOM     41  C   UNL     1       2.618   4.864  21.904  0.00  0.00    +0.099 C 
ENDBRANCH  35  36
ENDBRANCH  34  35
ENDBRANCH  32  34
ENDBRANCH  29  30
BRANCH  29  42
ATOM     42  C   UNL     1       8.672   2.696  24.054  0.00  0.00    +0.060 C 
BRANCH  42  43
ATOM     43  C   UNL     1       9.752   3.752  23.899  0.00  0.00    -0.046 A 
ATOM     44  C   UNL     1      11.032   3.398  23.447  0.00  0.00    +0.004 A 
ATOM     45  C   UNL     1      12.013   4.371  23.252  0.00  0.00    +0.000 A 
ATOM     46  C   UNL     1      11.733   5.707  23.525  0.00  0.00    +0.000 A 
ATOM     47  C   UNL     1      10.473   6.070  23.996  0.00  0.00    +0.000 A 
ATOM     48  C   UNL     1       9.485   5.099  24.183  0.00  0.00    +0.004 A 
ENDBRANCH  42  43
ENDBRANCH  29  42
ENDBRANCH  26  29
ENDBRANCH  25  26
ENDBRANCH   1  25
BRANCH   1  49
ATOM     49  C   UNL     1       7.184  -1.806  22.732  0.00  0.00    +0.057 C 
BRANCH  49  50
ATOM     50  C   UNL     1       7.053  -3.299  22.520  0.00  0.00    -0.046 A 
ATOM     51  C   UNL     1       6.156  -3.811  21.570  0.00  0.00    +0.004 A 
ATOM     52  C   UNL     1       6.045  -5.187  21.360  0.00  0.00    +0.000 A 
ATOM     53  C   UNL     1       6.823  -6.067  22.102  0.00  0.00    +0.000 A 
ATOM     54  C   UNL     1       7.705  -5.577  23.059  0.00  0.00    +0.000 A 
ATOM     55  C   UNL     1       7.806  -4.203  23.273  0.00  0.00    +0.004 A 
ENDBRANCH  49  50
ENDBRANCH   1  49
TORSDOF 19
ENDMDL
