MODEL 1
REMARK VINA RESULT:      -6.5      0.000      0.000
REMARK  Name = 
REMARK  22 active torsions:
REMARK  status: ('A' for Active; 'I' for Inactive)
REMARK    1  A    between atoms: C_1  and  C_2
REMARK    2  A    between atoms: C_2  and  C_3
REMARK    3  A    between atoms: C_2  and  C_4
REMARK    4  A    between atoms: C_2  and  C_5
REMARK    5  A    between atoms: C_5  and  O_7
REMARK    6  A    between atoms: O_7  and  C_8
REMARK    7  A    between atoms: C_8  and  O_9
REMARK    8  A    between atoms: O_9  and  P_10
REMARK    9  A    between atoms: P_10  and  C_12
REMARK   10  A    between atoms: P_10  and  O_26
REMARK   11  A    between atoms: C_12  and  O_13
REMARK   12  A    between atoms: O_13  and  C_14
REMARK   13  A    between atoms: C_14  and  C_15
REMARK   14  A    between atoms: C_15  and  N_16
REMARK   15  A    between atoms: C_20  and  N_25
REMARK   16  A    between atoms: O_26  and  C_27
REMARK   17  A    between atoms: C_27  and  O_28
REMARK   18  A    between atoms: O_28  and  C_29
REMARK   19  A    between atoms: C_29  and  C_31
REMARK   20  A    between atoms: C_31  and  C_32
REMARK   21  A    between atoms: C_31  and  C_33
REMARK   22  A    between atoms: C_31  and  C_34
REMARK                            x       y       z     vdW  Elec       q    Type
REMARK                         _______ _______ _______ _____ _____    ______ ____
ROOT
ATOM      1  P   UNL     1       9.111  -2.356  23.360  0.00  0.00    +0.363 P 
ATOM      2  O   UNL     1      10.541  -2.009  22.908  0.00  0.00    -0.256 OA
ENDROOT
BRANCH   1   3
ATOM      3  O   UNL     1       9.707  -3.725  24.234  0.00  0.00    -0.268 OA
BRANCH   3   4
ATOM      4  C   UNL     1       8.691  -4.624  24.645  0.00  0.00    +0.407 C 
BRANCH   4   5
ATOM      5  O   UNL     1       7.509  -4.447  23.863  0.00  0.00    -0.437 OA
BRANCH   5   6
ATOM      6  C   UNL     1       7.338  -5.392  22.894  0.00  0.00    +0.314 C 
ATOM      7  O   UNL     1       8.154  -6.259  22.605  0.00  0.00    -0.250 OA
BRANCH   6   8
ATOM      8  C   UNL     1       6.003  -5.197  22.174  0.00  0.00    +0.059 C 
ATOM      9  C   UNL     1       6.099  -5.733  20.739  0.00  0.00    +0.022 C 
ATOM     10  C   UNL     1       5.669  -3.698  22.126  0.00  0.00    +0.022 C 
ATOM     11  C   UNL     1       4.902  -5.933  22.947  0.00  0.00    +0.022 C 
ENDBRANCH   6   8
ENDBRANCH   5   6
ENDBRANCH   4   5
ENDBRANCH   3   4
ENDBRANCH   1   3
BRANCH   1  12
ATOM     12  O   UNL     1       8.515  -0.986  22.486  0.00  0.00    -0.268 OA
BRANCH  12  13
ATOM     13  C   UNL     1       9.307  -0.404  21.469  0.00  0.00    +0.407 C 
BRANCH  13  14
ATOM     14  O   UNL     1      10.162   0.609  22.007  0.00  0.00    -0.437 OA
BRANCH  14  15
ATOM     15  C   UNL     1       9.520   1.763  22.337  0.00  0.00    +0.314 C 
ATOM     16  O   UNL     1       8.549   2.225  21.748  0.00  0.00    -0.250 OA
BRANCH  15  18
ATOM     17  C   UNL     1       8.971   2.783  24.556  0.00  0.00    +0.022 C 
ATOM     18  C   UNL     1      10.108   2.342  23.623  0.00  0.00    +0.059 C 
ATOM     19  C   UNL     1      10.927   1.237  24.308  0.00  0.00    +0.022 C 
ATOM     20  C   UNL     1      10.995   3.551  23.301  0.00  0.00    +0.022 C 
ENDBRANCH  15  18
ENDBRANCH  14  15
ENDBRANCH  13  14
ENDBRANCH  12  13
ENDBRANCH   1  12
BRANCH   1  21
ATOM     21  C   UNL     1       8.888  -1.555  25.111  0.00  0.00    +0.286 C 
BRANCH  21  22
ATOM     22  O   UNL     1       7.884  -0.551  24.988  0.00  0.00    -0.366 OA
BRANCH  22  23
ATOM     23  C   UNL     1       6.607  -1.065  25.370  0.00  0.00    +0.182 C 
BRANCH  23  24
ATOM     24  C   UNL     1       6.760  -2.065  26.502  0.00  0.00    +0.153 C 
BRANCH  24  25
ATOM     25  N   UNL     1       5.782  -3.136  26.431  0.00  0.00    -0.313 N 
ATOM     26  C   UNL     1       5.895  -4.366  27.017  0.00  0.00    +0.165 A 
ATOM     27  C   UNL     1       4.760  -5.051  26.622  0.00  0.00    +0.147 A 
ATOM     28  C   UNL     1       4.639  -6.376  27.077  0.00  0.00    +0.147 A 
ATOM     29  N   UNL     1       5.598  -6.872  27.893  0.00  0.00    -0.219 NA
ATOM     30  C   UNL     1       6.651  -6.080  28.196  0.00  0.00    +0.225 A 
ATOM     31  N   UNL     1       3.951  -4.253  25.835  0.00  0.00    -0.231 NA
ATOM     32  N   UNL     1       6.890  -4.818  27.798  0.00  0.00    -0.216 NA
ATOM     33  C   UNL     1       4.599  -3.110  25.742  0.00  0.00    +0.201 A 
BRANCH  28  34
ATOM     34  N   UNL     1       3.575  -7.203  26.742  0.00  0.00    -0.341 N 
ATOM     35  H   UNL     1       3.095  -7.555  27.559  0.00  0.00    +0.144 HD
ATOM     36  H   UNL     1       3.017  -6.849  25.974  0.00  0.00    +0.144 HD
ENDBRANCH  28  34
ENDBRANCH  24  25
ENDBRANCH  23  24
ENDBRANCH  22  23
ENDBRANCH  21  22
ENDBRANCH   1  21
TORSDOF 16
ENDMDL
MODEL 2
REMARK VINA RESULT:      -6.4      1.767      6.432
REMARK  Name = 
REMARK  22 active torsions:
REMARK  status: ('A' for Active; 'I' for Inactive)
REMARK    1  A    between atoms: C_1  and  C_2
REMARK    2  A    between atoms: C_2  and  C_3
REMARK    3  A    between atoms: C_2  and  C_4
REMARK    4  A    between atoms: C_2  and  C_5
REMARK    5  A    between atoms: C_5  and  O_7
REMARK    6  A    between atoms: O_7  and  C_8
REMARK    7  A    between atoms: C_8  and  O_9
REMARK    8  A    between atoms: O_9  and  P_10
REMARK    9  A    between atoms: P_10  and  C_12
REMARK   10  A    between atoms: P_10  and  O_26
REMARK   11  A    between atoms: C_12  and  O_13
REMARK   12  A    between atoms: O_13  and  C_14
REMARK   13  A    between atoms: C_14  and  C_15
REMARK   14  A    between atoms: C_15  and  N_16
REMARK   15  A    between atoms: C_20  and  N_25
REMARK   16  A    between atoms: O_26  and  C_27
REMARK   17  A    between atoms: C_27  and  O_28
REMARK   18  A    between atoms: O_28  and  C_29
REMARK   19  A    between atoms: C_29  and  C_31
REMARK   20  A    between atoms: C_31  and  C_32
REMARK   21  A    between atoms: C_31  and  C_33
REMARK   22  A    between atoms: C_31  and  C_34
REMARK                            x       y       z     vdW  Elec       q    Type
REMARK                         _______ _______ _______ _____ _____    ______ ____
ROOT
ATOM      1  P   UNL     1      10.159  -0.384  23.466  0.00  0.00    +0.363 P 
ATOM      2  O   UNL     1       9.879   0.538  22.267  0.00  0.00    -0.256 OA
ENDROOT
BRANCH   1   3
ATOM      3  O   UNL     1      10.643   0.979  24.416  0.00  0.00    -0.268 OA
BRANCH   3   4
ATOM      4  C   UNL     1      10.521   2.217  23.737  0.00  0.00    +0.407 C 
BRANCH   4   5
ATOM      5  O   UNL     1       9.606   3.080  24.412  0.00  0.00    -0.437 OA
BRANCH   5   6
ATOM      6  C   UNL     1       8.937   3.935  23.587  0.00  0.00    +0.314 C 
ATOM      7  O   UNL     1       8.248   3.597  22.632  0.00  0.00    -0.250 OA
BRANCH   6   8
ATOM      8  C   UNL     1       9.200   5.389  23.982  0.00  0.00    +0.059 C 
ATOM      9  C   UNL     1       8.821   5.608  25.453  0.00  0.00    +0.022 C 
ATOM     10  C   UNL     1       8.345   6.315  23.103  0.00  0.00    +0.022 C 
ATOM     11  C   UNL     1      10.683   5.711  23.759  0.00  0.00    +0.022 C 
ENDBRANCH   6   8
ENDBRANCH   5   6
ENDBRANCH   4   5
ENDBRANCH   3   4
ENDBRANCH   1   3
BRANCH   1  12
ATOM     12  O   UNL     1       9.675  -1.748  22.517  0.00  0.00    -0.268 OA
BRANCH  12  13
ATOM     13  C   UNL     1       8.318  -1.902  22.153  0.00  0.00    +0.407 C 
BRANCH  13  14
ATOM     14  O   UNL     1       7.939  -3.282  22.169  0.00  0.00    -0.437 OA
BRANCH  14  15
ATOM     15  C   UNL     1       6.600  -3.492  22.288  0.00  0.00    +0.314 C 
ATOM     16  O   UNL     1       5.739  -2.624  22.199  0.00  0.00    -0.250 OA
BRANCH  15  18
ATOM     17  C   UNL     1       7.418  -5.647  23.265  0.00  0.00    +0.022 C 
ATOM     18  C   UNL     1       6.313  -4.986  22.429  0.00  0.00    +0.059 C 
ATOM     19  C   UNL     1       4.967  -5.143  23.151  0.00  0.00    +0.022 C 
ATOM     20  C   UNL     1       6.263  -5.646  21.045  0.00  0.00    +0.022 C 
ENDBRANCH  15  18
ENDBRANCH  14  15
ENDBRANCH  13  14
ENDBRANCH  12  13
ENDBRANCH   1  12
BRANCH   1  21
ATOM     21  C   UNL     1       8.558  -0.355  24.557  0.00  0.00    +0.286 C 
BRANCH  21  22
ATOM     22  O   UNL     1       8.978  -0.287  25.918  0.00  0.00    -0.366 OA
BRANCH  22  23
ATOM     23  C   UNL     1       8.502  -1.417  26.650  0.00  0.00    +0.182 C 
BRANCH  23  24
ATOM     24  C   UNL     1       7.609  -2.275  25.772  0.00  0.00    +0.153 C 
BRANCH  24  25
ATOM     25  N   UNL     1       7.376  -3.592  26.338  0.00  0.00    -0.313 N 
ATOM     26  C   UNL     1       6.156  -4.133  26.633  0.00  0.00    +0.165 A 
ATOM     27  C   UNL     1       6.443  -5.363  27.200  0.00  0.00    +0.147 A 
ATOM     28  C   UNL     1       5.343  -6.128  27.624  0.00  0.00    +0.147 A 
ATOM     29  N   UNL     1       4.097  -5.645  27.414  0.00  0.00    -0.219 NA
ATOM     30  C   UNL     1       3.971  -4.426  26.844  0.00  0.00    +0.225 A 
ATOM     31  N   UNL     1       7.807  -5.587  27.227  0.00  0.00    -0.231 NA
ATOM     32  N   UNL     1       4.943  -3.594  26.429  0.00  0.00    -0.216 NA
ATOM     33  C   UNL     1       8.334  -4.500  26.700  0.00  0.00    +0.201 A 
BRANCH  28  34
ATOM     34  N   UNL     1       5.468  -7.368  28.239  0.00  0.00    -0.341 N 
ATOM     35  H   UNL     1       6.224  -7.912  27.846  0.00  0.00    +0.144 HD
ATOM     36  H   UNL     1       5.380  -7.327  29.247  0.00  0.00    +0.144 HD
ENDBRANCH  28  34
ENDBRANCH  24  25
ENDBRANCH  23  24
ENDBRANCH  22  23
ENDBRANCH  21  22
ENDBRANCH   1  21
TORSDOF 16
ENDMDL
MODEL 3
REMARK VINA RESULT:      -6.3      1.848      2.767
REMARK  Name = 
REMARK  22 active torsions:
REMARK  status: ('A' for Active; 'I' for Inactive)
REMARK    1  A    between atoms: C_1  and  C_2
REMARK    2  A    between atoms: C_2  and  C_3
REMARK    3  A    between atoms: C_2  and  C_4
REMARK    4  A    between atoms: C_2  and  C_5
REMARK    5  A    between atoms: C_5  and  O_7
REMARK    6  A    between atoms: O_7  and  C_8
REMARK    7  A    between atoms: C_8  and  O_9
REMARK    8  A    between atoms: O_9  and  P_10
REMARK    9  A    between atoms: P_10  and  C_12
REMARK   10  A    between atoms: P_10  and  O_26
REMARK   11  A    between atoms: C_12  and  O_13
REMARK   12  A    between atoms: O_13  and  C_14
REMARK   13  A    between atoms: C_14  and  C_15
REMARK   14  A    between atoms: C_15  and  N_16
REMARK   15  A    between atoms: C_20  and  N_25
REMARK   16  A    between atoms: O_26  and  C_27
REMARK   17  A    between atoms: C_27  and  O_28
REMARK   18  A    between atoms: O_28  and  C_29
REMARK   19  A    between atoms: C_29  and  C_31
REMARK   20  A    between atoms: C_31  and  C_32
REMARK   21  A    between atoms: C_31  and  C_33
REMARK   22  A    between atoms: C_31  and  C_34
REMARK                            x       y       z     vdW  Elec       q    Type
REMARK                         _______ _______ _______ _____ _____    ______ ____
ROOT
ATOM      1  P   UNL     1       9.186  -0.383  22.687  0.00  0.00    +0.363 P 
ATOM      2  O   UNL     1      10.499  -1.186  22.672  0.00  0.00    -0.256 OA
ENDROOT
BRANCH   1   3
ATOM      3  O   UNL     1       8.276  -1.852  22.770  0.00  0.00    -0.268 OA
BRANCH   3   4
ATOM      4  C   UNL     1       6.874  -1.657  22.689  0.00  0.00    +0.407 C 
BRANCH   4   5
ATOM      5  O   UNL     1       6.173  -2.811  23.153  0.00  0.00    -0.437 OA
BRANCH   5   6
ATOM      6  C   UNL     1       5.935  -3.743  22.185  0.00  0.00    +0.314 C 
ATOM      7  O   UNL     1       5.518  -3.497  21.060  0.00  0.00    -0.250 OA
BRANCH   6   8
ATOM      8  C   UNL     1       6.214  -5.153  22.707  0.00  0.00    +0.059 C 
ATOM      9  C   UNL     1       5.217  -5.505  23.820  0.00  0.00    +0.022 C 
ATOM     10  C   UNL     1       7.640  -5.208  23.279  0.00  0.00    +0.022 C 
ATOM     11  C   UNL     1       6.097  -6.152  21.550  0.00  0.00    +0.022 C 
ENDBRANCH   6   8
ENDBRANCH   5   6
ENDBRANCH   4   5
ENDBRANCH   3   4
ENDBRANCH   1   3
BRANCH   1  12
ATOM     12  O   UNL     1      10.097   1.087  22.604  0.00  0.00    -0.268 OA
BRANCH  12  13
ATOM     13  C   UNL     1      10.214   1.905  23.751  0.00  0.00    +0.407 C 
BRANCH  13  14
ATOM     14  O   UNL     1      10.115   3.289  23.403  0.00  0.00    -0.437 OA
BRANCH  14  15
ATOM     15  C   UNL     1       9.335   4.021  24.243  0.00  0.00    +0.314 C 
ATOM     16  O   UNL     1       8.548   3.557  25.060  0.00  0.00    -0.250 OA
BRANCH  15  18
ATOM     17  C   UNL     1       9.490   6.200  25.466  0.00  0.00    +0.022 C 
ATOM     18  C   UNL     1       9.666   5.506  24.107  0.00  0.00    +0.059 C 
ATOM     19  C   UNL     1      11.132   5.625  23.663  0.00  0.00    +0.022 C 
ATOM     20  C   UNL     1       8.735   6.163  23.080  0.00  0.00    +0.022 C 
ENDBRANCH  15  18
ENDBRANCH  14  15
ENDBRANCH  13  14
ENDBRANCH  12  13
ENDBRANCH   1  12
BRANCH   1  21
ATOM     21  C   UNL     1       8.697  -0.179  24.551  0.00  0.00    +0.286 C 
BRANCH  21  22
ATOM     22  O   UNL     1       9.330  -1.235  25.269  0.00  0.00    -0.366 OA
BRANCH  22  23
ATOM     23  C   UNL     1       8.667  -1.469  26.512  0.00  0.00    +0.182 C 
BRANCH  23  24
ATOM     24  C   UNL     1       7.277  -2.030  26.271  0.00  0.00    +0.153 C 
BRANCH  24  25
ATOM     25  N   UNL     1       7.156  -3.412  26.697  0.00  0.00    -0.313 N 
ATOM     26  C   UNL     1       6.015  -4.016  27.147  0.00  0.00    +0.165 A 
ATOM     27  C   UNL     1       6.405  -5.300  27.486  0.00  0.00    +0.147 A 
ATOM     28  C   UNL     1       5.406  -6.139  28.009  0.00  0.00    +0.147 A 
ATOM     29  N   UNL     1       4.143  -5.663  28.104  0.00  0.00    -0.219 NA
ATOM     30  C   UNL     1       3.911  -4.385  27.729  0.00  0.00    +0.225 A 
ATOM     31  N   UNL     1       7.749  -5.493  27.224  0.00  0.00    -0.231 NA
ATOM     32  N   UNL     1       4.786  -3.484  27.248  0.00  0.00    -0.216 NA
ATOM     33  C   UNL     1       8.165  -4.336  26.751  0.00  0.00    +0.201 A 
BRANCH  28  34
ATOM     34  N   UNL     1       5.646  -7.443  28.425  0.00  0.00    -0.341 N 
ATOM     35  H   UNL     1       6.439  -7.853  27.950  0.00  0.00    +0.144 HD
ATOM     36  H   UNL     1       5.573  -7.565  29.428  0.00  0.00    +0.144 HD
ENDBRANCH  28  34
ENDBRANCH  24  25
ENDBRANCH  23  24
ENDBRANCH  22  23
ENDBRANCH  21  22
ENDBRANCH   1  21
TORSDOF 16
ENDMDL
MODEL 4
REMARK VINA RESULT:      -6.3      2.055      4.009
REMARK  Name = 
REMARK  22 active torsions:
REMARK  status: ('A' for Active; 'I' for Inactive)
REMARK    1  A    between atoms: C_1  and  C_2
REMARK    2  A    between atoms: C_2  and  C_3
REMARK    3  A    between atoms: C_2  and  C_4
REMARK    4  A    between atoms: C_2  and  C_5
REMARK    5  A    between atoms: C_5  and  O_7
REMARK    6  A    between atoms: O_7  and  C_8
REMARK    7  A    between atoms: C_8  and  O_9
REMARK    8  A    between atoms: O_9  and  P_10
REMARK    9  A    between atoms: P_10  and  C_12
REMARK   10  A    between atoms: P_10  and  O_26
REMARK   11  A    between atoms: C_12  and  O_13
REMARK   12  A    between atoms: O_13  and  C_14
REMARK   13  A    between atoms: C_14  and  C_15
REMARK   14  A    between atoms: C_15  and  N_16
REMARK   15  A    between atoms: C_20  and  N_25
REMARK   16  A    between atoms: O_26  and  C_27
REMARK   17  A    between atoms: C_27  and  O_28
REMARK   18  A    between atoms: O_28  and  C_29
REMARK   19  A    between atoms: C_29  and  C_31
REMARK   20  A    between atoms: C_31  and  C_32
REMARK   21  A    between atoms: C_31  and  C_33
REMARK   22  A    between atoms: C_31  and  C_34
REMARK                            x       y       z     vdW  Elec       q    Type
REMARK                         _______ _______ _______ _____ _____    ______ ____
ROOT
ATOM      1  P   UNL     1       8.917  -4.002  24.773  0.00  0.00    +0.363 P 
ATOM      2  O   UNL     1      10.134  -4.821  25.237  0.00  0.00    -0.256 OA
ENDROOT
BRANCH   1   3
ATOM      3  O   UNL     1       7.849  -5.173  25.466  0.00  0.00    -0.268 OA
BRANCH   3   4
ATOM      4  C   UNL     1       7.381  -4.823  26.757  0.00  0.00    +0.407 C 
BRANCH   4   5
ATOM      5  O   UNL     1       7.102  -5.990  27.532  0.00  0.00    -0.437 OA
BRANCH   5   6
ATOM      6  C   UNL     1       5.790  -6.363  27.521  0.00  0.00    +0.314 C 
ATOM      7  O   UNL     1       5.197  -6.820  26.552  0.00  0.00    -0.250 OA
BRANCH   6   8
ATOM      8  C   UNL     1       5.136  -6.086  28.875  0.00  0.00    +0.059 C 
ATOM      9  C   UNL     1       6.135  -6.368  30.007  0.00  0.00    +0.022 C 
ATOM     10  C   UNL     1       3.917  -7.007  29.046  0.00  0.00    +0.022 C 
ATOM     11  C   UNL     1       4.673  -4.625  28.923  0.00  0.00    +0.022 C 
ENDBRANCH   6   8
ENDBRANCH   5   6
ENDBRANCH   4   5
ENDBRANCH   3   4
ENDBRANCH   1   3
BRANCH   1  12
ATOM     12  O   UNL     1       9.985  -2.830  24.079  0.00  0.00    -0.268 OA
BRANCH  12  13
ATOM     13  C   UNL     1       9.653  -2.222  22.846  0.00  0.00    +0.407 C 
BRANCH  13  14
ATOM     14  O   UNL     1      10.170  -0.890  22.779  0.00  0.00    -0.437 OA
BRANCH  14  15
ATOM     15  C   UNL     1       9.238   0.082  22.976  0.00  0.00    +0.314 C 
ATOM     16  O   UNL     1       8.062   0.011  22.637  0.00  0.00    -0.250 OA
BRANCH  15  18
ATOM     17  C   UNL     1       8.779   1.783  24.754  0.00  0.00    +0.022 C 
ATOM     18  C   UNL     1       9.837   1.228  23.789  0.00  0.00    +0.059 C 
ATOM     19  C   UNL     1      11.018   0.670  24.596  0.00  0.00    +0.022 C 
ATOM     20  C   UNL     1      10.304   2.350  22.853  0.00  0.00    +0.022 C 
ENDBRANCH  15  18
ENDBRANCH  14  15
ENDBRANCH  13  14
ENDBRANCH  12  13
ENDBRANCH   1  12
BRANCH   1  21
ATOM     21  C   UNL     1       8.401  -2.897  26.279  0.00  0.00    +0.286 C 
BRANCH  21  22
ATOM     22  O   UNL     1       8.108  -1.600  25.767  0.00  0.00    -0.366 OA
BRANCH  22  23
ATOM     23  C   UNL     1       6.861  -1.125  26.278  0.00  0.00    +0.182 C 
BRANCH  23  24
ATOM     24  C   UNL     1       5.834  -1.039  25.163  0.00  0.00    +0.153 C 
BRANCH  24  25
ATOM     25  N   UNL     1       5.198  -2.317  24.896  0.00  0.00    -0.313 N 
ATOM     26  C   UNL     1       5.356  -3.070  23.767  0.00  0.00    +0.165 A 
ATOM     27  C   UNL     1       4.514  -4.155  23.945  0.00  0.00    +0.147 A 
ATOM     28  C   UNL     1       4.467  -5.090  22.896  0.00  0.00    +0.147 A 
ATOM     29  N   UNL     1       5.265  -4.898  21.821  0.00  0.00    -0.219 NA
ATOM     30  C   UNL     1       6.040  -3.791  21.788  0.00  0.00    +0.225 A 
ATOM     31  N   UNL     1       3.875  -4.086  25.169  0.00  0.00    -0.231 NA
ATOM     32  N   UNL     1       6.144  -2.817  22.710  0.00  0.00    -0.216 NA
ATOM     33  C   UNL     1       4.312  -2.967  25.711  0.00  0.00    +0.201 A 
BRANCH  28  34
ATOM     34  N   UNL     1       3.650  -6.212  22.912  0.00  0.00    -0.341 N 
ATOM     35  H   UNL     1       3.278  -6.399  23.834  0.00  0.00    +0.144 HD
ATOM     36  H   UNL     1       3.018  -6.261  22.122  0.00  0.00    +0.144 HD
ENDBRANCH  28  34
ENDBRANCH  24  25
ENDBRANCH  23  24
ENDBRANCH  22  23
ENDBRANCH  21  22
ENDBRANCH   1  21
TORSDOF 16
ENDMDL
MODEL 5
REMARK VINA RESULT:      -6.3      2.003      6.578
REMARK  Name = 
REMARK  22 active torsions:
REMARK  status: ('A' for Active; 'I' for Inactive)
REMARK    1  A    between atoms: C_1  and  C_2
REMARK    2  A    between atoms: C_2  and  C_3
REMARK    3  A    between atoms: C_2  and  C_4
REMARK    4  A    between atoms: C_2  and  C_5
REMARK    5  A    between atoms: C_5  and  O_7
REMARK    6  A    between atoms: O_7  and  C_8
REMARK    7  A    between atoms: C_8  and  O_9
REMARK    8  A    between atoms: O_9  and  P_10
REMARK    9  A    between atoms: P_10  and  C_12
REMARK   10  A    between atoms: P_10  and  O_26
REMARK   11  A    between atoms: C_12  and  O_13
REMARK   12  A    between atoms: O_13  and  C_14
REMARK   13  A    between atoms: C_14  and  C_15
REMARK   14  A    between atoms: C_15  and  N_16
REMARK   15  A    between atoms: C_20  and  N_25
REMARK   16  A    between atoms: O_26  and  C_27
REMARK   17  A    between atoms: C_27  and  O_28
REMARK   18  A    between atoms: O_28  and  C_29
REMARK   19  A    between atoms: C_29  and  C_31
REMARK   20  A    between atoms: C_31  and  C_32
REMARK   21  A    between atoms: C_31  and  C_33
REMARK   22  A    between atoms: C_31  and  C_34
REMARK                            x       y       z     vdW  Elec       q    Type
REMARK                         _______ _______ _______ _____ _____    ______ ____
ROOT
ATOM      1  P   UNL     1       7.003  -3.700  22.282  0.00  0.00    +0.363 P 
ATOM      2  O   UNL     1       6.039  -2.875  23.153  0.00  0.00    -0.256 OA
ENDROOT
BRANCH   1   3
ATOM      3  O   UNL     1       8.348  -2.815  22.914  0.00  0.00    -0.268 OA
BRANCH   3   4
ATOM      4  C   UNL     1       8.420  -1.478  22.448  0.00  0.00    +0.407 C 
BRANCH   4   5
ATOM      5  O   UNL     1       9.568  -0.816  22.978  0.00  0.00    -0.437 OA
BRANCH   5   6
ATOM      6  C   UNL     1       9.645   0.507  22.654  0.00  0.00    +0.314 C 
ATOM      7  O   UNL     1       9.504   0.964  21.526  0.00  0.00    -0.250 OA
BRANCH   6   8
ATOM      8  C   UNL     1       9.982   1.350  23.885  0.00  0.00    +0.059 C 
ATOM      9  C   UNL     1      10.901   0.558  24.825  0.00  0.00    +0.022 C 
ATOM     10  C   UNL     1       8.684   1.698  24.630  0.00  0.00    +0.022 C 
ATOM     11  C   UNL     1      10.667   2.647  23.435  0.00  0.00    +0.022 C 
ENDBRANCH   6   8
ENDBRANCH   5   6
ENDBRANCH   4   5
ENDBRANCH   3   4
ENDBRANCH   1   3
BRANCH   1  12
ATOM     12  O   UNL     1       5.656  -4.585  21.650  0.00  0.00    -0.268 OA
BRANCH  12  13
ATOM     13  C   UNL     1       5.255  -5.790  22.272  0.00  0.00    +0.407 C 
BRANCH  13  14
ATOM     14  O   UNL     1       3.871  -5.741  22.632  0.00  0.00    -0.437 OA
BRANCH  14  15
ATOM     15  C   UNL     1       3.574  -6.383  23.795  0.00  0.00    +0.314 C 
ATOM     16  O   UNL     1       4.152  -7.377  24.220  0.00  0.00    -0.250 OA
BRANCH  15  18
ATOM     17  C   UNL     1       2.973  -4.183  24.827  0.00  0.00    +0.022 C 
ATOM     18  C   UNL     1       2.494  -5.617  24.557  0.00  0.00    +0.059 C 
ATOM     19  C   UNL     1       1.235  -5.574  23.678  0.00  0.00    +0.022 C 
ATOM     20  C   UNL     1       2.198  -6.311  25.892  0.00  0.00    +0.022 C 
ENDBRANCH  15  18
ENDBRANCH  14  15
ENDBRANCH  13  14
ENDBRANCH  12  13
ENDBRANCH   1  12
BRANCH   1  21
ATOM     21  C   UNL     1       7.647  -5.142  23.405  0.00  0.00    +0.286 C 
BRANCH  21  22
ATOM     22  O   UNL     1       8.815  -4.667  24.069  0.00  0.00    -0.366 OA
BRANCH  22  23
ATOM     23  C   UNL     1       9.064  -5.422  25.256  0.00  0.00    +0.182 C 
BRANCH  23  24
ATOM     24  C   UNL     1       9.059  -4.511  26.470  0.00  0.00    +0.153 C 
BRANCH  24  25
ATOM     25  N   UNL     1       7.721  -4.089  26.841  0.00  0.00    -0.313 N 
ATOM     26  C   UNL     1       6.818  -4.823  27.559  0.00  0.00    +0.165 A 
ATOM     27  C   UNL     1       5.680  -4.036  27.606  0.00  0.00    +0.147 A 
ATOM     28  C   UNL     1       4.572  -4.580  28.278  0.00  0.00    +0.147 A 
ATOM     29  N   UNL     1       4.699  -5.792  28.864  0.00  0.00    -0.219 NA
ATOM     30  C   UNL     1       5.876  -6.444  28.736  0.00  0.00    +0.225 A 
ATOM     31  N   UNL     1       5.886  -2.833  26.957  0.00  0.00    -0.231 NA
ATOM     32  N   UNL     1       6.988  -6.042  28.095  0.00  0.00    -0.216 NA
ATOM     33  C   UNL     1       7.124  -2.902  26.511  0.00  0.00    +0.201 A 
BRANCH  28  34
ATOM     34  N   UNL     1       3.350  -3.927  28.384  0.00  0.00    -0.341 N 
ATOM     35  H   UNL     1       3.314  -3.094  27.813  0.00  0.00    +0.144 HD
ATOM     36  H   UNL     1       2.555  -4.555  28.366  0.00  0.00    +0.144 HD
ENDBRANCH  28  34
ENDBRANCH  24  25
ENDBRANCH  23  24
ENDBRANCH  22  23
ENDBRANCH  21  22
ENDBRANCH   1  21
TORSDOF 16
ENDMDL
MODEL 6
REMARK VINA RESULT:      -6.3      2.549      4.459
REMARK  Name = 
REMARK  22 active torsions:
REMARK  status: ('A' for Active; 'I' for Inactive)
REMARK    1  A    between atoms: C_1  and  C_2
REMARK    2  A    between atoms: C_2  and  C_3
REMARK    3  A    between atoms: C_2  and  C_4
REMARK    4  A    between atoms: C_2  and  C_5
REMARK    5  A    between atoms: C_5  and  O_7
REMARK    6  A    between atoms: O_7  and  C_8
REMARK    7  A    between atoms: C_8  and  O_9
REMARK    8  A    between atoms: O_9  and  P_10
REMARK    9  A    between atoms: P_10  and  C_12
REMARK   10  A    between atoms: P_10  and  O_26
REMARK   11  A    between atoms: C_12  and  O_13
REMARK   12  A    between atoms: O_13  and  C_14
REMARK   13  A    between atoms: C_14  and  C_15
REMARK   14  A    between atoms: C_15  and  N_16
REMARK   15  A    between atoms: C_20  and  N_25
REMARK   16  A    between atoms: O_26  and  C_27
REMARK   17  A    between atoms: C_27  and  O_28
REMARK   18  A    between atoms: O_28  and  C_29
REMARK   19  A    between atoms: C_29  and  C_31
REMARK   20  A    between atoms: C_31  and  C_32
REMARK   21  A    between atoms: C_31  and  C_33
REMARK   22  A    between atoms: C_31  and  C_34
REMARK                            x       y       z     vdW  Elec       q    Type
REMARK                         _______ _______ _______ _____ _____    ______ ____
ROOT
ATOM      1  P   UNL     1       8.741  -4.384  25.397  0.00  0.00    +0.363 P 
ATOM      2  O   UNL     1      10.190  -4.893  25.478  0.00  0.00    -0.256 OA
ENDROOT
BRANCH   1   3
ATOM      3  O   UNL     1       8.397  -5.081  26.942  0.00  0.00    -0.268 OA
BRANCH   3   4
ATOM      4  C   UNL     1       7.095  -5.634  27.040  0.00  0.00    +0.407 C 
BRANCH   4   5
ATOM      5  O   UNL     1       6.468  -5.245  28.262  0.00  0.00    -0.437 OA
BRANCH   5   6
ATOM      6  C   UNL     1       5.867  -6.272  28.929  0.00  0.00    +0.314 C 
ATOM      7  O   UNL     1       6.420  -7.313  29.262  0.00  0.00    -0.250 OA
BRANCH   6   8
ATOM      8  C   UNL     1       4.386  -5.973  29.166  0.00  0.00    +0.059 C 
ATOM      9  C   UNL     1       4.167  -4.457  29.265  0.00  0.00    +0.022 C 
ATOM     10  C   UNL     1       3.942  -6.628  30.483  0.00  0.00    +0.022 C 
ATOM     11  C   UNL     1       3.563  -6.557  28.011  0.00  0.00    +0.022 C 
ENDBRANCH   6   8
ENDBRANCH   5   6
ENDBRANCH   4   5
ENDBRANCH   3   4
ENDBRANCH   1   3
BRANCH   1  12
ATOM     12  O   UNL     1       9.084  -3.685  23.850  0.00  0.00    -0.268 OA
BRANCH  12  13
ATOM     13  C   UNL     1      10.048  -2.656  23.745  0.00  0.00    +0.407 C 
BRANCH  13  14
ATOM     14  O   UNL     1       9.557  -1.579  22.942  0.00  0.00    -0.437 OA
BRANCH  14  15
ATOM     15  C   UNL     1       9.826  -0.342  23.441  0.00  0.00    +0.314 C 
ATOM     16  O   UNL     1      10.495  -0.116  24.443  0.00  0.00    -0.250 OA
BRANCH  15  18
ATOM     17  C   UNL     1      10.259   1.910  22.439  0.00  0.00    +0.022 C 
ATOM     18  C   UNL     1       9.275   0.734  22.507  0.00  0.00    +0.059 C 
ATOM     19  C   UNL     1       9.125   0.115  21.109  0.00  0.00    +0.022 C 
ATOM     20  C   UNL     1       7.921   1.237  23.023  0.00  0.00    +0.022 C 
ENDBRANCH  15  18
ENDBRANCH  14  15
ENDBRANCH  13  14
ENDBRANCH  12  13
ENDBRANCH   1  12
BRANCH   1  21
ATOM     21  C   UNL     1       8.706  -2.694  26.346  0.00  0.00    +0.286 C 
BRANCH  21  22
ATOM     22  O   UNL     1       7.339  -2.321  26.487  0.00  0.00    -0.366 OA
BRANCH  22  23
ATOM     23  C   UNL     1       7.018  -1.239  25.611  0.00  0.00    +0.182 C 
BRANCH  23  24
ATOM     24  C   UNL     1       5.671  -1.477  24.952  0.00  0.00    +0.153 C 
BRANCH  24  25
ATOM     25  N   UNL     1       5.749  -2.430  23.861  0.00  0.00    -0.313 N 
ATOM     26  C   UNL     1       5.301  -3.721  23.890  0.00  0.00    +0.165 A 
ATOM     27  C   UNL     1       5.646  -4.244  22.655  0.00  0.00    +0.147 A 
ATOM     28  C   UNL     1       5.314  -5.591  22.432  0.00  0.00    +0.147 A 
ATOM     29  N   UNL     1       4.652  -6.265  23.399  0.00  0.00    -0.219 NA
ATOM     30  C   UNL     1       4.379  -5.621  24.556  0.00  0.00    +0.225 A 
ATOM     31  N   UNL     1       6.266  -3.288  21.872  0.00  0.00    -0.231 NA
ATOM     32  N   UNL     1       4.672  -4.353  24.895  0.00  0.00    -0.216 NA
ATOM     33  C   UNL     1       6.310  -2.212  22.631  0.00  0.00    +0.201 A 
BRANCH  28  34
ATOM     34  N   UNL     1       5.621  -6.266  21.257  0.00  0.00    -0.341 N 
ATOM     35  H   UNL     1       6.309  -6.992  21.405  0.00  0.00    +0.144 HD
ATOM     36  H   UNL     1       4.807  -6.485  20.695  0.00  0.00    +0.144 HD
ENDBRANCH  28  34
ENDBRANCH  24  25
ENDBRANCH  23  24
ENDBRANCH  22  23
ENDBRANCH  21  22
ENDBRANCH   1  21
TORSDOF 16
ENDMDL
MODEL 7
REMARK VINA RESULT:      -6.2      2.465      5.674
REMARK  Name = 
REMARK  22 active torsions:
REMARK  status: ('A' for Active; 'I' for Inactive)
REMARK    1  A    between atoms: C_1  and  C_2
REMARK    2  A    between atoms: C_2  and  C_3
REMARK    3  A    between atoms: C_2  and  C_4
REMARK    4  A    between atoms: C_2  and  C_5
REMARK    5  A    between atoms: C_5  and  O_7
REMARK    6  A    between atoms: O_7  and  C_8
REMARK    7  A    between atoms: C_8  and  O_9
REMARK    8  A    between atoms: O_9  and  P_10
REMARK    9  A    between atoms: P_10  and  C_12
REMARK   10  A    between atoms: P_10  and  O_26
REMARK   11  A    between atoms: C_12  and  O_13
REMARK   12  A    between atoms: O_13  and  C_14
REMARK   13  A    between atoms: C_14  and  C_15
REMARK   14  A    between atoms: C_15  and  N_16
REMARK   15  A    between atoms: C_20  and  N_25
REMARK   16  A    between atoms: O_26  and  C_27
REMARK   17  A    between atoms: C_27  and  O_28
REMARK   18  A    between atoms: O_28  and  C_29
REMARK   19  A    between atoms: C_29  and  C_31
REMARK   20  A    between atoms: C_31  and  C_32
REMARK   21  A    between atoms: C_31  and  C_33
REMARK   22  A    between atoms: C_31  and  C_34
REMARK                            x       y       z     vdW  Elec       q    Type
REMARK                         _______ _______ _______ _____ _____    ______ ____
ROOT
ATOM      1  P   UNL     1       5.942  -0.772  25.945  0.00  0.00    +0.363 P 
ATOM      2  O   UNL     1       5.715  -1.461  24.588  0.00  0.00    -0.256 OA
ENDROOT
BRANCH   1   3
ATOM      3  O   UNL     1       4.678   0.356  25.597  0.00  0.00    -0.268 OA
BRANCH   3   4
ATOM      4  C   UNL     1       5.129   1.693  25.461  0.00  0.00    +0.407 C 
BRANCH   4   5
ATOM      5  O   UNL     1       6.067   1.806  24.390  0.00  0.00    -0.437 OA
BRANCH   5   6
ATOM      6  C   UNL     1       7.132   2.611  24.667  0.00  0.00    +0.314 C 
ATOM      7  O   UNL     1       7.865   2.496  25.642  0.00  0.00    -0.250 OA
BRANCH   6   8
ATOM      8  C   UNL     1       7.266   3.716  23.619  0.00  0.00    +0.059 C 
ATOM      9  C   UNL     1       6.893   3.172  22.233  0.00  0.00    +0.022 C 
ATOM     10  C   UNL     1       8.721   4.209  23.587  0.00  0.00    +0.022 C 
ATOM     11  C   UNL     1       6.348   4.885  23.999  0.00  0.00    +0.022 C 
ENDBRANCH   6   8
ENDBRANCH   5   6
ENDBRANCH   4   5
ENDBRANCH   3   4
ENDBRANCH   1   3
BRANCH   1  12
ATOM     12  O   UNL     1       7.207  -1.901  26.293  0.00  0.00    -0.268 OA
BRANCH  12  13
ATOM     13  C   UNL     1       8.556  -1.479  26.246  0.00  0.00    +0.407 C 
BRANCH  13  14
ATOM     14  O   UNL     1       9.071  -1.565  24.914  0.00  0.00    -0.437 OA
BRANCH  14  15
ATOM     15  C   UNL     1       9.691  -0.434  24.481  0.00  0.00    +0.314 C 
ATOM     16  O   UNL     1      10.341   0.329  25.186  0.00  0.00    -0.250 OA
BRANCH  15  18
ATOM     17  C   UNL     1      10.316  -1.469  22.289  0.00  0.00    +0.022 C 
ATOM     18  C   UNL     1       9.563  -0.313  22.963  0.00  0.00    +0.059 C 
ATOM     19  C   UNL     1       8.072  -0.401  22.606  0.00  0.00    +0.022 C 
ATOM     20  C   UNL     1      10.155   1.020  22.489  0.00  0.00    +0.022 C 
ENDBRANCH  15  18
ENDBRANCH  14  15
ENDBRANCH  13  14
ENDBRANCH  12  13
ENDBRANCH   1  12
BRANCH   1  21
ATOM     21  C   UNL     1       4.665  -1.559  27.172  0.00  0.00    +0.286 C 
BRANCH  21  22
ATOM     22  O   UNL     1       3.944  -2.551  26.447  0.00  0.00    -0.366 OA
BRANCH  22  23
ATOM     23  C   UNL     1       3.744  -3.717  27.249  0.00  0.00    +0.182 C 
BRANCH  23  24
ATOM     24  C   UNL     1       4.231  -4.952  26.513  0.00  0.00    +0.153 C 
BRANCH  24  25
ATOM     25  N   UNL     1       5.669  -5.126  26.614  0.00  0.00    -0.313 N 
ATOM     26  C   UNL     1       6.564  -5.012  25.587  0.00  0.00    +0.165 A 
ATOM     27  C   UNL     1       7.790  -5.321  26.151  0.00  0.00    +0.147 A 
ATOM     28  C   UNL     1       8.899  -5.302  25.287  0.00  0.00    +0.147 A 
ATOM     29  N   UNL     1       8.709  -4.947  23.996  0.00  0.00    -0.219 NA
ATOM     30  C   UNL     1       7.451  -4.668  23.587  0.00  0.00    +0.225 A 
ATOM     31  N   UNL     1       7.657  -5.589  27.501  0.00  0.00    -0.231 NA
ATOM     32  N   UNL     1       6.315  -4.683  24.309  0.00  0.00    -0.216 NA
ATOM     33  C   UNL     1       6.368  -5.462  27.741  0.00  0.00    +0.201 A 
BRANCH  28  34
ATOM     34  N   UNL     1      10.188  -5.619  25.695  0.00  0.00    -0.341 N 
ATOM     35  H   UNL     1      10.336  -6.618  25.745  0.00  0.00    +0.144 HD
ATOM     36  H   UNL     1      10.901  -5.050  25.254  0.00  0.00    +0.144 HD
ENDBRANCH  28  34
ENDBRANCH  24  25
ENDBRANCH  23  24
ENDBRANCH  22  23
ENDBRANCH  21  22
ENDBRANCH   1  21
TORSDOF 16
ENDMDL
MODEL 8
REMARK VINA RESULT:      -6.1      1.804      6.415
REMARK  Name = 
REMARK  22 active torsions:
REMARK  status: ('A' for Active; 'I' for Inactive)
REMARK    1  A    between atoms: C_1  and  C_2
REMARK    2  A    between atoms: C_2  and  C_3
REMARK    3  A    between atoms: C_2  and  C_4
REMARK    4  A    between atoms: C_2  and  C_5
REMARK    5  A    between atoms: C_5  and  O_7
REMARK    6  A    between atoms: O_7  and  C_8
REMARK    7  A    between atoms: C_8  and  O_9
REMARK    8  A    between atoms: O_9  and  P_10
REMARK    9  A    between atoms: P_10  and  C_12
REMARK   10  A    between atoms: P_10  and  O_26
REMARK   11  A    between atoms: C_12  and  O_13
REMARK   12  A    between atoms: O_13  and  C_14
REMARK   13  A    between atoms: C_14  and  C_15
REMARK   14  A    between atoms: C_15  and  N_16
REMARK   15  A    between atoms: C_20  and  N_25
REMARK   16  A    between atoms: O_26  and  C_27
REMARK   17  A    between atoms: C_27  and  O_28
REMARK   18  A    between atoms: O_28  and  C_29
REMARK   19  A    between atoms: C_29  and  C_31
REMARK   20  A    between atoms: C_31  and  C_32
REMARK   21  A    between atoms: C_31  and  C_33
REMARK   22  A    between atoms: C_31  and  C_34
REMARK                            x       y       z     vdW  Elec       q    Type
REMARK                         _______ _______ _______ _____ _____    ______ ____
ROOT
ATOM      1  P   UNL     1      10.089  -0.365  23.603  0.00  0.00    +0.363 P 
ATOM      2  O   UNL     1       9.015   0.351  22.766  0.00  0.00    -0.256 OA
ENDROOT
BRANCH   1   3
ATOM      3  O   UNL     1      10.890   1.142  23.886  0.00  0.00    -0.268 OA
BRANCH   3   4
ATOM      4  C   UNL     1      10.415   2.200  23.071  0.00  0.00    +0.407 C 
BRANCH   4   5
ATOM      5  O   UNL     1      10.268   3.400  23.830  0.00  0.00    -0.437 OA
BRANCH   5   6
ATOM      6  C   UNL     1       9.099   4.063  23.600  0.00  0.00    +0.314 C 
ATOM      7  O   UNL     1       8.075   3.552  23.162  0.00  0.00    -0.250 OA
BRANCH   6   8
ATOM      8  C   UNL     1       9.247   5.552  23.917  0.00  0.00    +0.059 C 
ATOM      9  C   UNL     1      10.709   5.983  23.735  0.00  0.00    +0.022 C 
ATOM     10  C   UNL     1       8.829   5.803  25.374  0.00  0.00    +0.022 C 
ATOM     11  C   UNL     1       8.333   6.358  22.985  0.00  0.00    +0.022 C 
ENDBRANCH   6   8
ENDBRANCH   5   6
ENDBRANCH   4   5
ENDBRANCH   3   4
ENDBRANCH   1   3
BRANCH   1  12
ATOM     12  O   UNL     1       9.288  -1.874  23.321  0.00  0.00    -0.268 OA
BRANCH  12  13
ATOM     13  C   UNL     1       8.309  -1.968  22.306  0.00  0.00    +0.407 C 
BRANCH  13  14
ATOM     14  O   UNL     1       7.943  -3.332  22.076  0.00  0.00    -0.437 OA
BRANCH  14  15
ATOM     15  C   UNL     1       6.616  -3.589  22.234  0.00  0.00    +0.314 C 
ATOM     16  O   UNL     1       5.726  -2.745  22.210  0.00  0.00    -0.250 OA
BRANCH  15  18
ATOM     17  C   UNL     1       5.079  -5.366  23.097  0.00  0.00    +0.022 C 
ATOM     18  C   UNL     1       6.379  -5.095  22.326  0.00  0.00    +0.059 C 
ATOM     19  C   UNL     1       6.245  -5.641  20.897  0.00  0.00    +0.022 C 
ATOM     20  C   UNL     1       7.548  -5.770  23.054  0.00  0.00    +0.022 C 
ENDBRANCH  15  18
ENDBRANCH  14  15
ENDBRANCH  13  14
ENDBRANCH  12  13
ENDBRANCH   1  12
BRANCH   1  21
ATOM     21  C   UNL     1       9.525  -0.213  25.452  0.00  0.00    +0.286 C 
BRANCH  21  22
ATOM     22  O   UNL     1       8.321   0.549  25.461  0.00  0.00    -0.366 OA
BRANCH  22  23
ATOM     23  C   UNL     1       7.276  -0.167  26.122  0.00  0.00    +0.182 C 
BRANCH  23  24
ATOM     24  C   UNL     1       6.480  -0.982  25.118  0.00  0.00    +0.153 C 
BRANCH  24  25
ATOM     25  N   UNL     1       6.011  -2.239  25.672  0.00  0.00    -0.313 N 
ATOM     26  C   UNL     1       6.794  -3.304  26.019  0.00  0.00    +0.165 A 
ATOM     27  C   UNL     1       5.902  -4.277  26.437  0.00  0.00    +0.147 A 
ATOM     28  C   UNL     1       6.458  -5.507  26.832  0.00  0.00    +0.147 A 
ATOM     29  N   UNL     1       7.804  -5.643  26.823  0.00  0.00    -0.219 NA
ATOM     30  C   UNL     1       8.550  -4.601  26.391  0.00  0.00    +0.225 A 
ATOM     31  N   UNL     1       4.602  -3.812  26.376  0.00  0.00    -0.231 NA
ATOM     32  N   UNL     1       8.132  -3.396  25.962  0.00  0.00    -0.216 NA
ATOM     33  C   UNL     1       4.708  -2.584  25.912  0.00  0.00    +0.201 A 
BRANCH  28  34
ATOM     34  N   UNL     1       5.694  -6.590  27.245  0.00  0.00    -0.341 N 
ATOM     35  H   UNL     1       5.700  -7.340  26.567  0.00  0.00    +0.144 HD
ATOM     36  H   UNL     1       5.826  -6.826  28.222  0.00  0.00    +0.144 HD
ENDBRANCH  28  34
ENDBRANCH  24  25
ENDBRANCH  23  24
ENDBRANCH  22  23
ENDBRANCH  21  22
ENDBRANCH   1  21
TORSDOF 16
ENDMDL
MODEL 9
REMARK VINA RESULT:      -6.1      1.713      4.157
REMARK  Name = 
REMARK  22 active torsions:
REMARK  status: ('A' for Active; 'I' for Inactive)
REMARK    1  A    between atoms: C_1  and  C_2
REMARK    2  A    between atoms: C_2  and  C_3
REMARK    3  A    between atoms: C_2  and  C_4
REMARK    4  A    between atoms: C_2  and  C_5
REMARK    5  A    between atoms: C_5  and  O_7
REMARK    6  A    between atoms: O_7  and  C_8
REMARK    7  A    between atoms: C_8  and  O_9
REMARK    8  A    between atoms: O_9  and  P_10
REMARK    9  A    between atoms: P_10  and  C_12
REMARK   10  A    between atoms: P_10  and  O_26
REMARK   11  A    between atoms: C_12  and  O_13
REMARK   12  A    between atoms: O_13  and  C_14
REMARK   13  A    between atoms: C_14  and  C_15
REMARK   14  A    between atoms: C_15  and  N_16
REMARK   15  A    between atoms: C_20  and  N_25
REMARK   16  A    between atoms: O_26  and  C_27
REMARK   17  A    between atoms: C_27  and  O_28
REMARK   18  A    between atoms: O_28  and  C_29
REMARK   19  A    between atoms: C_29  and  C_31
REMARK   20  A    between atoms: C_31  and  C_32
REMARK   21  A    between atoms: C_31  and  C_33
REMARK   22  A    between atoms: C_31  and  C_34
REMARK                            x       y       z     vdW  Elec       q    Type
REMARK                         _______ _______ _______ _____ _____    ______ ____
ROOT
ATOM      1  P   UNL     1       8.196  -1.979  23.038  0.00  0.00    +0.363 P 
ATOM      2  O   UNL     1       7.918  -3.142  22.070  0.00  0.00    -0.256 OA
ENDROOT
BRANCH   1   3
ATOM      3  O   UNL     1       6.854  -2.459  24.018  0.00  0.00    -0.268 OA
BRANCH   3   4
ATOM      4  C   UNL     1       5.958  -1.401  24.315  0.00  0.00    +0.407 C 
BRANCH   4   5
ATOM      5  O   UNL     1       6.649  -0.301  24.908  0.00  0.00    -0.437 OA
BRANCH   5   6
ATOM      6  C   UNL     1       5.852   0.517  25.653  0.00  0.00    +0.314 C 
ATOM      7  O   UNL     1       4.845   1.083  25.243  0.00  0.00    -0.250 OA
BRANCH   6   8
ATOM      8  C   UNL     1       6.410   0.679  27.068  0.00  0.00    +0.059 C 
ATOM      9  C   UNL     1       7.724  -0.102  27.204  0.00  0.00    +0.022 C 
ATOM     10  C   UNL     1       5.394   0.127  28.079  0.00  0.00    +0.022 C 
ATOM     11  C   UNL     1       6.642   2.169  27.351  0.00  0.00    +0.022 C 
ENDBRANCH   6   8
ENDBRANCH   5   6
ENDBRANCH   4   5
ENDBRANCH   3   4
ENDBRANCH   1   3
BRANCH   1  12
ATOM     12  O   UNL     1       9.539  -1.498  22.058  0.00  0.00    -0.268 OA
BRANCH  12  13
ATOM     13  C   UNL     1       9.455  -0.318  21.284  0.00  0.00    +0.407 C 
BRANCH  13  14
ATOM     14  O   UNL     1      10.135   0.763  21.928  0.00  0.00    -0.437 OA
BRANCH  14  15
ATOM     15  C   UNL     1       9.312   1.742  22.393  0.00  0.00    +0.314 C 
ATOM     16  O   UNL     1       8.249   2.074  21.879  0.00  0.00    -0.250 OA
BRANCH  15  18
ATOM     17  C   UNL     1       8.712   3.011  24.465  0.00  0.00    +0.022 C 
ATOM     18  C   UNL     1       9.842   2.290  23.717  0.00  0.00    +0.059 C 
ATOM     19  C   UNL     1      10.332   1.102  24.558  0.00  0.00    +0.022 C 
ATOM     20  C   UNL     1      10.987   3.278  23.459  0.00  0.00    +0.022 C 
ENDBRANCH  15  18
ENDBRANCH  14  15
ENDBRANCH  13  14
ENDBRANCH  12  13
ENDBRANCH   1  12
BRANCH   1  21
ATOM     21  C   UNL     1       9.279  -2.713  24.468  0.00  0.00    +0.286 C 
BRANCH  21  22
ATOM     22  O   UNL     1       9.368  -4.118  24.248  0.00  0.00    -0.366 OA
BRANCH  22  23
ATOM     23  C   UNL     1       9.285  -4.829  25.485  0.00  0.00    +0.182 C 
BRANCH  23  24
ATOM     24  C   UNL     1       8.190  -4.242  26.357  0.00  0.00    +0.153 C 
BRANCH  24  25
ATOM     25  N   UNL     1       7.092  -5.167  26.566  0.00  0.00    -0.313 N 
ATOM     26  C   UNL     1       6.241  -5.634  25.602  0.00  0.00    +0.165 A 
ATOM     27  C   UNL     1       5.337  -6.430  26.284  0.00  0.00    +0.147 A 
ATOM     28  C   UNL     1       4.321  -7.022  25.514  0.00  0.00    +0.147 A 
ATOM     29  N   UNL     1       4.319  -6.819  24.177  0.00  0.00    -0.219 NA
ATOM     30  C   UNL     1       5.271  -6.018  23.650  0.00  0.00    +0.225 A 
ATOM     31  N   UNL     1       5.640  -6.476  27.632  0.00  0.00    -0.231 NA
ATOM     32  N   UNL     1       6.267  -5.375  24.285  0.00  0.00    -0.216 NA
ATOM     33  C   UNL     1       6.700  -5.705  27.763  0.00  0.00    +0.201 A 
BRANCH  28  34
ATOM     34  N   UNL     1       3.322  -7.821  26.056  0.00  0.00    -0.341 N 
ATOM     35  H   UNL     1       3.449  -7.968  27.049  0.00  0.00    +0.144 HD
ATOM     36  H   UNL     1       2.395  -7.588  25.721  0.00  0.00    +0.144 HD
ENDBRANCH  28  34
ENDBRANCH  24  25
ENDBRANCH  23  24
ENDBRANCH  22  23
ENDBRANCH  21  22
ENDBRANCH   1  21
TORSDOF 16
ENDMDL
