MODEL 1
REMARK VINA RESULT:      -6.9      0.000      0.000
REMARK  Name = 
REMARK  17 active torsions:
REMARK  status: ('A' for Active; 'I' for Inactive)
REMARK    1  A    between atoms: C_1  and  C_2
REMARK    2  A    between atoms: C_2  and  C_4
REMARK    3  A    between atoms: C_2  and  O_15
REMARK    4  A    between atoms: C_4  and  N_5
REMARK    5  A    between atoms: C_9  and  N_14
REMARK    6  A    between atoms: O_15  and  C_16
REMARK    7  A    between atoms: C_16  and  P_17
REMARK    8  A    between atoms: P_17  and  N_19
REMARK    9  A    between atoms: P_17  and  O_29
REMARK   10  A    between atoms: N_19  and  C_20
REMARK   11  A    between atoms: C_20  and  C_22
REMARK   12  A    between atoms: C_20  and  C_23
REMARK   13  A    between atoms: C_23  and  O_25
REMARK   14  A    between atoms: O_25  and  C_26
REMARK   15  A    between atoms: C_26  and  C_27
REMARK   16  A    between atoms: C_26  and  C_28
REMARK   17  A    between atoms: O_29  and  C_30
REMARK                            x       y       z     vdW  Elec       q    Type
REMARK                         _______ _______ _______ _____ _____    ______ ____
ROOT
ATOM      1  P   UNL     1       9.147  -2.552  23.208  0.00  0.00    +0.345 P 
ATOM      2  O   UNL     1       8.609  -2.247  21.800  0.00  0.00    -0.257 OA
ENDROOT
BRANCH   1   3
ATOM      3  N   UNL     1       8.339  -1.562  24.320  0.00  0.00    -0.221 NA
ATOM      4  H   UNL     1       8.276  -0.623  23.913  0.00  0.00    +0.133 HD
BRANCH   3   5
ATOM      5  C   UNL     1       7.188  -1.750  25.193  0.00  0.00    +0.169 C 
ATOM      6  C   UNL     1       7.586  -1.365  26.631  0.00  0.00    +0.036 C 
BRANCH   5   7
ATOM      7  C   UNL     1       6.048  -0.792  24.872  0.00  0.00    +0.325 C 
ATOM      8  O   UNL     1       4.906  -0.884  25.322  0.00  0.00    -0.249 OA
BRANCH   7   9
ATOM      9  O   UNL     1       6.454   0.119  23.964  0.00  0.00    -0.461 OA
BRANCH   9  10
ATOM     10  C   UNL     1       6.018   1.460  24.208  0.00  0.00    +0.170 C 
ATOM     11  C   UNL     1       6.141   2.161  22.864  0.00  0.00    +0.052 C 
ATOM     12  C   UNL     1       6.862   2.134  25.281  0.00  0.00    +0.052 C 
ENDBRANCH   9  10
ENDBRANCH   7   9
ENDBRANCH   5   7
ENDBRANCH   3   5
ENDBRANCH   1   3
BRANCH   1  13
ATOM     13  C   UNL     1       7.728  -3.675  23.478  0.00  0.00    +0.286 C 
BRANCH  13  14
ATOM     14  O   UNL     1       7.759  -4.835  22.604  0.00  0.00    -0.363 OA
BRANCH  14  16
ATOM     15  C   UNL     1       6.132  -5.804  21.145  0.00  0.00    +0.040 C 
ATOM     16  C   UNL     1       6.609  -5.674  22.589  0.00  0.00    +0.136 C 
BRANCH  16  17
ATOM     17  C   UNL     1       5.522  -5.164  23.526  0.00  0.00    +0.156 C 
BRANCH  17  18
ATOM     18  N   UNL     1       5.092  -6.030  24.604  0.00  0.00    -0.312 N 
ATOM     19  C   UNL     1       5.685  -6.014  25.839  0.00  0.00    +0.165 A 
ATOM     20  C   UNL     1       4.837  -6.742  26.653  0.00  0.00    +0.147 A 
ATOM     21  C   UNL     1       5.179  -6.805  28.007  0.00  0.00    +0.147 A 
ATOM     22  N   UNL     1       6.334  -6.221  28.413  0.00  0.00    -0.219 NA
ATOM     23  C   UNL     1       7.071  -5.559  27.495  0.00  0.00    +0.225 A 
ATOM     24  N   UNL     1       3.783  -7.253  25.932  0.00  0.00    -0.231 NA
ATOM     25  N   UNL     1       6.813  -5.379  26.187  0.00  0.00    -0.216 NA
ATOM     26  C   UNL     1       3.972  -6.821  24.700  0.00  0.00    +0.201 A 
BRANCH  21  27
ATOM     27  N   UNL     1       4.384  -7.434  28.956  0.00  0.00    -0.341 N 
ATOM     28  H   UNL     1       4.454  -6.999  29.867  0.00  0.00    +0.144 HD
ATOM     29  H   UNL     1       4.432  -8.441  28.910  0.00  0.00    +0.144 HD
ENDBRANCH  21  27
ENDBRANCH  17  18
ENDBRANCH  16  17
ENDBRANCH  14  16
ENDBRANCH  13  14
ENDBRANCH   1  13
BRANCH   1  30
ATOM     30  O   UNL     1      10.489  -1.491  22.952  0.00  0.00    -0.431 OA
BRANCH  30  31
ATOM     31  C   UNL     1      10.315  -0.079  23.046  0.00  0.00    +0.129 A 
ATOM     32  C   UNL     1       9.812   0.598  21.941  0.00  0.00    +0.046 A 
ATOM     33  C   UNL     1       9.585   1.996  21.991  0.00  0.00    +0.004 A 
ATOM     34  C   UNL     1       9.875   2.751  23.132  0.00  0.00    +0.000 A 
ATOM     35  C   UNL     1      10.397   2.111  24.225  0.00  0.00    +0.004 A 
ATOM     36  C   UNL     1      10.605   0.729  24.163  0.00  0.00    +0.046 A 
ENDBRANCH  30  31
ENDBRANCH   1  30
TORSDOF 13
ENDMDL
MODEL 2
REMARK VINA RESULT:      -6.8      1.863      3.669
REMARK  Name = 
REMARK  17 active torsions:
REMARK  status: ('A' for Active; 'I' for Inactive)
REMARK    1  A    between atoms: C_1  and  C_2
REMARK    2  A    between atoms: C_2  and  C_4
REMARK    3  A    between atoms: C_2  and  O_15
REMARK    4  A    between atoms: C_4  and  N_5
REMARK    5  A    between atoms: C_9  and  N_14
REMARK    6  A    between atoms: O_15  and  C_16
REMARK    7  A    between atoms: C_16  and  P_17
REMARK    8  A    between atoms: P_17  and  N_19
REMARK    9  A    between atoms: P_17  and  O_29
REMARK   10  A    between atoms: N_19  and  C_20
REMARK   11  A    between atoms: C_20  and  C_22
REMARK   12  A    between atoms: C_20  and  C_23
REMARK   13  A    between atoms: C_23  and  O_25
REMARK   14  A    between atoms: O_25  and  C_26
REMARK   15  A    between atoms: C_26  and  C_27
REMARK   16  A    between atoms: C_26  and  C_28
REMARK   17  A    between atoms: O_29  and  C_30
REMARK                            x       y       z     vdW  Elec       q    Type
REMARK                         _______ _______ _______ _____ _____    ______ ____
ROOT
ATOM      1  P   UNL     1       9.242  -3.189  24.812  0.00  0.00    +0.345 P 
ATOM      2  O   UNL     1       8.827  -4.567  24.270  0.00  0.00    -0.257 OA
ENDROOT
BRANCH   1   3
ATOM      3  N   UNL     1       7.894  -2.164  24.771  0.00  0.00    -0.221 NA
ATOM      4  H   UNL     1       7.076  -2.734  24.532  0.00  0.00    +0.133 HD
BRANCH   3   5
ATOM      5  C   UNL     1       7.441  -1.054  25.600  0.00  0.00    +0.169 C 
ATOM      6  C   UNL     1       8.625  -0.552  26.448  0.00  0.00    +0.036 C 
BRANCH   5   7
ATOM      7  C   UNL     1       7.050   0.167  24.779  0.00  0.00    +0.325 C 
ATOM      8  O   UNL     1       6.468   0.129  23.696  0.00  0.00    -0.249 OA
BRANCH   7   9
ATOM      9  O   UNL     1       7.506   1.288  25.375  0.00  0.00    -0.461 OA
BRANCH   9  10
ATOM     10  C   UNL     1       7.252   2.504  24.665  0.00  0.00    +0.170 C 
ATOM     11  C   UNL     1       8.436   3.402  24.992  0.00  0.00    +0.052 C 
ATOM     12  C   UNL     1       5.930   3.130  25.086  0.00  0.00    +0.052 C 
ENDBRANCH   9  10
ENDBRANCH   7   9
ENDBRANCH   5   7
ENDBRANCH   3   5
ENDBRANCH   1   3
BRANCH   1  13
ATOM     13  C   UNL     1       8.582  -3.665  26.451  0.00  0.00    +0.286 C 
BRANCH  13  14
ATOM     14  O   UNL     1       7.471  -4.597  26.358  0.00  0.00    -0.363 OA
BRANCH  14  16
ATOM     15  C   UNL     1       6.170  -5.379  28.204  0.00  0.00    +0.040 C 
ATOM     16  C   UNL     1       6.308  -4.308  27.125  0.00  0.00    +0.136 C 
BRANCH  16  17
ATOM     17  C   UNL     1       5.066  -4.188  26.251  0.00  0.00    +0.156 C 
BRANCH  17  18
ATOM     18  N   UNL     1       5.006  -4.980  25.041  0.00  0.00    -0.312 N 
ATOM     19  C   UNL     1       5.247  -4.449  23.802  0.00  0.00    +0.165 A 
ATOM     20  C   UNL     1       5.378  -5.540  22.963  0.00  0.00    +0.147 A 
ATOM     21  C   UNL     1       5.719  -5.266  21.635  0.00  0.00    +0.147 A 
ATOM     22  N   UNL     1       5.825  -3.970  21.247  0.00  0.00    -0.219 NA
ATOM     23  C   UNL     1       5.648  -3.008  22.178  0.00  0.00    +0.225 A 
ATOM     24  N   UNL     1       5.159  -6.714  23.646  0.00  0.00    -0.231 NA
ATOM     25  N   UNL     1       5.382  -3.152  23.489  0.00  0.00    -0.216 NA
ATOM     26  C   UNL     1       4.922  -6.344  24.889  0.00  0.00    +0.201 A 
BRANCH  21  27
ATOM     27  N   UNL     1       5.960  -6.261  20.698  0.00  0.00    -0.341 N 
ATOM     28  H   UNL     1       5.672  -5.991  19.766  0.00  0.00    +0.144 HD
ATOM     29  H   UNL     1       5.705  -7.182  21.022  0.00  0.00    +0.144 HD
ENDBRANCH  21  27
ENDBRANCH  17  18
ENDBRANCH  16  17
ENDBRANCH  14  16
ENDBRANCH  13  14
ENDBRANCH   1  13
BRANCH   1  30
ATOM     30  O   UNL     1       9.867  -2.740  23.263  0.00  0.00    -0.431 OA
BRANCH  30  31
ATOM     31  C   UNL     1       9.844  -1.375  22.849  0.00  0.00    +0.129 A 
ATOM     32  C   UNL     1      10.530  -0.442  23.618  0.00  0.00    +0.046 A 
ATOM     33  C   UNL     1      10.570   0.921  23.233  0.00  0.00    +0.004 A 
ATOM     34  C   UNL     1       9.910   1.386  22.090  0.00  0.00    +0.000 A 
ATOM     35  C   UNL     1       9.206   0.491  21.331  0.00  0.00    +0.004 A 
ATOM     36  C   UNL     1       9.184  -0.854  21.718  0.00  0.00    +0.046 A 
ENDBRANCH  30  31
ENDBRANCH   1  30
TORSDOF 13
ENDMDL
MODEL 3
REMARK VINA RESULT:      -6.8      2.559      6.014
REMARK  Name = 
REMARK  17 active torsions:
REMARK  status: ('A' for Active; 'I' for Inactive)
REMARK    1  A    between atoms: C_1  and  C_2
REMARK    2  A    between atoms: C_2  and  C_4
REMARK    3  A    between atoms: C_2  and  O_15
REMARK    4  A    between atoms: C_4  and  N_5
REMARK    5  A    between atoms: C_9  and  N_14
REMARK    6  A    between atoms: O_15  and  C_16
REMARK    7  A    between atoms: C_16  and  P_17
REMARK    8  A    between atoms: P_17  and  N_19
REMARK    9  A    between atoms: P_17  and  O_29
REMARK   10  A    between atoms: N_19  and  C_20
REMARK   11  A    between atoms: C_20  and  C_22
REMARK   12  A    between atoms: C_20  and  C_23
REMARK   13  A    between atoms: C_23  and  O_25
REMARK   14  A    between atoms: O_25  and  C_26
REMARK   15  A    between atoms: C_26  and  C_27
REMARK   16  A    between atoms: C_26  and  C_28
REMARK   17  A    between atoms: O_29  and  C_30
REMARK                            x       y       z     vdW  Elec       q    Type
REMARK                         _______ _______ _______ _____ _____    ______ ____
ROOT
ATOM      1  P   UNL     1       8.920  -3.727  24.641  0.00  0.00    +0.345 P 
ATOM      2  O   UNL     1      10.109  -4.673  24.876  0.00  0.00    -0.257 OA
ENDROOT
BRANCH   1   3
ATOM      3  N   UNL     1       7.744  -4.551  23.742  0.00  0.00    -0.221 NA
ATOM      4  H   UNL     1       6.962  -4.761  24.370  0.00  0.00    +0.133 HD
BRANCH   3   5
ATOM      5  C   UNL     1       7.209  -4.397  22.395  0.00  0.00    +0.169 C 
ATOM      6  C   UNL     1       7.204  -5.774  21.703  0.00  0.00    +0.036 C 
BRANCH   5   7
ATOM      7  C   UNL     1       5.741  -3.994  22.392  0.00  0.00    +0.325 C 
ATOM      8  O   UNL     1       5.331  -2.834  22.413  0.00  0.00    -0.249 OA
BRANCH   7   9
ATOM      9  O   UNL     1       4.961  -5.093  22.443  0.00  0.00    -0.461 OA
BRANCH   9  10
ATOM     10  C   UNL     1       4.183  -5.234  23.636  0.00  0.00    +0.170 C 
ATOM     11  C   UNL     1       4.639  -6.550  24.247  0.00  0.00    +0.052 C 
ATOM     12  C   UNL     1       2.691  -5.235  23.332  0.00  0.00    +0.052 C 
ENDBRANCH   9  10
ENDBRANCH   7   9
ENDBRANCH   5   7
ENDBRANCH   3   5
ENDBRANCH   1   3
BRANCH   1  13
ATOM     13  C   UNL     1       8.069  -4.484  26.074  0.00  0.00    +0.286 C 
BRANCH  13  14
ATOM     14  O   UNL     1       6.625  -4.336  26.009  0.00  0.00    -0.363 OA
BRANCH  14  16
ATOM     15  C   UNL     1       4.785  -3.776  27.427  0.00  0.00    +0.040 C 
ATOM     16  C   UNL     1       6.044  -3.260  26.737  0.00  0.00    +0.136 C 
BRANCH  16  17
ATOM     17  C   UNL     1       5.778  -2.051  25.849  0.00  0.00    +0.156 C 
BRANCH  17  18
ATOM     18  N   UNL     1       6.476  -0.819  26.150  0.00  0.00    -0.312 N 
ATOM     19  C   UNL     1       6.618   0.187  25.232  0.00  0.00    +0.165 A 
ATOM     20  C   UNL     1       7.069   1.274  25.957  0.00  0.00    +0.147 A 
ATOM     21  C   UNL     1       7.213   2.474  25.255  0.00  0.00    +0.147 A 
ATOM     22  N   UNL     1       6.976   2.477  23.919  0.00  0.00    -0.219 NA
ATOM     23  C   UNL     1       6.559   1.329  23.343  0.00  0.00    +0.225 A 
ATOM     24  N   UNL     1       7.267   0.935  27.276  0.00  0.00    -0.231 NA
ATOM     25  N   UNL     1       6.325   0.138  23.924  0.00  0.00    -0.216 NA
ATOM     26  C   UNL     1       6.918  -0.333  27.358  0.00  0.00    +0.201 A 
BRANCH  21  27
ATOM     27  N   UNL     1       7.583   3.665  25.865  0.00  0.00    -0.341 N 
ATOM     28  H   UNL     1       8.319   4.143  25.362  0.00  0.00    +0.144 HD
ATOM     29  H   UNL     1       7.670   3.587  26.867  0.00  0.00    +0.144 HD
ENDBRANCH  21  27
ENDBRANCH  17  18
ENDBRANCH  16  17
ENDBRANCH  14  16
ENDBRANCH  13  14
ENDBRANCH   1  13
BRANCH   1  30
ATOM     30  O   UNL     1       9.725  -3.011  23.288  0.00  0.00    -0.431 OA
BRANCH  30  31
ATOM     31  C   UNL     1       9.881  -1.596  23.213  0.00  0.00    +0.129 A 
ATOM     32  C   UNL     1       9.757  -0.984  21.970  0.00  0.00    +0.046 A 
ATOM     33  C   UNL     1       9.868   0.422  21.843  0.00  0.00    +0.004 A 
ATOM     34  C   UNL     1      10.127   1.245  22.944  0.00  0.00    +0.000 A 
ATOM     35  C   UNL     1      10.281   0.664  24.175  0.00  0.00    +0.004 A 
ATOM     36  C   UNL     1      10.157  -0.726  24.285  0.00  0.00    +0.046 A 
ENDBRANCH  30  31
ENDBRANCH   1  30
TORSDOF 13
ENDMDL
MODEL 4
REMARK VINA RESULT:      -6.7      2.450      5.600
REMARK  Name = 
REMARK  17 active torsions:
REMARK  status: ('A' for Active; 'I' for Inactive)
REMARK    1  A    between atoms: C_1  and  C_2
REMARK    2  A    between atoms: C_2  and  C_4
REMARK    3  A    between atoms: C_2  and  O_15
REMARK    4  A    between atoms: C_4  and  N_5
REMARK    5  A    between atoms: C_9  and  N_14
REMARK    6  A    between atoms: O_15  and  C_16
REMARK    7  A    between atoms: C_16  and  P_17
REMARK    8  A    between atoms: P_17  and  N_19
REMARK    9  A    between atoms: P_17  and  O_29
REMARK   10  A    between atoms: N_19  and  C_20
REMARK   11  A    between atoms: C_20  and  C_22
REMARK   12  A    between atoms: C_20  and  C_23
REMARK   13  A    between atoms: C_23  and  O_25
REMARK   14  A    between atoms: O_25  and  C_26
REMARK   15  A    between atoms: C_26  and  C_27
REMARK   16  A    between atoms: C_26  and  C_28
REMARK   17  A    between atoms: O_29  and  C_30
REMARK                            x       y       z     vdW  Elec       q    Type
REMARK                         _______ _______ _______ _____ _____    ______ ____
ROOT
ATOM      1  P   UNL     1       8.249  -4.395  24.479  0.00  0.00    +0.345 P 
ATOM      2  O   UNL     1       9.639  -5.054  24.498  0.00  0.00    -0.257 OA
ENDROOT
BRANCH   1   3
ATOM      3  N   UNL     1       7.143  -5.485  23.803  0.00  0.00    -0.221 NA
ATOM      4  H   UNL     1       6.895  -6.167  24.527  0.00  0.00    +0.133 HD
BRANCH   3   5
ATOM      5  C   UNL     1       6.000  -5.343  22.910  0.00  0.00    +0.169 C 
ATOM      6  C   UNL     1       6.366  -5.939  21.537  0.00  0.00    +0.036 C 
BRANCH   5   7
ATOM      7  C   UNL     1       4.806  -6.178  23.352  0.00  0.00    +0.325 C 
ATOM      8  O   UNL     1       4.875  -7.186  24.055  0.00  0.00    -0.249 OA
BRANCH   7   9
ATOM      9  O   UNL     1       3.676  -5.697  22.795  0.00  0.00    -0.461 OA
BRANCH   9  10
ATOM     10  C   UNL     1       2.463  -6.059  23.463  0.00  0.00    +0.170 C 
ATOM     11  C   UNL     1       1.677  -6.863  22.439  0.00  0.00    +0.052 C 
ATOM     12  C   UNL     1       1.697  -4.830  23.932  0.00  0.00    +0.052 C 
ENDBRANCH   9  10
ENDBRANCH   7   9
ENDBRANCH   5   7
ENDBRANCH   3   5
ENDBRANCH   1   3
BRANCH   1  13
ATOM     13  C   UNL     1       7.847  -5.262  26.040  0.00  0.00    +0.286 C 
BRANCH  13  14
ATOM     14  O   UNL     1       7.452  -4.350  27.100  0.00  0.00    -0.363 OA
BRANCH  14  16
ATOM     15  C   UNL     1       5.628  -5.893  27.180  0.00  0.00    +0.040 C 
ATOM     16  C   UNL     1       6.239  -4.633  27.788  0.00  0.00    +0.136 C 
BRANCH  16  17
ATOM     17  C   UNL     1       5.284  -3.446  27.770  0.00  0.00    +0.156 C 
BRANCH  17  18
ATOM     18  N   UNL     1       5.158  -2.694  26.539  0.00  0.00    -0.312 N 
ATOM     19  C   UNL     1       5.791  -1.496  26.343  0.00  0.00    +0.165 A 
ATOM     20  C   UNL     1       5.666  -1.241  24.989  0.00  0.00    +0.147 A 
ATOM     21  C   UNL     1       6.313  -0.099  24.509  0.00  0.00    +0.147 A 
ATOM     22  N   UNL     1       6.946   0.709  25.396  0.00  0.00    -0.219 NA
ATOM     23  C   UNL     1       6.967   0.339  26.695  0.00  0.00    +0.225 A 
ATOM     24  N   UNL     1       4.920  -2.219  24.373  0.00  0.00    -0.231 NA
ATOM     25  N   UNL     1       6.438  -0.762  27.259  0.00  0.00    -0.216 NA
ATOM     26  C   UNL     1       4.615  -3.070  25.333  0.00  0.00    +0.201 A 
BRANCH  21  27
ATOM     27  N   UNL     1       6.340   0.242  23.164  0.00  0.00    -0.341 N 
ATOM     28  H   UNL     1       5.413   0.319  22.767  0.00  0.00    +0.144 HD
ATOM     29  H   UNL     1       7.037  -0.266  22.639  0.00  0.00    +0.144 HD
ENDBRANCH  21  27
ENDBRANCH  17  18
ENDBRANCH  16  17
ENDBRANCH  14  16
ENDBRANCH  13  14
ENDBRANCH   1  13
BRANCH   1  30
ATOM     30  O   UNL     1       8.630  -3.575  23.005  0.00  0.00    -0.431 OA
BRANCH  30  31
ATOM     31  C   UNL     1       9.150  -2.247  23.036  0.00  0.00    +0.129 A 
ATOM     32  C   UNL     1       9.565  -1.731  24.258  0.00  0.00    +0.046 A 
ATOM     33  C   UNL     1      10.122  -0.431  24.342  0.00  0.00    +0.004 A 
ATOM     34  C   UNL     1      10.255   0.389  23.217  0.00  0.00    +0.000 A 
ATOM     35  C   UNL     1       9.828  -0.086  22.005  0.00  0.00    +0.004 A 
ATOM     36  C   UNL     1       9.290  -1.376  21.938  0.00  0.00    +0.046 A 
ENDBRANCH  30  31
ENDBRANCH   1  30
TORSDOF 13
ENDMDL
MODEL 5
REMARK VINA RESULT:      -6.7      2.235      4.063
REMARK  Name = 
REMARK  17 active torsions:
REMARK  status: ('A' for Active; 'I' for Inactive)
REMARK    1  A    between atoms: C_1  and  C_2
REMARK    2  A    between atoms: C_2  and  C_4
REMARK    3  A    between atoms: C_2  and  O_15
REMARK    4  A    between atoms: C_4  and  N_5
REMARK    5  A    between atoms: C_9  and  N_14
REMARK    6  A    between atoms: O_15  and  C_16
REMARK    7  A    between atoms: C_16  and  P_17
REMARK    8  A    between atoms: P_17  and  N_19
REMARK    9  A    between atoms: P_17  and  O_29
REMARK   10  A    between atoms: N_19  and  C_20
REMARK   11  A    between atoms: C_20  and  C_22
REMARK   12  A    between atoms: C_20  and  C_23
REMARK   13  A    between atoms: C_23  and  O_25
REMARK   14  A    between atoms: O_25  and  C_26
REMARK   15  A    between atoms: C_26  and  C_27
REMARK   16  A    between atoms: C_26  and  C_28
REMARK   17  A    between atoms: O_29  and  C_30
REMARK                            x       y       z     vdW  Elec       q    Type
REMARK                         _______ _______ _______ _____ _____    ______ ____
ROOT
ATOM      1  P   UNL     1       9.027  -4.207  25.009  0.00  0.00    +0.345 P 
ATOM      2  O   UNL     1      10.179  -5.221  25.114  0.00  0.00    -0.257 OA
ENDROOT
BRANCH   1   3
ATOM      3  N   UNL     1       7.820  -4.862  24.017  0.00  0.00    -0.221 NA
ATOM      4  H   UNL     1       6.978  -4.981  24.588  0.00  0.00    +0.133 HD
BRANCH   3   5
ATOM      5  C   UNL     1       7.399  -4.622  22.643  0.00  0.00    +0.169 C 
ATOM      6  C   UNL     1       6.727  -5.898  22.100  0.00  0.00    +0.036 C 
BRANCH   5   7
ATOM      7  C   UNL     1       6.300  -3.573  22.542  0.00  0.00    +0.325 C 
ATOM      8  O   UNL     1       5.120  -3.814  22.293  0.00  0.00    -0.249 OA
BRANCH   7   9
ATOM      9  O   UNL     1       6.827  -2.339  22.687  0.00  0.00    -0.461 OA
BRANCH   9  10
ATOM     10  C   UNL     1       6.070  -1.446  23.509  0.00  0.00    +0.170 C 
ATOM     11  C   UNL     1       6.632  -0.066  23.206  0.00  0.00    +0.052 C 
ATOM     12  C   UNL     1       6.198  -1.801  24.984  0.00  0.00    +0.052 C 
ENDBRANCH   9  10
ENDBRANCH   7   9
ENDBRANCH   5   7
ENDBRANCH   3   5
ENDBRANCH   1   3
BRANCH   1  13
ATOM     13  C   UNL     1       8.148  -5.108  26.337  0.00  0.00    +0.286 C 
BRANCH  13  14
ATOM     14  O   UNL     1       6.714  -5.179  26.110  0.00  0.00    -0.363 OA
BRANCH  14  16
ATOM     15  C   UNL     1       6.112  -5.715  28.360  0.00  0.00    +0.040 C 
ATOM     16  C   UNL     1       5.862  -4.782  27.178  0.00  0.00    +0.136 C 
BRANCH  16  17
ATOM     17  C   UNL     1       4.400  -4.743  26.755  0.00  0.00    +0.156 C 
BRANCH  17  18
ATOM     18  N   UNL     1       3.914  -5.798  25.890  0.00  0.00    -0.312 N 
ATOM     19  C   UNL     1       2.889  -5.606  25.002  0.00  0.00    +0.165 A 
ATOM     20  C   UNL     1       2.911  -6.720  24.183  0.00  0.00    +0.147 A 
ATOM     21  C   UNL     1       2.002  -6.727  23.120  0.00  0.00    +0.147 A 
ATOM     22  N   UNL     1       1.127  -5.697  23.007  0.00  0.00    -0.219 NA
ATOM     23  C   UNL     1       1.214  -4.685  23.898  0.00  0.00    +0.225 A 
ATOM     24  N   UNL     1       3.877  -7.610  24.591  0.00  0.00    -0.231 NA
ATOM     25  N   UNL     1       2.082  -4.539  24.916  0.00  0.00    -0.216 NA
ATOM     26  C   UNL     1       4.452  -7.036  25.629  0.00  0.00    +0.201 A 
BRANCH  21  27
ATOM     27  N   UNL     1       1.960  -7.740  22.173  0.00  0.00    -0.341 N 
ATOM     28  H   UNL     1       2.622  -8.480  22.369  0.00  0.00    +0.144 HD
ATOM     29  H   UNL     1       1.905  -7.397  21.225  0.00  0.00    +0.144 HD
ENDBRANCH  21  27
ENDBRANCH  17  18
ENDBRANCH  16  17
ENDBRANCH  14  16
ENDBRANCH  13  14
ENDBRANCH   1  13
BRANCH   1  30
ATOM     30  O   UNL     1       9.859  -3.355  23.754  0.00  0.00    -0.431 OA
BRANCH  30  31
ATOM     31  C   UNL     1       9.953  -1.933  23.794  0.00  0.00    +0.129 A 
ATOM     32  C   UNL     1      10.179  -1.254  22.602  0.00  0.00    +0.046 A 
ATOM     33  C   UNL     1      10.245   0.161  22.577  0.00  0.00    +0.004 A 
ATOM     34  C   UNL     1      10.112   0.927  23.740  0.00  0.00    +0.000 A 
ATOM     35  C   UNL     1       9.916   0.280  24.931  0.00  0.00    +0.004 A 
ATOM     36  C   UNL     1       9.842  -1.118  24.937  0.00  0.00    +0.046 A 
ENDBRANCH  30  31
ENDBRANCH   1  30
TORSDOF 13
ENDMDL
MODEL 6
REMARK VINA RESULT:      -6.7      2.071      4.404
REMARK  Name = 
REMARK  17 active torsions:
REMARK  status: ('A' for Active; 'I' for Inactive)
REMARK    1  A    between atoms: C_1  and  C_2
REMARK    2  A    between atoms: C_2  and  C_4
REMARK    3  A    between atoms: C_2  and  O_15
REMARK    4  A    between atoms: C_4  and  N_5
REMARK    5  A    between atoms: C_9  and  N_14
REMARK    6  A    between atoms: O_15  and  C_16
REMARK    7  A    between atoms: C_16  and  P_17
REMARK    8  A    between atoms: P_17  and  N_19
REMARK    9  A    between atoms: P_17  and  O_29
REMARK   10  A    between atoms: N_19  and  C_20
REMARK   11  A    between atoms: C_20  and  C_22
REMARK   12  A    between atoms: C_20  and  C_23
REMARK   13  A    between atoms: C_23  and  O_25
REMARK   14  A    between atoms: O_25  and  C_26
REMARK   15  A    between atoms: C_26  and  C_27
REMARK   16  A    between atoms: C_26  and  C_28
REMARK   17  A    between atoms: O_29  and  C_30
REMARK                            x       y       z     vdW  Elec       q    Type
REMARK                         _______ _______ _______ _____ _____    ______ ____
ROOT
ATOM      1  P   UNL     1       5.959  -0.201  25.813  0.00  0.00    +0.345 P 
ATOM      2  O   UNL     1       5.671  -0.150  27.323  0.00  0.00    -0.257 OA
ENDROOT
BRANCH   1   3
ATOM      3  N   UNL     1       7.194  -1.326  25.537  0.00  0.00    -0.221 NA
ATOM      4  H   UNL     1       7.154  -2.024  26.287  0.00  0.00    +0.133 HD
BRANCH   3   5
ATOM      5  C   UNL     1       7.719  -1.981  24.345  0.00  0.00    +0.169 C 
ATOM      6  C   UNL     1       7.016  -1.394  23.106  0.00  0.00    +0.036 C 
BRANCH   5   7
ATOM      7  C   UNL     1       9.188  -1.664  24.103  0.00  0.00    +0.325 C 
ATOM      8  O   UNL     1      10.071  -2.505  23.940  0.00  0.00    -0.249 OA
BRANCH   7   9
ATOM      9  O   UNL     1       9.389  -0.332  24.173  0.00  0.00    -0.461 OA
BRANCH   9  10
ATOM     10  C   UNL     1      10.442   0.171  23.343  0.00  0.00    +0.170 C 
ATOM     11  C   UNL     1      11.216   1.131  24.233  0.00  0.00    +0.052 C 
ATOM     12  C   UNL     1       9.892   0.862  22.103  0.00  0.00    +0.052 C 
ENDBRANCH   9  10
ENDBRANCH   7   9
ENDBRANCH   5   7
ENDBRANCH   3   5
ENDBRANCH   1   3
BRANCH   1  13
ATOM     13  C   UNL     1       4.867  -1.663  25.681  0.00  0.00    +0.286 C 
BRANCH  13  14
ATOM     14  O   UNL     1       4.956  -2.534  26.841  0.00  0.00    -0.363 OA
BRANCH  14  16
ATOM     15  C   UNL     1       3.483  -3.401  28.513  0.00  0.00    +0.040 C 
ATOM     16  C   UNL     1       3.896  -3.462  27.044  0.00  0.00    +0.136 C 
BRANCH  16  17
ATOM     17  C   UNL     1       4.278  -4.867  26.597  0.00  0.00    +0.156 C 
BRANCH  17  18
ATOM     18  N   UNL     1       5.670  -5.255  26.685  0.00  0.00    -0.312 N 
ATOM     19  C   UNL     1       6.485  -5.320  25.587  0.00  0.00    +0.165 A 
ATOM     20  C   UNL     1       7.766  -5.437  26.097  0.00  0.00    +0.147 A 
ATOM     21  C   UNL     1       8.808  -5.436  25.166  0.00  0.00    +0.147 A 
ATOM     22  N   UNL     1       8.499  -5.395  23.846  0.00  0.00    -0.219 NA
ATOM     23  C   UNL     1       7.197  -5.301  23.497  0.00  0.00    +0.225 A 
ATOM     24  N   UNL     1       7.741  -5.511  27.471  0.00  0.00    -0.231 NA
ATOM     25  N   UNL     1       6.119  -5.231  24.300  0.00  0.00    -0.216 NA
ATOM     26  C   UNL     1       6.467  -5.415  27.794  0.00  0.00    +0.201 A 
BRANCH  21  27
ATOM     27  N   UNL     1      10.146  -5.470  25.533  0.00  0.00    -0.341 N 
ATOM     28  H   UNL     1      10.736  -5.852  24.805  0.00  0.00    +0.144 HD
ATOM     29  H   UNL     1      10.291  -5.796  26.477  0.00  0.00    +0.144 HD
ENDBRANCH  21  27
ENDBRANCH  17  18
ENDBRANCH  16  17
ENDBRANCH  14  16
ENDBRANCH  13  14
ENDBRANCH   1  13
BRANCH   1  30
ATOM     30  O   UNL     1       6.990   1.182  25.938  0.00  0.00    -0.431 OA
BRANCH  30  31
ATOM     31  C   UNL     1       7.165   2.050  24.820  0.00  0.00    +0.129 A 
ATOM     32  C   UNL     1       6.291   1.924  23.745  0.00  0.00    +0.046 A 
ATOM     33  C   UNL     1       6.396   2.784  22.624  0.00  0.00    +0.004 A 
ATOM     34  C   UNL     1       7.385   3.769  22.539  0.00  0.00    +0.000 A 
ATOM     35  C   UNL     1       8.275   3.896  23.573  0.00  0.00    +0.004 A 
ATOM     36  C   UNL     1       8.151   3.046  24.678  0.00  0.00    +0.046 A 
ENDBRANCH  30  31
ENDBRANCH   1  30
TORSDOF 13
ENDMDL
MODEL 7
REMARK VINA RESULT:      -6.6      1.814      3.506
REMARK  Name = 
REMARK  17 active torsions:
REMARK  status: ('A' for Active; 'I' for Inactive)
REMARK    1  A    between atoms: C_1  and  C_2
REMARK    2  A    between atoms: C_2  and  C_4
REMARK    3  A    between atoms: C_2  and  O_15
REMARK    4  A    between atoms: C_4  and  N_5
REMARK    5  A    between atoms: C_9  and  N_14
REMARK    6  A    between atoms: O_15  and  C_16
REMARK    7  A    between atoms: C_16  and  P_17
REMARK    8  A    between atoms: P_17  and  N_19
REMARK    9  A    between atoms: P_17  and  O_29
REMARK   10  A    between atoms: N_19  and  C_20
REMARK   11  A    between atoms: C_20  and  C_22
REMARK   12  A    between atoms: C_20  and  C_23
REMARK   13  A    between atoms: C_23  and  O_25
REMARK   14  A    between atoms: O_25  and  C_26
REMARK   15  A    between atoms: C_26  and  C_27
REMARK   16  A    between atoms: C_26  and  C_28
REMARK   17  A    between atoms: O_29  and  C_30
REMARK                            x       y       z     vdW  Elec       q    Type
REMARK                         _______ _______ _______ _____ _____    ______ ____
ROOT
ATOM      1  P   UNL     1       9.143  -3.328  24.563  0.00  0.00    +0.345 P 
ATOM      2  O   UNL     1       8.745  -4.547  23.714  0.00  0.00    -0.257 OA
ENDROOT
BRANCH   1   3
ATOM      3  N   UNL     1       7.871  -2.211  24.532  0.00  0.00    -0.221 NA
ATOM      4  H   UNL     1       7.211  -2.509  23.807  0.00  0.00    +0.133 HD
BRANCH   3   5
ATOM      5  C   UNL     1       7.116  -1.509  25.562  0.00  0.00    +0.169 C 
ATOM      6  C   UNL     1       8.099  -0.716  26.445  0.00  0.00    +0.036 C 
BRANCH   5   7
ATOM      7  C   UNL     1       6.206  -0.431  24.989  0.00  0.00    +0.325 C 
ATOM      8  O   UNL     1       4.985  -0.390  25.136  0.00  0.00    -0.249 OA
BRANCH   7   9
ATOM      9  O   UNL     1       6.925   0.424  24.232  0.00  0.00    -0.461 OA
BRANCH   9  10
ATOM     10  C   UNL     1       6.442   1.770  24.206  0.00  0.00    +0.170 C 
ATOM     11  C   UNL     1       6.301   2.106  22.729  0.00  0.00    +0.052 C 
ATOM     12  C   UNL     1       7.397   2.719  24.916  0.00  0.00    +0.052 C 
ENDBRANCH   9  10
ENDBRANCH   7   9
ENDBRANCH   5   7
ENDBRANCH   3   5
ENDBRANCH   1   3
BRANCH   1  13
ATOM     13  C   UNL     1       8.220  -4.042  25.972  0.00  0.00    +0.286 C 
BRANCH  13  14
ATOM     14  O   UNL     1       7.330  -5.118  25.571  0.00  0.00    -0.363 OA
BRANCH  14  16
ATOM     15  C   UNL     1       6.401  -5.408  27.754  0.00  0.00    +0.040 C 
ATOM     16  C   UNL     1       6.095  -5.240  26.268  0.00  0.00    +0.136 C 
BRANCH  16  17
ATOM     17  C   UNL     1       5.237  -6.368  25.711  0.00  0.00    +0.156 C 
BRANCH  17  18
ATOM     18  N   UNL     1       4.387  -6.079  24.575  0.00  0.00    -0.312 N 
ATOM     19  C   UNL     1       3.323  -6.871  24.233  0.00  0.00    +0.165 A 
ATOM     20  C   UNL     1       2.610  -6.133  23.306  0.00  0.00    +0.147 A 
ATOM     21  C   UNL     1       1.410  -6.694  22.856  0.00  0.00    +0.147 A 
ATOM     22  N   UNL     1       1.069  -7.932  23.293  0.00  0.00    -0.219 NA
ATOM     23  C   UNL     1       1.879  -8.540  24.187  0.00  0.00    +0.225 A 
ATOM     24  N   UNL     1       3.247  -4.946  23.029  0.00  0.00    -0.231 NA
ATOM     25  N   UNL     1       3.017  -8.076  24.735  0.00  0.00    -0.216 NA
ATOM     26  C   UNL     1       4.320  -4.948  23.795  0.00  0.00    +0.201 A 
BRANCH  21  27
ATOM     27  N   UNL     1       0.552  -6.037  21.986  0.00  0.00    -0.341 N 
ATOM     28  H   UNL     1       0.758  -5.049  21.914  0.00  0.00    +0.144 HD
ATOM     29  H   UNL     1      -0.413  -6.310  22.098  0.00  0.00    +0.144 HD
ENDBRANCH  21  27
ENDBRANCH  17  18
ENDBRANCH  16  17
ENDBRANCH  14  16
ENDBRANCH  13  14
ENDBRANCH   1  13
BRANCH   1  30
ATOM     30  O   UNL     1      10.016  -2.654  23.230  0.00  0.00    -0.431 OA
BRANCH  30  31
ATOM     31  C   UNL     1       9.996  -1.247  22.998  0.00  0.00    +0.129 A 
ATOM     32  C   UNL     1      10.509  -0.410  23.982  0.00  0.00    +0.046 A 
ATOM     33  C   UNL     1      10.547   0.993  23.789  0.00  0.00    +0.004 A 
ATOM     34  C   UNL     1      10.054   1.592  22.625  0.00  0.00    +0.000 A 
ATOM     35  C   UNL     1       9.519   0.791  21.652  0.00  0.00    +0.004 A 
ATOM     36  C   UNL     1       9.499  -0.594  21.853  0.00  0.00    +0.046 A 
ENDBRANCH  30  31
ENDBRANCH   1  30
TORSDOF 13
ENDMDL
MODEL 8
REMARK VINA RESULT:      -6.5      2.987      7.656
REMARK  Name = 
REMARK  17 active torsions:
REMARK  status: ('A' for Active; 'I' for Inactive)
REMARK    1  A    between atoms: C_1  and  C_2
REMARK    2  A    between atoms: C_2  and  C_4
REMARK    3  A    between atoms: C_2  and  O_15
REMARK    4  A    between atoms: C_4  and  N_5
REMARK    5  A    between atoms: C_9  and  N_14
REMARK    6  A    between atoms: O_15  and  C_16
REMARK    7  A    between atoms: C_16  and  P_17
REMARK    8  A    between atoms: P_17  and  N_19
REMARK    9  A    between atoms: P_17  and  O_29
REMARK   10  A    between atoms: N_19  and  C_20
REMARK   11  A    between atoms: C_20  and  C_22
REMARK   12  A    between atoms: C_20  and  C_23
REMARK   13  A    between atoms: C_23  and  O_25
REMARK   14  A    between atoms: O_25  and  C_26
REMARK   15  A    between atoms: C_26  and  C_27
REMARK   16  A    between atoms: C_26  and  C_28
REMARK   17  A    between atoms: O_29  and  C_30
REMARK                            x       y       z     vdW  Elec       q    Type
REMARK                         _______ _______ _______ _____ _____    ______ ____
ROOT
ATOM      1  P   UNL     1       8.011  -1.271  25.935  0.00  0.00    +0.345 P 
ATOM      2  O   UNL     1       9.022  -1.085  27.079  0.00  0.00    -0.257 OA
ENDROOT
BRANCH   1   3
ATOM      3  N   UNL     1       7.556  -2.901  25.875  0.00  0.00    -0.221 NA
ATOM      4  H   UNL     1       6.899  -3.014  25.096  0.00  0.00    +0.133 HD
BRANCH   3   5
ATOM      5  C   UNL     1       8.273  -4.159  26.041  0.00  0.00    +0.169 C 
ATOM      6  C   UNL     1       7.444  -5.087  26.949  0.00  0.00    +0.036 C 
BRANCH   5   7
ATOM      7  C   UNL     1       8.386  -4.944  24.741  0.00  0.00    +0.325 C 
ATOM      8  O   UNL     1       9.381  -5.574  24.385  0.00  0.00    -0.249 OA
BRANCH   7   9
ATOM      9  O   UNL     1       7.268  -4.779  24.005  0.00  0.00    -0.461 OA
BRANCH   9  10
ATOM     10  C   UNL     1       7.485  -4.541  22.610  0.00  0.00    +0.170 C 
ATOM     11  C   UNL     1       6.699  -3.277  22.303  0.00  0.00    +0.052 C 
ATOM     12  C   UNL     1       7.022  -5.719  21.765  0.00  0.00    +0.052 C 
ENDBRANCH   9  10
ENDBRANCH   7   9
ENDBRANCH   5   7
ENDBRANCH   3   5
ENDBRANCH   1   3
BRANCH   1  13
ATOM     13  C   UNL     1       6.650  -1.141  27.152  0.00  0.00    +0.286 C 
BRANCH  13  14
ATOM     14  O   UNL     1       5.980   0.148  27.106  0.00  0.00    -0.363 OA
BRANCH  14  16
ATOM     15  C   UNL     1       7.027   1.333  28.898  0.00  0.00    +0.040 C 
ATOM     16  C   UNL     1       6.761   1.302  27.396  0.00  0.00    +0.136 C 
BRANCH  16  17
ATOM     17  C   UNL     1       6.101   2.577  26.887  0.00  0.00    +0.156 C 
BRANCH  17  18
ATOM     18  N   UNL     1       6.832   3.388  25.935  0.00  0.00    -0.312 N 
ATOM     19  C   UNL     1       6.778   3.164  24.585  0.00  0.00    +0.165 A 
ATOM     20  C   UNL     1       7.352   4.284  24.012  0.00  0.00    +0.147 A 
ATOM     21  C   UNL     1       7.341   4.342  22.616  0.00  0.00    +0.147 A 
ATOM     22  N   UNL     1       6.845   3.285  21.926  0.00  0.00    -0.219 NA
ATOM     23  C   UNL     1       6.334   2.249  22.625  0.00  0.00    +0.225 A 
ATOM     24  N   UNL     1       7.811   5.149  24.979  0.00  0.00    -0.231 NA
ATOM     25  N   UNL     1       6.233   2.110  23.960  0.00  0.00    -0.216 NA
ATOM     26  C   UNL     1       7.498   4.576  26.125  0.00  0.00    +0.201 A 
BRANCH  21  27
ATOM     27  N   UNL     1       7.811   5.437  21.904  0.00  0.00    -0.341 N 
ATOM     28  H   UNL     1       8.777   5.328  21.623  0.00  0.00    +0.144 HD
ATOM     29  H   UNL     1       7.534   6.321  22.305  0.00  0.00    +0.144 HD
ENDBRANCH  21  27
ENDBRANCH  17  18
ENDBRANCH  16  17
ENDBRANCH  14  16
ENDBRANCH  13  14
ENDBRANCH   1  13
BRANCH   1  30
ATOM     30  O   UNL     1       9.297  -1.393  24.784  0.00  0.00    -0.431 OA
BRANCH  30  31
ATOM     31  C   UNL     1       9.577  -0.306  23.904  0.00  0.00    +0.129 A 
ATOM     32  C   UNL     1       9.353  -0.486  22.544  0.00  0.00    +0.046 A 
ATOM     33  C   UNL     1       9.581   0.572  21.629  0.00  0.00    +0.004 A 
ATOM     34  C   UNL     1      10.058   1.819  22.045  0.00  0.00    +0.000 A 
ATOM     35  C   UNL     1      10.312   2.012  23.377  0.00  0.00    +0.004 A 
ATOM     36  C   UNL     1      10.071   0.961  24.270  0.00  0.00    +0.046 A 
ENDBRANCH  30  31
ENDBRANCH   1  30
TORSDOF 13
ENDMDL
MODEL 9
REMARK VINA RESULT:      -6.5      2.634      4.439
REMARK  Name = 
REMARK  17 active torsions:
REMARK  status: ('A' for Active; 'I' for Inactive)
REMARK    1  A    between atoms: C_1  and  C_2
REMARK    2  A    between atoms: C_2  and  C_4
REMARK    3  A    between atoms: C_2  and  O_15
REMARK    4  A    between atoms: C_4  and  N_5
REMARK    5  A    between atoms: C_9  and  N_14
REMARK    6  A    between atoms: O_15  and  C_16
REMARK    7  A    between atoms: C_16  and  P_17
REMARK    8  A    between atoms: P_17  and  N_19
REMARK    9  A    between atoms: P_17  and  O_29
REMARK   10  A    between atoms: N_19  and  C_20
REMARK   11  A    between atoms: C_20  and  C_22
REMARK   12  A    between atoms: C_20  and  C_23
REMARK   13  A    between atoms: C_23  and  O_25
REMARK   14  A    between atoms: O_25  and  C_26
REMARK   15  A    between atoms: C_26  and  C_27
REMARK   16  A    between atoms: C_26  and  C_28
REMARK   17  A    between atoms: O_29  and  C_30
REMARK                            x       y       z     vdW  Elec       q    Type
REMARK                         _______ _______ _______ _____ _____    ______ ____
ROOT
ATOM      1  P   UNL     1      10.412   1.531  23.939  0.00  0.00    +0.345 P 
ATOM      2  O   UNL     1      10.067   0.679  22.707  0.00  0.00    -0.257 OA
ENDROOT
BRANCH   1   3
ATOM      3  N   UNL     1       8.976   1.905  24.757  0.00  0.00    -0.221 NA
ATOM      4  H   UNL     1       9.099   2.821  25.199  0.00  0.00    +0.133 HD
BRANCH   3   5
ATOM      5  C   UNL     1       7.562   1.743  24.444  0.00  0.00    +0.169 C 
ATOM      6  C   UNL     1       6.728   2.358  25.585  0.00  0.00    +0.036 C 
BRANCH   5   7
ATOM      7  C   UNL     1       7.138   2.547  23.223  0.00  0.00    +0.325 C 
ATOM      8  O   UNL     1       7.071   2.103  22.078  0.00  0.00    -0.249 OA
BRANCH   7   9
ATOM      9  O   UNL     1       6.925   3.834  23.569  0.00  0.00    -0.461 OA
BRANCH   9  10
ATOM     10  C   UNL     1       6.187   4.607  22.619  0.00  0.00    +0.170 C 
ATOM     11  C   UNL     1       7.154   5.687  22.158  0.00  0.00    +0.052 C 
ATOM     12  C   UNL     1       4.928   5.198  23.238  0.00  0.00    +0.052 C 
ENDBRANCH   9  10
ENDBRANCH   7   9
ENDBRANCH   5   7
ENDBRANCH   3   5
ENDBRANCH   1   3
BRANCH   1  13
ATOM     13  C   UNL     1      10.370   0.016  24.966  0.00  0.00    +0.286 C 
BRANCH  13  14
ATOM     14  O   UNL     1       9.785  -1.116  24.267  0.00  0.00    -0.363 OA
BRANCH  14  16
ATOM     15  C   UNL     1       8.651  -1.332  26.360  0.00  0.00    +0.040 C 
ATOM     16  C   UNL     1       8.710  -1.795  24.907  0.00  0.00    +0.136 C 
BRANCH  16  17
ATOM     17  C   UNL     1       8.834  -3.307  24.774  0.00  0.00    +0.156 C 
BRANCH  17  18
ATOM     18  N   UNL     1       7.628  -4.100  24.886  0.00  0.00    -0.312 N 
ATOM     19  C   UNL     1       6.890  -4.475  23.794  0.00  0.00    +0.165 A 
ATOM     20  C   UNL     1       6.012  -5.433  24.266  0.00  0.00    +0.147 A 
ATOM     21  C   UNL     1       5.192  -6.047  23.314  0.00  0.00    +0.147 A 
ATOM     22  N   UNL     1       5.259  -5.620  22.028  0.00  0.00    -0.219 NA
ATOM     23  C   UNL     1       6.155  -4.657  21.721  0.00  0.00    +0.225 A 
ATOM     24  N   UNL     1       6.153  -5.601  25.624  0.00  0.00    -0.231 NA
ATOM     25  N   UNL     1       7.034  -4.042  22.534  0.00  0.00    -0.216 NA
ATOM     26  C   UNL     1       7.120  -4.776  25.971  0.00  0.00    +0.201 A 
BRANCH  21  27
ATOM     27  N   UNL     1       4.318  -7.078  23.626  0.00  0.00    -0.341 N 
ATOM     28  H   UNL     1       3.613  -6.796  24.296  0.00  0.00    +0.144 HD
ATOM     29  H   UNL     1       4.781  -7.962  23.774  0.00  0.00    +0.144 HD
ENDBRANCH  21  27
ENDBRANCH  17  18
ENDBRANCH  16  17
ENDBRANCH  14  16
ENDBRANCH  13  14
ENDBRANCH   1  13
BRANCH   1  30
ATOM     30  O   UNL     1      10.453   2.963  22.969  0.00  0.00    -0.431 OA
BRANCH  30  31
ATOM     31  C   UNL     1      10.846   4.207  23.544  0.00  0.00    +0.129 A 
ATOM     32  C   UNL     1      12.166   4.617  23.387  0.00  0.00    +0.046 A 
ATOM     33  C   UNL     1      12.602   5.861  23.906  0.00  0.00    +0.004 A 
ATOM     34  C   UNL     1      11.742   6.710  24.611  0.00  0.00    +0.000 A 
ATOM     35  C   UNL     1      10.445   6.316  24.802  0.00  0.00    +0.004 A 
ATOM     36  C   UNL     1      10.026   5.090  24.273  0.00  0.00    +0.046 A 
ENDBRANCH  30  31
ENDBRANCH   1  30
TORSDOF 13
ENDMDL
