MODEL 1
REMARK VINA RESULT:      -6.4      0.000      0.000
REMARK  Name = 
REMARK  16 active torsions:
REMARK  status: ('A' for Active; 'I' for Inactive)
REMARK    1  A    between atoms: C_1  and  C_2
REMARK    2  A    between atoms: C_2  and  C_3
REMARK    3  A    between atoms: C_2  and  C_4
REMARK    4  A    between atoms: C_4  and  N_5
REMARK    5  A    between atoms: N_5  and  C_6
REMARK    6  A    between atoms: N_5  and  S_29
REMARK    7  A    between atoms: C_6  and  C_7
REMARK    8  A    between atoms: C_7  and  C_9
REMARK    9  A    between atoms: C_7  and  O_28
REMARK   10  A    between atoms: C_9  and  C_11
REMARK   11  A    between atoms: C_9  and  N_18
REMARK   12  A    between atoms: C_11  and  C_12
REMARK   13  A    between atoms: C_19  and  O_21
REMARK   14  A    between atoms: O_21  and  C_22
REMARK   15  A    between atoms: S_29  and  C_32
REMARK   16  A    between atoms: C_35  and  N_38
REMARK                            x       y       z     vdW  Elec       q    Type
REMARK                         _______ _______ _______ _____ _____    ______ ____
ROOT
ATOM      1  C   UNL     1       6.437  -1.646  22.967  0.00  0.00    +0.151 C 
ENDROOT
BRANCH   1   2
ATOM      2  O   UNL     1       5.614  -2.355  21.998  0.00  0.00    -0.389 OA
ATOM      3  H   UNL     1       4.752  -1.906  21.997  0.00  0.00    +0.210 HD
ENDBRANCH   1   2
BRANCH   1   4
ATOM      4  C   UNL     1       5.554  -1.322  24.194  0.00  0.00    +0.142 C 
BRANCH   4   5
ATOM      5  N   UNL     1       6.036  -0.115  24.977  0.00  0.00    -0.174 NA
BRANCH   5   6
ATOM      6  S   UNL     1       6.641  -0.365  26.564  0.00  0.00    +0.061 S 
ATOM      7  O   UNL     1       5.579  -0.102  27.501  0.00  0.00    -0.153 OA
ATOM      8  O   UNL     1       7.922   0.307  26.676  0.00  0.00    -0.153 OA
BRANCH   6   9
ATOM      9  C   UNL     1       6.978  -2.124  26.700  0.00  0.00    +0.106 A 
ATOM     10  C   UNL     1       5.998  -2.986  27.189  0.00  0.00    +0.030 A 
ATOM     11  C   UNL     1       6.286  -4.345  27.371  0.00  0.00    +0.024 A 
ATOM     12  C   UNL     1       7.551  -4.862  27.075  0.00  0.00    +0.025 A 
ATOM     13  C   UNL     1       8.557  -3.967  26.703  0.00  0.00    +0.024 A 
ATOM     14  C   UNL     1       8.274  -2.609  26.490  0.00  0.00    +0.030 A 
BRANCH  12  15
ATOM     15  N   UNL     1       7.859  -6.187  27.393  0.00  0.00    -0.358 N 
ATOM     16  H   UNL     1       7.341  -6.878  26.858  0.00  0.00    +0.142 HD
ATOM     17  H   UNL     1       8.854  -6.394  27.415  0.00  0.00    +0.142 HD
ENDBRANCH  12  15
ENDBRANCH   6   9
ENDBRANCH   5   6
BRANCH   5  18
ATOM     18  C   UNL     1       5.751   1.303  24.540  0.00  0.00    +0.112 C 
BRANCH  18  20
ATOM     19  C   UNL     1       6.479   2.450  22.364  0.00  0.00    +0.008 C 
ATOM     20  C   UNL     1       6.888   2.034  23.781  0.00  0.00    -0.001 C 
ATOM     21  C   UNL     1       7.370   3.282  24.539  0.00  0.00    +0.008 C 
ENDBRANCH  18  20
ENDBRANCH   5  18
ENDBRANCH   4   5
ENDBRANCH   1   4
BRANCH   1  22
ATOM     22  C   UNL     1       7.743  -2.545  23.199  0.00  0.00    +0.110 C 
BRANCH  22  23
ATOM     23  N   UNL     1       7.287  -3.872  22.704  0.00  0.00    -0.275 N 
ATOM     24  H   UNL     1       6.296  -3.853  22.469  0.00  0.00    +0.152 HD
ATOM     25  C   UNL     1       7.579  -5.104  23.177  0.00  0.00    +0.401 C 
ATOM     26  O   UNL     1       8.586  -5.434  23.777  0.00  0.00    -0.226 OA
BRANCH  25  27
ATOM     27  O   UNL     1       6.521  -5.930  22.948  0.00  0.00    -0.445 OA
BRANCH  27  28
ATOM     28  C   UNL     1       5.361  -5.628  23.730  0.00  0.00    +0.206 C 
ATOM     29  C   UNL     1       4.995  -6.712  24.733  0.00  0.00    +0.204 C 
ATOM     30  O   UNL     1       3.575  -6.632  24.942  0.00  0.00    -0.376 OA
ATOM     31  C   UNL     1       3.023  -5.783  23.928  0.00  0.00    +0.163 C 
ATOM     32  C   UNL     1       4.103  -5.584  22.885  0.00  0.00    +0.075 C 
ENDBRANCH  27  28
ENDBRANCH  25  27
ENDBRANCH  22  23
BRANCH  22  33
ATOM     33  C   UNL     1       9.017  -1.941  22.490  0.00  0.00    +0.060 C 
BRANCH  33  34
ATOM     34  C   UNL     1       9.582  -0.524  22.682  0.00  0.00    -0.046 A 
ATOM     35  C   UNL     1      10.107  -0.182  23.958  0.00  0.00    +0.004 A 
ATOM     36  C   UNL     1      10.617   1.094  24.247  0.00  0.00    +0.000 A 
ATOM     37  C   UNL     1      10.611   2.079  23.273  0.00  0.00    +0.000 A 
ATOM     38  C   UNL     1      10.113   1.772  22.005  0.00  0.00    +0.000 A 
ATOM     39  C   UNL     1       9.627   0.478  21.715  0.00  0.00    +0.004 A 
ENDBRANCH  33  34
ENDBRANCH  22  33
ENDBRANCH   1  22
TORSDOF 14
ENDMDL
MODEL 2
REMARK VINA RESULT:      -6.4      3.137      6.564
REMARK  Name = 
REMARK  16 active torsions:
REMARK  status: ('A' for Active; 'I' for Inactive)
REMARK    1  A    between atoms: C_1  and  C_2
REMARK    2  A    between atoms: C_2  and  C_3
REMARK    3  A    between atoms: C_2  and  C_4
REMARK    4  A    between atoms: C_4  and  N_5
REMARK    5  A    between atoms: N_5  and  C_6
REMARK    6  A    between atoms: N_5  and  S_29
REMARK    7  A    between atoms: C_6  and  C_7
REMARK    8  A    between atoms: C_7  and  C_9
REMARK    9  A    between atoms: C_7  and  O_28
REMARK   10  A    between atoms: C_9  and  C_11
REMARK   11  A    between atoms: C_9  and  N_18
REMARK   12  A    between atoms: C_11  and  C_12
REMARK   13  A    between atoms: C_19  and  O_21
REMARK   14  A    between atoms: O_21  and  C_22
REMARK   15  A    between atoms: S_29  and  C_32
REMARK   16  A    between atoms: C_35  and  N_38
REMARK                            x       y       z     vdW  Elec       q    Type
REMARK                         _______ _______ _______ _____ _____    ______ ____
ROOT
ATOM      1  C   UNL     1       9.168  -0.026  22.257  0.00  0.00    +0.151 C 
ENDROOT
BRANCH   1   2
ATOM      2  O   UNL     1       9.523  -0.804  21.078  0.00  0.00    -0.389 OA
ATOM      3  H   UNL     1      10.103  -0.234  20.544  0.00  0.00    +0.210 HD
ENDBRANCH   1   2
BRANCH   1   4
ATOM      4  C   UNL     1       9.652  -0.804  23.502  0.00  0.00    +0.142 C 
BRANCH   4   5
ATOM      5  N   UNL     1       8.547  -1.589  24.184  0.00  0.00    -0.174 NA
BRANCH   5   6
ATOM      6  S   UNL     1       8.907  -3.163  24.765  0.00  0.00    +0.061 S 
ATOM      7  O   UNL     1       8.749  -3.167  26.197  0.00  0.00    -0.153 OA
ATOM      8  O   UNL     1      10.143  -3.607  24.147  0.00  0.00    -0.153 OA
BRANCH   6   9
ATOM      9  C   UNL     1       7.613  -4.237  24.135  0.00  0.00    +0.106 A 
ATOM     10  C   UNL     1       7.464  -4.419  22.761  0.00  0.00    +0.030 A 
ATOM     11  C   UNL     1       6.405  -5.192  22.266  0.00  0.00    +0.024 A 
ATOM     12  C   UNL     1       5.481  -5.788  23.128  0.00  0.00    +0.025 A 
ATOM     13  C   UNL     1       5.570  -5.498  24.492  0.00  0.00    +0.024 A 
ATOM     14  C   UNL     1       6.640  -4.749  25.003  0.00  0.00    +0.030 A 
BRANCH  12  15
ATOM     15  N   UNL     1       4.357  -6.437  22.611  0.00  0.00    -0.358 N 
ATOM     16  H   UNL     1       3.473  -5.987  22.831  0.00  0.00    +0.142 HD
ATOM     17  H   UNL     1       4.425  -6.673  21.624  0.00  0.00    +0.142 HD
ENDBRANCH  12  15
ENDBRANCH   6   9
ENDBRANCH   5   6
BRANCH   5  18
ATOM     18  C   UNL     1       7.097  -1.168  24.126  0.00  0.00    +0.112 C 
BRANCH  18  20
ATOM     19  C   UNL     1       5.738  -1.421  26.287  0.00  0.00    +0.008 C 
ATOM     20  C   UNL     1       6.529  -0.466  25.385  0.00  0.00    -0.001 C 
ATOM     21  C   UNL     1       7.639   0.191  26.222  0.00  0.00    +0.008 C 
ENDBRANCH  18  20
ENDBRANCH   5  18
ENDBRANCH   4   5
ENDBRANCH   1   4
BRANCH   1  22
ATOM     22  C   UNL     1       9.751   1.448  22.021  0.00  0.00    +0.110 C 
BRANCH  22  23
ATOM     23  N   UNL     1       8.558   2.163  21.495  0.00  0.00    -0.275 N 
ATOM     24  H   UNL     1       8.832   2.932  20.886  0.00  0.00    +0.152 HD
ATOM     25  C   UNL     1       7.429   2.529  22.142  0.00  0.00    +0.401 C 
ATOM     26  O   UNL     1       6.941   1.986  23.117  0.00  0.00    -0.226 OA
BRANCH  25  27
ATOM     27  O   UNL     1       6.944   3.670  21.581  0.00  0.00    -0.445 OA
BRANCH  27  28
ATOM     28  C   UNL     1       6.843   4.773  22.487  0.00  0.00    +0.206 C 
ATOM     29  C   UNL     1       5.412   5.184  22.800  0.00  0.00    +0.204 C 
ATOM     30  O   UNL     1       5.436   6.585  23.122  0.00  0.00    -0.376 OA
ATOM     31  C   UNL     1       6.717   7.107  22.744  0.00  0.00    +0.163 C 
ATOM     32  C   UNL     1       7.384   6.054  21.884  0.00  0.00    +0.075 C 
ENDBRANCH  27  28
ENDBRANCH  25  27
ENDBRANCH  22  23
BRANCH  22  33
ATOM     33  C   UNL     1      10.397   2.050  23.330  0.00  0.00    +0.060 C 
BRANCH  33  34
ATOM     34  C   UNL     1      10.575   3.542  23.656  0.00  0.00    -0.046 A 
ATOM     35  C   UNL     1      11.798   4.165  23.289  0.00  0.00    +0.004 A 
ATOM     36  C   UNL     1      12.073   5.513  23.569  0.00  0.00    +0.000 A 
ATOM     37  C   UNL     1      11.138   6.286  24.238  0.00  0.00    +0.000 A 
ATOM     38  C   UNL     1       9.920   5.708  24.603  0.00  0.00    +0.000 A 
ATOM     39  C   UNL     1       9.642   4.358  24.293  0.00  0.00    +0.004 A 
ENDBRANCH  33  34
ENDBRANCH  22  33
ENDBRANCH   1  22
TORSDOF 14
ENDMDL
MODEL 3
REMARK VINA RESULT:      -6.3      2.365      4.754
REMARK  Name = 
REMARK  16 active torsions:
REMARK  status: ('A' for Active; 'I' for Inactive)
REMARK    1  A    between atoms: C_1  and  C_2
REMARK    2  A    between atoms: C_2  and  C_3
REMARK    3  A    between atoms: C_2  and  C_4
REMARK    4  A    between atoms: C_4  and  N_5
REMARK    5  A    between atoms: N_5  and  C_6
REMARK    6  A    between atoms: N_5  and  S_29
REMARK    7  A    between atoms: C_6  and  C_7
REMARK    8  A    between atoms: C_7  and  C_9
REMARK    9  A    between atoms: C_7  and  O_28
REMARK   10  A    between atoms: C_9  and  C_11
REMARK   11  A    between atoms: C_9  and  N_18
REMARK   12  A    between atoms: C_11  and  C_12
REMARK   13  A    between atoms: C_19  and  O_21
REMARK   14  A    between atoms: O_21  and  C_22
REMARK   15  A    between atoms: S_29  and  C_32
REMARK   16  A    between atoms: C_35  and  N_38
REMARK                            x       y       z     vdW  Elec       q    Type
REMARK                         _______ _______ _______ _____ _____    ______ ____
ROOT
ATOM      1  C   UNL     1       7.939   0.117  25.911  0.00  0.00    +0.151 C 
ENDROOT
BRANCH   1   2
ATOM      2  O   UNL     1       7.883   0.328  27.351  0.00  0.00    -0.389 OA
ATOM      3  H   UNL     1       7.001   0.692  27.536  0.00  0.00    +0.210 HD
ENDBRANCH   1   2
BRANCH   1   4
ATOM      4  C   UNL     1       8.933  -1.034  25.638  0.00  0.00    +0.142 C 
BRANCH   4   5
ATOM      5  N   UNL     1       9.668  -0.890  24.318  0.00  0.00    -0.174 NA
BRANCH   5   6
ATOM      6  S   UNL     1       9.804  -2.272  23.309  0.00  0.00    +0.061 S 
ATOM      7  O   UNL     1      10.538  -3.285  24.022  0.00  0.00    -0.153 OA
ATOM      8  O   UNL     1      10.220  -1.835  21.989  0.00  0.00    -0.153 OA
BRANCH   6   9
ATOM      9  C   UNL     1       8.140  -2.924  23.126  0.00  0.00    +0.106 A 
ATOM     10  C   UNL     1       7.101  -2.083  22.729  0.00  0.00    +0.030 A 
ATOM     11  C   UNL     1       5.789  -2.571  22.663  0.00  0.00    +0.024 A 
ATOM     12  C   UNL     1       5.494  -3.896  22.996  0.00  0.00    +0.025 A 
ATOM     13  C   UNL     1       6.522  -4.692  23.508  0.00  0.00    +0.024 A 
ATOM     14  C   UNL     1       7.844  -4.224  23.552  0.00  0.00    +0.030 A 
BRANCH  12  15
ATOM     15  N   UNL     1       4.166  -4.323  23.057  0.00  0.00    -0.358 N 
ATOM     16  H   UNL     1       3.596  -3.829  23.739  0.00  0.00    +0.142 HD
ATOM     17  H   UNL     1       3.702  -4.388  22.154  0.00  0.00    +0.142 HD
ENDBRANCH  12  15
ENDBRANCH   6   9
ENDBRANCH   5   6
BRANCH   5  18
ATOM     18  C   UNL     1      10.513   0.317  23.987  0.00  0.00    +0.112 C 
BRANCH  18  20
ATOM     19  C   UNL     1      10.476   2.852  23.589  0.00  0.00    +0.008 C 
ATOM     20  C   UNL     1       9.782   1.511  23.322  0.00  0.00    -0.001 C 
ATOM     21  C   UNL     1       9.647   1.324  21.802  0.00  0.00    +0.008 C 
ENDBRANCH  18  20
ENDBRANCH   5  18
ENDBRANCH   4   5
ENDBRANCH   1   4
BRANCH   1  22
ATOM     22  C   UNL     1       6.424  -0.068  25.420  0.00  0.00    +0.110 C 
BRANCH  22  23
ATOM     23  N   UNL     1       5.842  -0.864  26.534  0.00  0.00    -0.275 N 
ATOM     24  H   UNL     1       6.548  -1.083  27.234  0.00  0.00    +0.152 HD
ATOM     25  C   UNL     1       4.977  -1.901  26.477  0.00  0.00    +0.401 C 
ATOM     26  O   UNL     1       4.152  -2.114  25.606  0.00  0.00    -0.226 OA
BRANCH  25  27
ATOM     27  O   UNL     1       5.217  -2.738  27.523  0.00  0.00    -0.445 OA
BRANCH  27  28
ATOM     28  C   UNL     1       5.737  -4.016  27.144  0.00  0.00    +0.206 C 
ATOM     29  C   UNL     1       5.584  -5.086  28.215  0.00  0.00    +0.204 C 
ATOM     30  O   UNL     1       6.651  -6.031  28.023  0.00  0.00    -0.376 OA
ATOM     31  C   UNL     1       7.595  -5.457  27.109  0.00  0.00    +0.163 C 
ATOM     32  C   UNL     1       7.243  -3.990  26.977  0.00  0.00    +0.075 C 
ENDBRANCH  27  28
ENDBRANCH  25  27
ENDBRANCH  22  23
BRANCH  22  33
ATOM     33  C   UNL     1       5.724   1.313  25.116  0.00  0.00    +0.060 C 
BRANCH  33  34
ATOM     34  C   UNL     1       6.234   2.404  24.161  0.00  0.00    -0.046 A 
ATOM     35  C   UNL     1       6.815   3.571  24.728  0.00  0.00    +0.004 A 
ATOM     36  C   UNL     1       7.283   4.639  23.946  0.00  0.00    +0.000 A 
ATOM     37  C   UNL     1       7.177   4.584  22.565  0.00  0.00    +0.000 A 
ATOM     38  C   UNL     1       6.622   3.447  21.975  0.00  0.00    +0.000 A 
ATOM     39  C   UNL     1       6.178   2.366  22.769  0.00  0.00    +0.004 A 
ENDBRANCH  33  34
ENDBRANCH  22  33
ENDBRANCH   1  22
TORSDOF 14
ENDMDL
MODEL 4
REMARK VINA RESULT:      -6.3      2.272      4.889
REMARK  Name = 
REMARK  16 active torsions:
REMARK  status: ('A' for Active; 'I' for Inactive)
REMARK    1  A    between atoms: C_1  and  C_2
REMARK    2  A    between atoms: C_2  and  C_3
REMARK    3  A    between atoms: C_2  and  C_4
REMARK    4  A    between atoms: C_4  and  N_5
REMARK    5  A    between atoms: N_5  and  C_6
REMARK    6  A    between atoms: N_5  and  S_29
REMARK    7  A    between atoms: C_6  and  C_7
REMARK    8  A    between atoms: C_7  and  C_9
REMARK    9  A    between atoms: C_7  and  O_28
REMARK   10  A    between atoms: C_9  and  C_11
REMARK   11  A    between atoms: C_9  and  N_18
REMARK   12  A    between atoms: C_11  and  C_12
REMARK   13  A    between atoms: C_19  and  O_21
REMARK   14  A    between atoms: O_21  and  C_22
REMARK   15  A    between atoms: S_29  and  C_32
REMARK   16  A    between atoms: C_35  and  N_38
REMARK                            x       y       z     vdW  Elec       q    Type
REMARK                         _______ _______ _______ _____ _____    ______ ____
ROOT
ATOM      1  C   UNL     1       6.934  -1.347  26.752  0.00  0.00    +0.151 C 
ENDROOT
BRANCH   1   2
ATOM      2  O   UNL     1       6.906   0.079  27.045  0.00  0.00    -0.389 OA
ATOM      3  H   UNL     1       6.072   0.240  27.519  0.00  0.00    +0.210 HD
ENDBRANCH   1   2
BRANCH   1   4
ATOM      4  C   UNL     1       5.608  -1.713  26.047  0.00  0.00    +0.142 C 
BRANCH   4   5
ATOM      5  N   UNL     1       4.937  -2.941  26.634  0.00  0.00    -0.174 NA
BRANCH   5   6
ATOM      6  S   UNL     1       3.225  -3.035  26.582  0.00  0.00    +0.061 S 
ATOM      7  O   UNL     1       2.718  -1.801  26.036  0.00  0.00    -0.153 OA
ATOM      8  O   UNL     1       2.754  -3.537  27.859  0.00  0.00    -0.153 OA
BRANCH   6   9
ATOM      9  C   UNL     1       2.829  -4.296  25.366  0.00  0.00    +0.106 A 
ATOM     10  C   UNL     1       1.934  -5.316  25.684  0.00  0.00    +0.030 A 
ATOM     11  C   UNL     1       1.686  -6.345  24.766  0.00  0.00    +0.024 A 
ATOM     12  C   UNL     1       2.328  -6.375  23.524  0.00  0.00    +0.025 A 
ATOM     13  C   UNL     1       3.311  -5.417  23.267  0.00  0.00    +0.024 A 
ATOM     14  C   UNL     1       3.548  -4.366  24.166  0.00  0.00    +0.030 A 
BRANCH  12  15
ATOM     15  N   UNL     1       2.172  -7.479  22.682  0.00  0.00    -0.358 N 
ATOM     16  H   UNL     1       1.707  -8.273  23.112  0.00  0.00    +0.142 HD
ATOM     17  H   UNL     1       1.780  -7.260  21.770  0.00  0.00    +0.142 HD
ENDBRANCH  12  15
ENDBRANCH   6   9
ENDBRANCH   5   6
BRANCH   5  18
ATOM     18  C   UNL     1       5.677  -3.936  27.499  0.00  0.00    +0.112 C 
BRANCH  18  20
ATOM     19  C   UNL     1       7.625  -5.559  27.110  0.00  0.00    +0.008 C 
ATOM     20  C   UNL     1       6.159  -5.233  26.802  0.00  0.00    -0.001 C 
ATOM     21  C   UNL     1       5.296  -6.445  27.189  0.00  0.00    +0.008 C 
ENDBRANCH  18  20
ENDBRANCH   5  18
ENDBRANCH   4   5
ENDBRANCH   1   4
BRANCH   1  22
ATOM     22  C   UNL     1       8.302  -1.622  25.964  0.00  0.00    +0.110 C 
BRANCH  22  23
ATOM     23  N   UNL     1       7.858  -2.574  24.912  0.00  0.00    -0.275 N 
ATOM     24  H   UNL     1       7.032  -3.090  25.211  0.00  0.00    +0.152 HD
ATOM     25  C   UNL     1       8.601  -3.395  24.137  0.00  0.00    +0.401 C 
ATOM     26  O   UNL     1       9.759  -3.225  23.797  0.00  0.00    -0.226 OA
BRANCH  25  27
ATOM     27  O   UNL     1       7.876  -4.510  23.845  0.00  0.00    -0.445 OA
BRANCH  27  28
ATOM     28  C   UNL     1       7.539  -4.645  22.461  0.00  0.00    +0.206 C 
ATOM     29  C   UNL     1       6.445  -3.694  21.998  0.00  0.00    +0.204 C 
ATOM     30  O   UNL     1       5.771  -4.329  20.899  0.00  0.00    -0.376 OA
ATOM     31  C   UNL     1       6.183  -5.701  20.857  0.00  0.00    +0.163 C 
ATOM     32  C   UNL     1       6.899  -5.985  22.161  0.00  0.00    +0.075 C 
ENDBRANCH  27  28
ENDBRANCH  25  27
ENDBRANCH  22  23
BRANCH  22  33
ATOM     33  C   UNL     1       8.974  -0.288  25.452  0.00  0.00    +0.060 C 
BRANCH  33  34
ATOM     34  C   UNL     1       8.785   0.354  24.068  0.00  0.00    -0.046 A 
ATOM     35  C   UNL     1       9.911   0.419  23.203  0.00  0.00    +0.004 A 
ATOM     36  C   UNL     1       9.854   1.014  21.932  0.00  0.00    +0.000 A 
ATOM     37  C   UNL     1       8.670   1.576  21.483  0.00  0.00    +0.000 A 
ATOM     38  C   UNL     1       7.542   1.518  22.303  0.00  0.00    +0.000 A 
ATOM     39  C   UNL     1       7.601   0.895  23.569  0.00  0.00    +0.004 A 
ENDBRANCH  33  34
ENDBRANCH  22  33
ENDBRANCH   1  22
TORSDOF 14
ENDMDL
MODEL 5
REMARK VINA RESULT:      -6.2      2.708      5.904
REMARK  Name = 
REMARK  16 active torsions:
REMARK  status: ('A' for Active; 'I' for Inactive)
REMARK    1  A    between atoms: C_1  and  C_2
REMARK    2  A    between atoms: C_2  and  C_3
REMARK    3  A    between atoms: C_2  and  C_4
REMARK    4  A    between atoms: C_4  and  N_5
REMARK    5  A    between atoms: N_5  and  C_6
REMARK    6  A    between atoms: N_5  and  S_29
REMARK    7  A    between atoms: C_6  and  C_7
REMARK    8  A    between atoms: C_7  and  C_9
REMARK    9  A    between atoms: C_7  and  O_28
REMARK   10  A    between atoms: C_9  and  C_11
REMARK   11  A    between atoms: C_9  and  N_18
REMARK   12  A    between atoms: C_11  and  C_12
REMARK   13  A    between atoms: C_19  and  O_21
REMARK   14  A    between atoms: O_21  and  C_22
REMARK   15  A    between atoms: S_29  and  C_32
REMARK   16  A    between atoms: C_35  and  N_38
REMARK                            x       y       z     vdW  Elec       q    Type
REMARK                         _______ _______ _______ _____ _____    ______ ____
ROOT
ATOM      1  C   UNL     1       9.409  -0.557  22.359  0.00  0.00    +0.151 C 
ENDROOT
BRANCH   1   2
ATOM      2  O   UNL     1      10.202  -1.383  21.459  0.00  0.00    -0.389 OA
ATOM      3  H   UNL     1      10.219  -0.914  20.607  0.00  0.00    +0.210 HD
ENDBRANCH   1   2
BRANCH   1   4
ATOM      4  C   UNL     1       9.599  -1.101  23.793  0.00  0.00    +0.142 C 
BRANCH   4   5
ATOM      5  N   UNL     1       8.534  -2.102  24.200  0.00  0.00    -0.174 NA
BRANCH   5   6
ATOM      6  S   UNL     1       7.726  -1.866  25.696  0.00  0.00    +0.061 S 
ATOM      7  O   UNL     1       6.603  -0.991  25.473  0.00  0.00    -0.153 OA
ATOM      8  O   UNL     1       8.719  -1.566  26.711  0.00  0.00    -0.153 OA
BRANCH   6   9
ATOM      9  C   UNL     1       7.015  -3.455  26.137  0.00  0.00    +0.106 A 
ATOM     10  C   UNL     1       5.642  -3.664  26.015  0.00  0.00    +0.030 A 
ATOM     11  C   UNL     1       5.076  -4.876  26.434  0.00  0.00    +0.024 A 
ATOM     12  C   UNL     1       5.866  -5.889  26.984  0.00  0.00    +0.025 A 
ATOM     13  C   UNL     1       7.217  -5.621  27.214  0.00  0.00    +0.024 A 
ATOM     14  C   UNL     1       7.801  -4.424  26.773  0.00  0.00    +0.030 A 
BRANCH  12  15
ATOM     15  N   UNL     1       5.265  -7.031  27.522  0.00  0.00    -0.358 N 
ATOM     16  H   UNL     1       5.052  -6.966  28.513  0.00  0.00    +0.142 HD
ATOM     17  H   UNL     1       4.475  -7.381  26.987  0.00  0.00    +0.142 HD
ENDBRANCH  12  15
ENDBRANCH   6   9
ENDBRANCH   5   6
BRANCH   5  18
ATOM     18  C   UNL     1       8.353  -3.427  23.497  0.00  0.00    +0.112 C 
BRANCH  18  20
ATOM     19  C   UNL     1       6.962  -4.846  21.874  0.00  0.00    +0.008 C 
ATOM     20  C   UNL     1       7.412  -3.434  22.266  0.00  0.00    -0.001 C 
ATOM     21  C   UNL     1       6.163  -2.567  22.496  0.00  0.00    +0.008 C 
ENDBRANCH  18  20
ENDBRANCH   5  18
ENDBRANCH   4   5
ENDBRANCH   1   4
BRANCH   1  22
ATOM     22  C   UNL     1       9.830   0.962  22.072  0.00  0.00    +0.110 C 
BRANCH  22  23
ATOM     23  N   UNL     1       8.571   1.523  21.514  0.00  0.00    -0.275 N 
ATOM     24  H   UNL     1       8.758   2.348  20.947  0.00  0.00    +0.152 HD
ATOM     25  C   UNL     1       7.375   1.699  22.119  0.00  0.00    +0.401 C 
ATOM     26  O   UNL     1       6.928   1.052  23.049  0.00  0.00    -0.226 OA
BRANCH  25  27
ATOM     27  O   UNL     1       6.756   2.783  21.576  0.00  0.00    -0.445 OA
BRANCH  27  28
ATOM     28  C   UNL     1       6.270   3.724  22.537  0.00  0.00    +0.206 C 
ATOM     29  C   UNL     1       4.755   3.866  22.549  0.00  0.00    +0.204 C 
ATOM     30  O   UNL     1       4.459   5.197  23.004  0.00  0.00    -0.376 OA
ATOM     31  C   UNL     1       5.676   5.955  22.986  0.00  0.00    +0.163 C 
ATOM     32  C   UNL     1       6.687   5.143  22.205  0.00  0.00    +0.075 C 
ENDBRANCH  27  28
ENDBRANCH  25  27
ENDBRANCH  22  23
BRANCH  22  33
ATOM     33  C   UNL     1      10.397   1.677  23.360  0.00  0.00    +0.060 C 
BRANCH  33  34
ATOM     34  C   UNL     1      10.453   3.193  23.610  0.00  0.00    -0.046 A 
ATOM     35  C   UNL     1      11.635   3.888  23.235  0.00  0.00    +0.004 A 
ATOM     36  C   UNL     1      11.800   5.267  23.449  0.00  0.00    +0.000 A 
ATOM     37  C   UNL     1      10.794   5.999  24.058  0.00  0.00    +0.000 A 
ATOM     38  C   UNL     1       9.615   5.348  24.428  0.00  0.00    +0.000 A 
ATOM     39  C   UNL     1       9.446   3.967  24.184  0.00  0.00    +0.004 A 
ENDBRANCH  33  34
ENDBRANCH  22  33
ENDBRANCH   1  22
TORSDOF 14
ENDMDL
MODEL 6
REMARK VINA RESULT:      -6.2      2.366      5.080
REMARK  Name = 
REMARK  16 active torsions:
REMARK  status: ('A' for Active; 'I' for Inactive)
REMARK    1  A    between atoms: C_1  and  C_2
REMARK    2  A    between atoms: C_2  and  C_3
REMARK    3  A    between atoms: C_2  and  C_4
REMARK    4  A    between atoms: C_4  and  N_5
REMARK    5  A    between atoms: N_5  and  C_6
REMARK    6  A    between atoms: N_5  and  S_29
REMARK    7  A    between atoms: C_6  and  C_7
REMARK    8  A    between atoms: C_7  and  C_9
REMARK    9  A    between atoms: C_7  and  O_28
REMARK   10  A    between atoms: C_9  and  C_11
REMARK   11  A    between atoms: C_9  and  N_18
REMARK   12  A    between atoms: C_11  and  C_12
REMARK   13  A    between atoms: C_19  and  O_21
REMARK   14  A    between atoms: O_21  and  C_22
REMARK   15  A    between atoms: S_29  and  C_32
REMARK   16  A    between atoms: C_35  and  N_38
REMARK                            x       y       z     vdW  Elec       q    Type
REMARK                         _______ _______ _______ _____ _____    ______ ____
ROOT
ATOM      1  C   UNL     1       8.065  -0.514  26.521  0.00  0.00    +0.151 C 
ENDROOT
BRANCH   1   2
ATOM      2  O   UNL     1       8.303   0.045  27.845  0.00  0.00    -0.389 OA
ATOM      3  H   UNL     1       7.676  -0.398  28.441  0.00  0.00    +0.210 HD
ENDBRANCH   1   2
BRANCH   1   4
ATOM      4  C   UNL     1       8.043  -2.054  26.653  0.00  0.00    +0.142 C 
BRANCH   4   5
ATOM      5  N   UNL     1       8.716  -2.764  25.492  0.00  0.00    -0.174 NA
BRANCH   5   6
ATOM      6  S   UNL     1       8.887  -4.469  25.572  0.00  0.00    +0.061 S 
ATOM      7  O   UNL     1       8.773  -4.874  26.950  0.00  0.00    -0.153 OA
ATOM      8  O   UNL     1      10.035  -4.853  24.771  0.00  0.00    -0.153 OA
BRANCH   6   9
ATOM      9  C   UNL     1       7.445  -5.155  24.749  0.00  0.00    +0.106 A 
ATOM     10  C   UNL     1       7.461  -5.364  23.371  0.00  0.00    +0.030 A 
ATOM     11  C   UNL     1       6.311  -5.824  22.717  0.00  0.00    +0.024 A 
ATOM     12  C   UNL     1       5.130  -6.075  23.422  0.00  0.00    +0.025 A 
ATOM     13  C   UNL     1       5.091  -5.746  24.779  0.00  0.00    +0.024 A 
ATOM     14  C   UNL     1       6.244  -5.312  25.451  0.00  0.00    +0.030 A 
BRANCH  12  15
ATOM     15  N   UNL     1       3.958  -6.398  22.734  0.00  0.00    -0.358 N 
ATOM     16  H   UNL     1       3.187  -5.756  22.894  0.00  0.00    +0.142 HD
ATOM     17  H   UNL     1       4.091  -6.590  21.744  0.00  0.00    +0.142 HD
ENDBRANCH  12  15
ENDBRANCH   6   9
ENDBRANCH   5   6
BRANCH   5  18
ATOM     18  C   UNL     1       9.481  -2.023  24.421  0.00  0.00    +0.112 C 
BRANCH  18  20
ATOM     19  C   UNL     1       7.493  -1.693  22.833  0.00  0.00    +0.008 C 
ATOM     20  C   UNL     1       8.947  -2.158  22.972  0.00  0.00    -0.001 C 
ATOM     21  C   UNL     1       9.809  -1.373  21.969  0.00  0.00    +0.008 C 
ENDBRANCH  18  20
ENDBRANCH   5  18
ENDBRANCH   4   5
ENDBRANCH   1   4
BRANCH   1  22
ATOM     22  C   UNL     1       6.752   0.208  25.953  0.00  0.00    +0.110 C 
BRANCH  22  23
ATOM     23  N   UNL     1       5.907   0.301  27.173  0.00  0.00    -0.275 N 
ATOM     24  H   UNL     1       6.403  -0.052  27.989  0.00  0.00    +0.152 HD
ATOM     25  C   UNL     1       4.596   0.008  27.326  0.00  0.00    +0.401 C 
ATOM     26  O   UNL     1       3.735   0.051  26.466  0.00  0.00    -0.226 OA
BRANCH  25  27
ATOM     27  O   UNL     1       4.383  -0.429  28.598  0.00  0.00    -0.445 OA
BRANCH  27  28
ATOM     28  C   UNL     1       3.771  -1.720  28.680  0.00  0.00    +0.206 C 
ATOM     29  C   UNL     1       3.656  -2.258  30.098  0.00  0.00    +0.204 C 
ATOM     30  O   UNL     1       3.673  -3.693  30.008  0.00  0.00    -0.376 OA
ATOM     31  C   UNL     1       4.081  -4.051  28.681  0.00  0.00    +0.163 C 
ATOM     32  C   UNL     1       4.624  -2.794  28.034  0.00  0.00    +0.075 C 
ENDBRANCH  27  28
ENDBRANCH  25  27
ENDBRANCH  22  23
BRANCH  22  33
ATOM     33  C   UNL     1       7.085   1.573  25.235  0.00  0.00    +0.060 C 
BRANCH  33  34
ATOM     34  C   UNL     1       8.104   1.783  24.103  0.00  0.00    -0.046 A 
ATOM     35  C   UNL     1       9.477   1.895  24.452  0.00  0.00    +0.004 A 
ATOM     36  C   UNL     1      10.483   2.120  23.498  0.00  0.00    +0.000 A 
ATOM     37  C   UNL     1      10.151   2.252  22.159  0.00  0.00    +0.000 A 
ATOM     38  C   UNL     1       8.812   2.136  21.781  0.00  0.00    +0.000 A 
ATOM     39  C   UNL     1       7.810   1.883  22.744  0.00  0.00    +0.004 A 
ENDBRANCH  33  34
ENDBRANCH  22  33
ENDBRANCH   1  22
TORSDOF 14
ENDMDL
MODEL 7
REMARK VINA RESULT:      -6.2      2.471      5.972
REMARK  Name = 
REMARK  16 active torsions:
REMARK  status: ('A' for Active; 'I' for Inactive)
REMARK    1  A    between atoms: C_1  and  C_2
REMARK    2  A    between atoms: C_2  and  C_3
REMARK    3  A    between atoms: C_2  and  C_4
REMARK    4  A    between atoms: C_4  and  N_5
REMARK    5  A    between atoms: N_5  and  C_6
REMARK    6  A    between atoms: N_5  and  S_29
REMARK    7  A    between atoms: C_6  and  C_7
REMARK    8  A    between atoms: C_7  and  C_9
REMARK    9  A    between atoms: C_7  and  O_28
REMARK   10  A    between atoms: C_9  and  C_11
REMARK   11  A    between atoms: C_9  and  N_18
REMARK   12  A    between atoms: C_11  and  C_12
REMARK   13  A    between atoms: C_19  and  O_21
REMARK   14  A    between atoms: O_21  and  C_22
REMARK   15  A    between atoms: S_29  and  C_32
REMARK   16  A    between atoms: C_35  and  N_38
REMARK                            x       y       z     vdW  Elec       q    Type
REMARK                         _______ _______ _______ _____ _____    ______ ____
ROOT
ATOM      1  C   UNL     1       8.358  -1.411  25.891  0.00  0.00    +0.151 C 
ENDROOT
BRANCH   1   2
ATOM      2  O   UNL     1       8.706  -1.011  27.248  0.00  0.00    -0.389 OA
ATOM      3  H   UNL     1       7.870  -0.988  27.744  0.00  0.00    +0.210 HD
ENDBRANCH   1   2
BRANCH   1   4
ATOM      4  C   UNL     1       9.083  -0.459  24.914  0.00  0.00    +0.142 C 
BRANCH   4   5
ATOM      5  N   UNL     1       8.133   0.397  24.097  0.00  0.00    -0.174 NA
BRANCH   5   6
ATOM      6  S   UNL     1       7.117   1.503  24.928  0.00  0.00    +0.061 S 
ATOM      7  O   UNL     1       7.703   1.782  26.214  0.00  0.00    -0.153 OA
ATOM      8  O   UNL     1       5.746   1.040  24.814  0.00  0.00    -0.153 OA
BRANCH   6   9
ATOM      9  C   UNL     1       7.206   3.047  24.014  0.00  0.00    +0.106 A 
ATOM     10  C   UNL     1       6.286   3.312  23.001  0.00  0.00    +0.030 A 
ATOM     11  C   UNL     1       6.403   4.480  22.234  0.00  0.00    +0.024 A 
ATOM     12  C   UNL     1       7.437   5.393  22.462  0.00  0.00    +0.025 A 
ATOM     13  C   UNL     1       8.419   5.057  23.396  0.00  0.00    +0.024 A 
ATOM     14  C   UNL     1       8.298   3.905  24.189  0.00  0.00    +0.030 A 
BRANCH  12  15
ATOM     15  N   UNL     1       7.616   6.477  21.600  0.00  0.00    -0.358 N 
ATOM     16  H   UNL     1       8.547   6.543  21.196  0.00  0.00    +0.142 HD
ATOM     17  H   UNL     1       6.891   6.579  20.894  0.00  0.00    +0.142 HD
ENDBRANCH  12  15
ENDBRANCH   6   9
ENDBRANCH   5   6
BRANCH   5  18
ATOM     18  C   UNL     1       7.846   0.126  22.639  0.00  0.00    +0.112 C 
BRANCH  18  20
ATOM     19  C   UNL     1       9.928   1.482  22.000  0.00  0.00    +0.008 C 
ATOM     20  C   UNL     1       9.036   0.283  21.659  0.00  0.00    -0.001 C 
ATOM     21  C   UNL     1       9.910  -0.981  21.614  0.00  0.00    +0.008 C 
ENDBRANCH  18  20
ENDBRANCH   5  18
ENDBRANCH   4   5
ENDBRANCH   1   4
BRANCH   1  22
ATOM     22  C   UNL     1       8.676  -2.979  25.784  0.00  0.00    +0.110 C 
BRANCH  22  23
ATOM     23  N   UNL     1       7.493  -3.573  26.463  0.00  0.00    -0.275 N 
ATOM     24  H   UNL     1       7.069  -2.908  27.107  0.00  0.00    +0.152 HD
ATOM     25  C   UNL     1       7.344  -4.810  26.986  0.00  0.00    +0.401 C 
ATOM     26  O   UNL     1       7.922  -5.824  26.635  0.00  0.00    -0.226 OA
BRANCH  25  27
ATOM     27  O   UNL     1       6.488  -4.747  28.042  0.00  0.00    -0.445 OA
BRANCH  27  28
ATOM     28  C   UNL     1       5.163  -4.327  27.700  0.00  0.00    +0.206 C 
ATOM     29  C   UNL     1       4.243  -4.152  28.899  0.00  0.00    +0.204 C 
ATOM     30  O   UNL     1       2.902  -4.388  28.440  0.00  0.00    -0.376 OA
ATOM     31  C   UNL     1       2.975  -4.974  27.134  0.00  0.00    +0.163 C 
ATOM     32  C   UNL     1       4.416  -5.388  26.918  0.00  0.00    +0.075 C 
ENDBRANCH  27  28
ENDBRANCH  25  27
ENDBRANCH  22  23
BRANCH  22  33
ATOM     33  C   UNL     1       8.922  -3.437  24.294  0.00  0.00    +0.060 C 
BRANCH  33  34
ATOM     34  C   UNL     1       7.866  -3.991  23.324  0.00  0.00    -0.046 A 
ATOM     35  C   UNL     1       7.788  -5.400  23.156  0.00  0.00    +0.004 A 
ATOM     36  C   UNL     1       6.881  -6.006  22.272  0.00  0.00    +0.000 A 
ATOM     37  C   UNL     1       6.026  -5.223  21.513  0.00  0.00    +0.000 A 
ATOM     38  C   UNL     1       6.069  -3.836  21.663  0.00  0.00    +0.000 A 
ATOM     39  C   UNL     1       6.966  -3.236  22.574  0.00  0.00    +0.004 A 
ENDBRANCH  33  34
ENDBRANCH  22  33
ENDBRANCH   1  22
TORSDOF 14
ENDMDL
MODEL 8
REMARK VINA RESULT:      -6.1      2.668      6.935
REMARK  Name = 
REMARK  16 active torsions:
REMARK  status: ('A' for Active; 'I' for Inactive)
REMARK    1  A    between atoms: C_1  and  C_2
REMARK    2  A    between atoms: C_2  and  C_3
REMARK    3  A    between atoms: C_2  and  C_4
REMARK    4  A    between atoms: C_4  and  N_5
REMARK    5  A    between atoms: N_5  and  C_6
REMARK    6  A    between atoms: N_5  and  S_29
REMARK    7  A    between atoms: C_6  and  C_7
REMARK    8  A    between atoms: C_7  and  C_9
REMARK    9  A    between atoms: C_7  and  O_28
REMARK   10  A    between atoms: C_9  and  C_11
REMARK   11  A    between atoms: C_9  and  N_18
REMARK   12  A    between atoms: C_11  and  C_12
REMARK   13  A    between atoms: C_19  and  O_21
REMARK   14  A    between atoms: O_21  and  C_22
REMARK   15  A    between atoms: S_29  and  C_32
REMARK   16  A    between atoms: C_35  and  N_38
REMARK                            x       y       z     vdW  Elec       q    Type
REMARK                         _______ _______ _______ _____ _____    ______ ____
ROOT
ATOM      1  C   UNL     1       8.300  -0.382  26.616  0.00  0.00    +0.151 C 
ENDROOT
BRANCH   1   2
ATOM      2  O   UNL     1       9.068  -0.391  27.853  0.00  0.00    -0.389 OA
ATOM      3  H   UNL     1       9.355  -1.310  27.985  0.00  0.00    +0.210 HD
ENDBRANCH   1   2
BRANCH   1   4
ATOM      4  C   UNL     1       8.999  -1.331  25.616  0.00  0.00    +0.142 C 
BRANCH   4   5
ATOM      5  N   UNL     1       8.785  -0.937  24.166  0.00  0.00    -0.174 NA
BRANCH   5   6
ATOM      6  S   UNL     1       9.119  -2.101  22.950  0.00  0.00    +0.061 S 
ATOM      7  O   UNL     1      10.261  -2.875  23.363  0.00  0.00    -0.153 OA
ATOM      8  O   UNL     1       9.092  -1.436  21.660  0.00  0.00    -0.153 OA
BRANCH   6   9
ATOM      9  C   UNL     1       7.734  -3.244  22.958  0.00  0.00    +0.106 A 
ATOM     10  C   UNL     1       7.946  -4.595  23.233  0.00  0.00    +0.030 A 
ATOM     11  C   UNL     1       6.880  -5.502  23.161  0.00  0.00    +0.024 A 
ATOM     12  C   UNL     1       5.595  -5.079  22.810  0.00  0.00    +0.025 A 
ATOM     13  C   UNL     1       5.422  -3.750  22.419  0.00  0.00    +0.024 A 
ATOM     14  C   UNL     1       6.474  -2.826  22.514  0.00  0.00    +0.030 A 
BRANCH  12  15
ATOM     15  N   UNL     1       4.579  -6.017  22.609  0.00  0.00    -0.358 N 
ATOM     16  H   UNL     1       4.098  -5.932  21.718  0.00  0.00    +0.142 HD
ATOM     17  H   UNL     1       4.851  -6.979  22.801  0.00  0.00    +0.142 HD
ENDBRANCH  12  15
ENDBRANCH   6   9
ENDBRANCH   5   6
BRANCH   5  18
ATOM     18  C   UNL     1       8.565   0.495  23.738  0.00  0.00    +0.112 C 
BRANCH  18  20
ATOM     19  C   UNL     1      11.055   0.734  24.305  0.00  0.00    +0.008 C 
ATOM     20  C   UNL     1       9.820   1.403  23.691  0.00  0.00    -0.001 C 
ATOM     21  C   UNL     1      10.160   1.836  22.256  0.00  0.00    +0.008 C 
ENDBRANCH  18  20
ENDBRANCH   5  18
ENDBRANCH   4   5
ENDBRANCH   1   4
BRANCH   1  22
ATOM     22  C   UNL     1       6.783  -0.705  27.020  0.00  0.00    +0.110 C 
BRANCH  22  23
ATOM     23  N   UNL     1       6.175   0.652  27.018  0.00  0.00    -0.275 N 
ATOM     24  H   UNL     1       5.915   0.935  26.075  0.00  0.00    +0.152 HD
ATOM     25  C   UNL     1       6.560   1.759  27.692  0.00  0.00    +0.401 C 
ATOM     26  O   UNL     1       7.161   1.794  28.751  0.00  0.00    -0.226 OA
BRANCH  25  27
ATOM     27  O   UNL     1       6.240   2.860  26.959  0.00  0.00    -0.445 OA
BRANCH  27  28
ATOM     28  C   UNL     1       6.904   2.937  25.694  0.00  0.00    +0.206 C 
ATOM     29  C   UNL     1       7.958   4.031  25.616  0.00  0.00    +0.204 C 
ATOM     30  O   UNL     1       8.050   4.432  24.238  0.00  0.00    -0.376 OA
ATOM     31  C   UNL     1       6.933   3.872  23.536  0.00  0.00    +0.163 C 
ATOM     32  C   UNL     1       5.964   3.365  24.584  0.00  0.00    +0.075 C 
ENDBRANCH  27  28
ENDBRANCH  25  27
ENDBRANCH  22  23
BRANCH  22  33
ATOM     33  C   UNL     1       6.121  -1.762  26.052  0.00  0.00    +0.060 C 
BRANCH  33  34
ATOM     34  C   UNL     1       5.997  -3.274  26.301  0.00  0.00    -0.046 A 
ATOM     35  C   UNL     1       4.726  -3.881  26.110  0.00  0.00    +0.004 A 
ATOM     36  C   UNL     1       4.499  -5.247  26.340  0.00  0.00    +0.000 A 
ATOM     37  C   UNL     1       5.534  -6.057  26.781  0.00  0.00    +0.000 A 
ATOM     38  C   UNL     1       6.799  -5.494  26.967  0.00  0.00    +0.000 A 
ATOM     39  C   UNL     1       7.024  -4.124  26.707  0.00  0.00    +0.004 A 
ENDBRANCH  33  34
ENDBRANCH  22  33
ENDBRANCH   1  22
TORSDOF 14
ENDMDL
MODEL 9
REMARK VINA RESULT:      -6.1      2.476      4.211
REMARK  Name = 
REMARK  16 active torsions:
REMARK  status: ('A' for Active; 'I' for Inactive)
REMARK    1  A    between atoms: C_1  and  C_2
REMARK    2  A    between atoms: C_2  and  C_3
REMARK    3  A    between atoms: C_2  and  C_4
REMARK    4  A    between atoms: C_4  and  N_5
REMARK    5  A    between atoms: N_5  and  C_6
REMARK    6  A    between atoms: N_5  and  S_29
REMARK    7  A    between atoms: C_6  and  C_7
REMARK    8  A    between atoms: C_7  and  C_9
REMARK    9  A    between atoms: C_7  and  O_28
REMARK   10  A    between atoms: C_9  and  C_11
REMARK   11  A    between atoms: C_9  and  N_18
REMARK   12  A    between atoms: C_11  and  C_12
REMARK   13  A    between atoms: C_19  and  O_21
REMARK   14  A    between atoms: O_21  and  C_22
REMARK   15  A    between atoms: S_29  and  C_32
REMARK   16  A    between atoms: C_35  and  N_38
REMARK                            x       y       z     vdW  Elec       q    Type
REMARK                         _______ _______ _______ _____ _____    ______ ____
ROOT
ATOM      1  C   UNL     1       7.399  -1.151  26.923  0.00  0.00    +0.151 C 
ENDROOT
BRANCH   1   2
ATOM      2  O   UNL     1       7.292   0.295  27.061  0.00  0.00    -0.389 OA
ATOM      3  H   UNL     1       8.093   0.580  27.533  0.00  0.00    +0.210 HD
ENDBRANCH   1   2
BRANCH   1   4
ATOM      4  C   UNL     1       6.043  -1.680  26.404  0.00  0.00    +0.142 C 
BRANCH   4   5
ATOM      5  N   UNL     1       5.310  -2.543  27.413  0.00  0.00    -0.174 NA
BRANCH   5   6
ATOM      6  S   UNL     1       5.676  -4.219  27.467  0.00  0.00    +0.061 S 
ATOM      7  O   UNL     1       4.983  -4.800  28.588  0.00  0.00    -0.153 OA
ATOM      8  O   UNL     1       7.110  -4.380  27.309  0.00  0.00    -0.153 OA
BRANCH   6   9
ATOM      9  C   UNL     1       4.922  -4.943  26.007  0.00  0.00    +0.106 A 
ATOM     10  C   UNL     1       3.857  -4.298  25.379  0.00  0.00    +0.030 A 
ATOM     11  C   UNL     1       3.216  -4.901  24.288  0.00  0.00    +0.024 A 
ATOM     12  C   UNL     1       3.620  -6.152  23.814  0.00  0.00    +0.025 A 
ATOM     13  C   UNL     1       4.604  -6.841  24.527  0.00  0.00    +0.024 A 
ATOM     14  C   UNL     1       5.273  -6.236  25.602  0.00  0.00    +0.030 A 
BRANCH  12  15
ATOM     15  N   UNL     1       2.882  -6.796  22.818  0.00  0.00    -0.358 N 
ATOM     16  H   UNL     1       2.182  -7.445  23.167  0.00  0.00    +0.142 HD
ATOM     17  H   UNL     1       2.500  -6.174  22.109  0.00  0.00    +0.142 HD
ENDBRANCH  12  15
ENDBRANCH   6   9
ENDBRANCH   5   6
BRANCH   5  18
ATOM     18  C   UNL     1       4.093  -2.058  28.165  0.00  0.00    +0.112 C 
BRANCH  18  20
ATOM     19  C   UNL     1       1.701  -1.491  27.431  0.00  0.00    +0.008 C 
ATOM     20  C   UNL     1       3.172  -1.060  27.418  0.00  0.00    -0.001 C 
ATOM     21  C   UNL     1       3.271   0.358  28.004  0.00  0.00    +0.008 C 
ENDBRANCH  18  20
ENDBRANCH   5  18
ENDBRANCH   4   5
ENDBRANCH   1   4
BRANCH   1  22
ATOM     22  C   UNL     1       8.702  -1.428  26.033  0.00  0.00    +0.110 C 
BRANCH  22  23
ATOM     23  N   UNL     1       8.176  -2.377  25.016  0.00  0.00    -0.275 N 
ATOM     24  H   UNL     1       7.284  -2.770  25.310  0.00  0.00    +0.152 HD
ATOM     25  C   UNL     1       8.836  -3.325  24.314  0.00  0.00    +0.401 C 
ATOM     26  O   UNL     1      10.016  -3.317  24.010  0.00  0.00    -0.226 OA
BRANCH  25  27
ATOM     27  O   UNL     1       7.988  -4.357  24.053  0.00  0.00    -0.445 OA
BRANCH  27  28
ATOM     28  C   UNL     1       7.527  -4.411  22.699  0.00  0.00    +0.206 C 
ATOM     29  C   UNL     1       6.172  -3.755  22.483  0.00  0.00    +0.204 C 
ATOM     30  O   UNL     1       5.557  -4.414  21.363  0.00  0.00    -0.376 OA
ATOM     31  C   UNL     1       6.309  -5.601  21.077  0.00  0.00    +0.163 C 
ATOM     32  C   UNL     1       7.233  -5.830  22.256  0.00  0.00    +0.075 C 
ENDBRANCH  27  28
ENDBRANCH  25  27
ENDBRANCH  22  23
BRANCH  22  33
ATOM     33  C   UNL     1       9.336  -0.095  25.474  0.00  0.00    +0.060 C 
BRANCH  33  34
ATOM     34  C   UNL     1       9.151   0.480  24.060  0.00  0.00    -0.046 A 
ATOM     35  C   UNL     1       7.855   0.925  23.684  0.00  0.00    +0.004 A 
ATOM     36  C   UNL     1       7.573   1.436  22.407  0.00  0.00    +0.000 A 
ATOM     37  C   UNL     1       8.575   1.510  21.453  0.00  0.00    +0.000 A 
ATOM     38  C   UNL     1       9.863   1.092  21.794  0.00  0.00    +0.000 A 
ATOM     39  C   UNL     1      10.144   0.604  23.089  0.00  0.00    +0.004 A 
ENDBRANCH  33  34
ENDBRANCH  22  33
ENDBRANCH   1  22
TORSDOF 14
ENDMDL
