MODEL 1
REMARK VINA RESULT:      -6.7      0.000      0.000
REMARK  Name = 
REMARK  5 active torsions:
REMARK  status: ('A' for Active; 'I' for Inactive)
REMARK    1  A    between atoms: C_1  and  C_2
REMARK    2  A    between atoms: N_4  and  C_10
REMARK    3  A    between atoms: C_14  and  O_21
REMARK    4  A    between atoms: C_16  and  C_19
REMARK    5  A    between atoms: C_19  and  O_20
REMARK                            x       y       z     vdW  Elec       q    Type
REMARK                         _______ _______ _______ _____ _____    ______ ____
ROOT
ATOM      1  C   UNL     1       9.234  -2.853  24.073  0.00  0.00    +0.260 C 
ATOM      2  O   UNL     1       9.831  -1.635  24.569  0.00  0.00    -0.345 OA
ATOM      3  C   UNL     1       9.635  -0.599  23.571  0.00  0.00    +0.178 C 
ATOM      4  C   UNL     1       8.888  -1.231  22.397  0.00  0.00    +0.184 C 
ATOM      5  C   UNL     1       8.205  -2.425  23.027  0.00  0.00    +0.246 C 
ATOM      6  F   UNL     1       7.978  -3.370  22.083  0.00  0.00    -0.238 F 
ENDROOT
BRANCH   1  15
ATOM      7  C   UNL     1       5.605  -3.690  27.397  0.00  0.00    +0.051 C 
ATOM      8  C   UNL     1       6.906  -4.024  26.741  0.00  0.00    +0.030 A 
ATOM      9  C   UNL     1       7.584  -5.272  27.157  0.00  0.00    +0.257 A 
ATOM     10  O   UNL     1       7.109  -6.020  28.005  0.00  0.00    -0.267 OA
ATOM     11  N   UNL     1       8.772  -5.534  26.538  0.00  0.00    -0.275 N 
ATOM     12  H   UNL     1       9.248  -6.382  26.804  0.00  0.00    +0.173 HD
ATOM     13  C   UNL     1       9.340  -4.804  25.528  0.00  0.00    +0.331 A 
ATOM     14  O   UNL     1      10.376  -5.191  24.995  0.00  0.00    -0.246 OA
ATOM     15  N   UNL     1       8.669  -3.639  25.178  0.00  0.00    -0.271 N 
ATOM     16  C   UNL     1       7.487  -3.278  25.797  0.00  0.00    +0.102 A 
ENDBRANCH   1  15
BRANCH   4  17
ATOM     17  O   UNL     1       9.841  -1.669  21.416  0.00  0.00    -0.386 OA
ATOM     18  H   UNL     1       9.945  -0.932  20.780  0.00  0.00    +0.210 HD
ENDBRANCH   4  17
BRANCH   3  19
ATOM     19  C   UNL     1       8.861   0.554  24.213  0.00  0.00    +0.190 C 
BRANCH  19  20
ATOM     20  O   UNL     1       9.610   1.151  25.269  0.00  0.00    -0.392 OA
ATOM     21  H   UNL     1       9.733   2.083  25.025  0.00  0.00    +0.210 HD
ENDBRANCH  19  20
ENDBRANCH   3  19
TORSDOF 4
ENDMDL
MODEL 2
REMARK VINA RESULT:      -6.1      2.176      3.097
REMARK  Name = 
REMARK  5 active torsions:
REMARK  status: ('A' for Active; 'I' for Inactive)
REMARK    1  A    between atoms: C_1  and  C_2
REMARK    2  A    between atoms: N_4  and  C_10
REMARK    3  A    between atoms: C_14  and  O_21
REMARK    4  A    between atoms: C_16  and  C_19
REMARK    5  A    between atoms: C_19  and  O_20
REMARK                            x       y       z     vdW  Elec       q    Type
REMARK                         _______ _______ _______ _____ _____    ______ ____
ROOT
ATOM      1  C   UNL     1       9.827   0.228  23.535  0.00  0.00    +0.260 C 
ATOM      2  O   UNL     1       9.966   1.255  24.543  0.00  0.00    -0.345 OA
ATOM      3  C   UNL     1       9.610   2.527  23.941  0.00  0.00    +0.178 C 
ATOM      4  C   UNL     1       9.248   2.257  22.481  0.00  0.00    +0.184 C 
ATOM      5  C   UNL     1       8.868   0.793  22.486  0.00  0.00    +0.246 C 
ATOM      6  F   UNL     1       9.059   0.268  21.252  0.00  0.00    -0.238 F 
ENDROOT
BRANCH   1  15
ATOM      7  C   UNL     1       6.862  -2.259  26.687  0.00  0.00    +0.051 C 
ATOM      8  C   UNL     1       7.927  -2.193  25.641  0.00  0.00    +0.030 A 
ATOM      9  C   UNL     1       8.458  -3.472  25.120  0.00  0.00    +0.257 A 
ATOM     10  O   UNL     1       8.047  -4.557  25.516  0.00  0.00    -0.267 OA
ATOM     11  N   UNL     1       9.435  -3.365  24.172  0.00  0.00    -0.275 N 
ATOM     12  H   UNL     1       9.807  -4.225  23.801  0.00  0.00    +0.173 HD
ATOM     13  C   UNL     1       9.900  -2.205  23.613  0.00  0.00    +0.331 A 
ATOM     14  O   UNL     1      10.726  -2.246  22.706  0.00  0.00    -0.246 OA
ATOM     15  N   UNL     1       9.376  -1.031  24.139  0.00  0.00    -0.271 N 
ATOM     16  C   UNL     1       8.421  -1.057  25.139  0.00  0.00    +0.102 A 
ENDBRANCH   1  15
BRANCH   4  17
ATOM     17  O   UNL     1      10.411   2.462  21.664  0.00  0.00    -0.386 OA
ATOM     18  H   UNL     1      10.581   1.616  21.203  0.00  0.00    +0.210 HD
ENDBRANCH   4  17
BRANCH   3  19
ATOM     19  C   UNL     1       8.452   3.133  24.736  0.00  0.00    +0.190 C 
BRANCH  19  20
ATOM     20  O   UNL     1       8.151   2.347  25.886  0.00  0.00    -0.392 OA
ATOM     21  H   UNL     1       7.329   2.708  26.257  0.00  0.00    +0.210 HD
ENDBRANCH  19  20
ENDBRANCH   3  19
TORSDOF 4
ENDMDL
MODEL 3
REMARK VINA RESULT:      -6.1      3.418      4.396
REMARK  Name = 
REMARK  5 active torsions:
REMARK  status: ('A' for Active; 'I' for Inactive)
REMARK    1  A    between atoms: C_1  and  C_2
REMARK    2  A    between atoms: N_4  and  C_10
REMARK    3  A    between atoms: C_14  and  O_21
REMARK    4  A    between atoms: C_16  and  C_19
REMARK    5  A    between atoms: C_19  and  O_20
REMARK                            x       y       z     vdW  Elec       q    Type
REMARK                         _______ _______ _______ _____ _____    ______ ____
ROOT
ATOM      1  C   UNL     1       7.807  -4.374  23.453  0.00  0.00    +0.260 C 
ATOM      2  O   UNL     1       8.590  -5.294  24.246  0.00  0.00    -0.345 OA
ATOM      3  C   UNL     1       9.580  -4.527  24.980  0.00  0.00    +0.178 C 
ATOM      4  C   UNL     1       9.395  -3.058  24.598  0.00  0.00    +0.184 C 
ATOM      5  C   UNL     1       7.960  -3.006  24.119  0.00  0.00    +0.246 C 
ATOM      6  F   UNL     1       7.806  -1.973  23.256  0.00  0.00    -0.238 F 
ENDROOT
BRANCH   1  15
ATOM      7  C   UNL     1       3.013  -4.049  24.801  0.00  0.00    +0.051 C 
ATOM      8  C   UNL     1       4.128  -4.639  24.000  0.00  0.00    +0.030 A 
ATOM      9  C   UNL     1       3.779  -5.651  22.978  0.00  0.00    +0.257 A 
ATOM     10  O   UNL     1       2.621  -6.001  22.777  0.00  0.00    -0.267 OA
ATOM     11  N   UNL     1       4.829  -6.168  22.275  0.00  0.00    -0.275 N 
ATOM     12  H   UNL     1       4.613  -6.856  21.571  0.00  0.00    +0.173 HD
ATOM     13  C   UNL     1       6.140  -5.782  22.372  0.00  0.00    +0.331 A 
ATOM     14  O   UNL     1       6.982  -6.269  21.623  0.00  0.00    -0.246 OA
ATOM     15  N   UNL     1       6.417  -4.835  23.349  0.00  0.00    -0.271 N 
ATOM     16  C   UNL     1       5.414  -4.303  24.137  0.00  0.00    +0.102 A 
ENDBRANCH   1  15
BRANCH   4  17
ATOM     17  O   UNL     1      10.287  -2.737  23.520  0.00  0.00    -0.386 OA
ATOM     18  H   UNL     1      10.487  -1.783  23.598  0.00  0.00    +0.210 HD
ENDBRANCH   4  17
BRANCH   3  19
ATOM     19  C   UNL     1       9.380  -4.780  26.475  0.00  0.00    +0.190 C 
BRANCH  19  20
ATOM     20  O   UNL     1       8.392  -5.783  26.699  0.00  0.00    -0.392 OA
ATOM     21  H   UNL     1       7.821  -5.785  25.913  0.00  0.00    +0.210 HD
ENDBRANCH  19  20
ENDBRANCH   3  19
TORSDOF 4
ENDMDL
MODEL 4
REMARK VINA RESULT:      -6.0      3.368      4.123
REMARK  Name = 
REMARK  5 active torsions:
REMARK  status: ('A' for Active; 'I' for Inactive)
REMARK    1  A    between atoms: C_1  and  C_2
REMARK    2  A    between atoms: N_4  and  C_10
REMARK    3  A    between atoms: C_14  and  O_21
REMARK    4  A    between atoms: C_16  and  C_19
REMARK    5  A    between atoms: C_19  and  O_20
REMARK                            x       y       z     vdW  Elec       q    Type
REMARK                         _______ _______ _______ _____ _____    ______ ____
ROOT
ATOM      1  C   UNL     1       7.960  -1.139  24.104  0.00  0.00    +0.260 C 
ATOM      2  O   UNL     1       7.742   0.105  23.402  0.00  0.00    -0.345 OA
ATOM      3  C   UNL     1       9.025   0.769  23.254  0.00  0.00    +0.178 C 
ATOM      4  C   UNL     1      10.078  -0.119  23.917  0.00  0.00    +0.184 C 
ATOM      5  C   UNL     1       9.434  -1.488  23.899  0.00  0.00    +0.246 C 
ATOM      6  F   UNL     1       9.947  -2.246  24.898  0.00  0.00    -0.238 F 
ENDROOT
BRANCH   1  15
ATOM      7  C   UNL     1       7.078  -5.371  21.610  0.00  0.00    +0.051 C 
ATOM      8  C   UNL     1       6.646  -4.209  22.443  0.00  0.00    +0.030 A 
ATOM      9  C   UNL     1       5.238  -4.174  22.896  0.00  0.00    +0.257 A 
ATOM     10  O   UNL     1       4.440  -5.061  22.611  0.00  0.00    -0.267 OA
ATOM     11  N   UNL     1       4.884  -3.091  23.649  0.00  0.00    -0.275 N 
ATOM     12  H   UNL     1       3.931  -3.050  23.971  0.00  0.00    +0.173 HD
ATOM     13  C   UNL     1       5.721  -2.097  24.082  0.00  0.00    +0.331 A 
ATOM     14  O   UNL     1       5.296  -1.216  24.826  0.00  0.00    -0.246 OA
ATOM     15  N   UNL     1       7.030  -2.170  23.626  0.00  0.00    -0.271 N 
ATOM     16  C   UNL     1       7.450  -3.209  22.816  0.00  0.00    +0.102 A 
ENDBRANCH   1  15
BRANCH   4  17
ATOM     17  O   UNL     1      10.273   0.317  25.271  0.00  0.00    -0.386 OA
ATOM     18  H   UNL     1       9.567   0.967  25.460  0.00  0.00    +0.210 HD
ENDBRANCH   4  17
BRANCH   3  19
ATOM     19  C   UNL     1       9.290   0.988  21.763  0.00  0.00    +0.190 C 
BRANCH  19  20
ATOM     20  O   UNL     1      10.111   2.133  21.550  0.00  0.00    -0.392 OA
ATOM     21  H   UNL     1      10.768   2.137  22.266  0.00  0.00    +0.210 HD
ENDBRANCH  19  20
ENDBRANCH   3  19
TORSDOF 4
ENDMDL
MODEL 5
REMARK VINA RESULT:      -5.9      2.409      5.415
REMARK  Name = 
REMARK  5 active torsions:
REMARK  status: ('A' for Active; 'I' for Inactive)
REMARK    1  A    between atoms: C_1  and  C_2
REMARK    2  A    between atoms: N_4  and  C_10
REMARK    3  A    between atoms: C_14  and  O_21
REMARK    4  A    between atoms: C_16  and  C_19
REMARK    5  A    between atoms: C_19  and  O_20
REMARK                            x       y       z     vdW  Elec       q    Type
REMARK                         _______ _______ _______ _____ _____    ______ ____
ROOT
ATOM      1  C   UNL     1       8.089  -3.492  24.106  0.00  0.00    +0.260 C 
ATOM      2  O   UNL     1       7.077  -4.242  24.814  0.00  0.00    -0.345 OA
ATOM      3  C   UNL     1       7.746  -5.205  25.669  0.00  0.00    +0.178 C 
ATOM      4  C   UNL     1       9.250  -5.039  25.457  0.00  0.00    +0.184 C 
ATOM      5  C   UNL     1       9.368  -3.624  24.934  0.00  0.00    +0.246 C 
ATOM      6  F   UNL     1      10.497  -3.505  24.194  0.00  0.00    -0.238 F 
ENDROOT
BRANCH   1  15
ATOM      7  C   UNL     1       8.573   1.393  25.006  0.00  0.00    +0.051 C 
ATOM      8  C   UNL     1       7.926   0.227  24.333  0.00  0.00    +0.030 A 
ATOM      9  C   UNL     1       6.880   0.509  23.325  0.00  0.00    +0.257 A 
ATOM     10  O   UNL     1       6.545   1.653  23.037  0.00  0.00    -0.267 OA
ATOM     11  N   UNL     1       6.311  -0.586  22.741  0.00  0.00    -0.275 N 
ATOM     12  H   UNL     1       5.598  -0.416  22.049  0.00  0.00    +0.173 HD
ATOM     13  C   UNL     1       6.672  -1.892  22.939  0.00  0.00    +0.331 A 
ATOM     14  O   UNL     1       6.136  -2.785  22.288  0.00  0.00    -0.246 OA
ATOM     15  N   UNL     1       7.654  -2.106  23.898  0.00  0.00    -0.271 N 
ATOM     16  C   UNL     1       8.240  -1.051  24.571  0.00  0.00    +0.102 A 
ENDBRANCH   1  15
BRANCH   4  17
ATOM     17  O   UNL     1       9.689  -5.973  24.458  0.00  0.00    -0.386 OA
ATOM     18  H   UNL     1      10.637  -5.790  24.302  0.00  0.00    +0.210 HD
ENDBRANCH   4  17
BRANCH   3  19
ATOM     19  C   UNL     1       7.320  -4.948  27.116  0.00  0.00    +0.190 C 
BRANCH  19  20
ATOM     20  O   UNL     1       7.515  -6.107  27.923  0.00  0.00    -0.392 OA
ATOM     21  H   UNL     1       7.353  -6.872  27.347  0.00  0.00    +0.210 HD
ENDBRANCH  19  20
ENDBRANCH   3  19
TORSDOF 4
ENDMDL
MODEL 6
REMARK VINA RESULT:      -5.8      2.718      3.399
REMARK  Name = 
REMARK  5 active torsions:
REMARK  status: ('A' for Active; 'I' for Inactive)
REMARK    1  A    between atoms: C_1  and  C_2
REMARK    2  A    between atoms: N_4  and  C_10
REMARK    3  A    between atoms: C_14  and  O_21
REMARK    4  A    between atoms: C_16  and  C_19
REMARK    5  A    between atoms: C_19  and  O_20
REMARK                            x       y       z     vdW  Elec       q    Type
REMARK                         _______ _______ _______ _____ _____    ______ ____
ROOT
ATOM      1  C   UNL     1       8.800  -0.001  23.196  0.00  0.00    +0.260 C 
ATOM      2  O   UNL     1       8.057   1.072  23.817  0.00  0.00    -0.345 OA
ATOM      3  C   UNL     1       7.997   2.179  22.879  0.00  0.00    +0.178 C 
ATOM      4  C   UNL     1       8.760   1.756  21.624  0.00  0.00    +0.184 C 
ATOM      5  C   UNL     1       8.720   0.245  21.689  0.00  0.00    +0.246 C 
ATOM      6  F   UNL     1       9.772  -0.268  21.008  0.00  0.00    -0.238 F 
ENDROOT
BRANCH   1  15
ATOM      7  C   UNL     1       4.956  -2.940  24.424  0.00  0.00    +0.051 C 
ATOM      8  C   UNL     1       6.409  -2.690  24.177  0.00  0.00    +0.030 A 
ATOM      9  C   UNL     1       7.327  -3.848  24.251  0.00  0.00    +0.257 A 
ATOM     10  O   UNL     1       6.928  -4.981  24.499  0.00  0.00    -0.267 OA
ATOM     11  N   UNL     1       8.646  -3.574  24.027  0.00  0.00    -0.275 N 
ATOM     12  H   UNL     1       9.287  -4.349  24.068  0.00  0.00    +0.173 HD
ATOM     13  C   UNL     1       9.172  -2.362  23.666  0.00  0.00    +0.331 A 
ATOM     14  O   UNL     1      10.369  -2.262  23.411  0.00  0.00    -0.246 OA
ATOM     15  N   UNL     1       8.272  -1.305  23.616  0.00  0.00    -0.271 N 
ATOM     16  C   UNL     1       6.929  -1.494  23.883  0.00  0.00    +0.102 A 
ENDBRANCH   1  15
BRANCH   4  17
ATOM     17  O   UNL     1      10.116   2.218  21.722  0.00  0.00    -0.386 OA
ATOM     18  H   UNL     1      10.246   2.511  22.647  0.00  0.00    +0.210 HD
ENDBRANCH   4  17
BRANCH   3  19
ATOM     19  C   UNL     1       6.528   2.500  22.600  0.00  0.00    +0.190 C 
BRANCH  19  20
ATOM     20  O   UNL     1       6.403   3.627  21.736  0.00  0.00    -0.392 OA
ATOM     21  H   UNL     1       6.645   4.405  22.265  0.00  0.00    +0.210 HD
ENDBRANCH  19  20
ENDBRANCH   3  19
TORSDOF 4
ENDMDL
MODEL 7
REMARK VINA RESULT:      -5.8      3.334      3.670
REMARK  Name = 
REMARK  5 active torsions:
REMARK  status: ('A' for Active; 'I' for Inactive)
REMARK    1  A    between atoms: C_1  and  C_2
REMARK    2  A    between atoms: N_4  and  C_10
REMARK    3  A    between atoms: C_14  and  O_21
REMARK    4  A    between atoms: C_16  and  C_19
REMARK    5  A    between atoms: C_19  and  O_20
REMARK                            x       y       z     vdW  Elec       q    Type
REMARK                         _______ _______ _______ _____ _____    ______ ____
ROOT
ATOM      1  C   UNL     1       7.139  -4.200  23.229  0.00  0.00    +0.260 C 
ATOM      2  O   UNL     1       8.305  -4.123  24.079  0.00  0.00    -0.345 OA
ATOM      3  C   UNL     1       8.734  -2.737  24.131  0.00  0.00    +0.178 C 
ATOM      4  C   UNL     1       7.780  -1.930  23.251  0.00  0.00    +0.184 C 
ATOM      5  C   UNL     1       6.538  -2.794  23.208  0.00  0.00    +0.246 C 
ATOM      6  F   UNL     1       5.839  -2.530  22.078  0.00  0.00    -0.238 F 
ENDROOT
BRANCH   1  15
ATOM      7  C   UNL     1       4.933  -6.650  26.977  0.00  0.00    +0.051 C 
ATOM      8  C   UNL     1       5.162  -6.373  25.526  0.00  0.00    +0.030 A 
ATOM      9  C   UNL     1       4.327  -7.104  24.547  0.00  0.00    +0.257 A 
ATOM     10  O   UNL     1       3.469  -7.908  24.895  0.00  0.00    -0.267 OA
ATOM     11  N   UNL     1       4.575  -6.826  23.234  0.00  0.00    -0.275 N 
ATOM     12  H   UNL     1       4.014  -7.311  22.551  0.00  0.00    +0.173 HD
ATOM     13  C   UNL     1       5.452  -5.890  22.754  0.00  0.00    +0.331 A 
ATOM     14  O   UNL     1       5.524  -5.676  21.546  0.00  0.00    -0.246 OA
ATOM     15  N   UNL     1       6.216  -5.235  23.710  0.00  0.00    -0.271 N 
ATOM     16  C   UNL     1       6.060  -5.501  25.058  0.00  0.00    +0.102 A 
ENDBRANCH   1  15
BRANCH   4  17
ATOM     17  O   UNL     1       8.344  -1.810  21.936  0.00  0.00    -0.386 OA
ATOM     18  H   UNL     1       8.464  -2.722  21.599  0.00  0.00    +0.210 HD
ENDBRANCH   4  17
BRANCH   3  19
ATOM     19  C   UNL     1       8.722  -2.280  25.591  0.00  0.00    +0.190 C 
BRANCH  19  20
ATOM     20  O   UNL     1       8.532  -3.383  26.474  0.00  0.00    -0.392 OA
ATOM     21  H   UNL     1       9.346  -3.911  26.432  0.00  0.00    +0.210 HD
ENDBRANCH  19  20
ENDBRANCH   3  19
TORSDOF 4
ENDMDL
MODEL 8
REMARK VINA RESULT:      -5.7      2.630      5.607
REMARK  Name = 
REMARK  5 active torsions:
REMARK  status: ('A' for Active; 'I' for Inactive)
REMARK    1  A    between atoms: C_1  and  C_2
REMARK    2  A    between atoms: N_4  and  C_10
REMARK    3  A    between atoms: C_14  and  O_21
REMARK    4  A    between atoms: C_16  and  C_19
REMARK    5  A    between atoms: C_19  and  O_20
REMARK                            x       y       z     vdW  Elec       q    Type
REMARK                         _______ _______ _______ _____ _____    ______ ____
ROOT
ATOM      1  C   UNL     1       9.135  -2.891  24.497  0.00  0.00    +0.260 C 
ATOM      2  O   UNL     1       8.695  -4.092  23.824  0.00  0.00    -0.345 OA
ATOM      3  C   UNL     1       8.144  -4.991  24.822  0.00  0.00    +0.178 C 
ATOM      4  C   UNL     1       8.270  -4.301  26.179  0.00  0.00    +0.184 C 
ATOM      5  C   UNL     1       8.357  -2.835  25.812  0.00  0.00    +0.246 C 
ATOM      6  F   UNL     1       9.008  -2.159  26.789  0.00  0.00    -0.238 F 
ENDROOT
BRANCH   1  15
ATOM      7  C   UNL     1       6.580   1.219  23.275  0.00  0.00    +0.051 C 
ATOM      8  C   UNL     1       7.708   0.255  23.093  0.00  0.00    +0.030 A 
ATOM      9  C   UNL     1       8.729   0.578  22.072  0.00  0.00    +0.257 A 
ATOM     10  O   UNL     1       8.672   1.598  21.394  0.00  0.00    -0.267 OA
ATOM     11  N   UNL     1       9.737  -0.333  21.935  0.00  0.00    -0.275 N 
ATOM     12  H   UNL     1      10.445  -0.130  21.248  0.00  0.00    +0.173 HD
ATOM     13  C   UNL     1       9.927  -1.454  22.698  0.00  0.00    +0.331 A 
ATOM     14  O   UNL     1      10.923  -2.152  22.528  0.00  0.00    -0.246 OA
ATOM     15  N   UNL     1       8.940  -1.717  23.638  0.00  0.00    -0.271 N 
ATOM     16  C   UNL     1       7.860  -0.869  23.800  0.00  0.00    +0.102 A 
ENDBRANCH   1  15
BRANCH   4  17
ATOM     17  O   UNL     1       9.489  -4.725  26.810  0.00  0.00    -0.386 OA
ATOM     18  H   UNL     1       9.465  -5.703  26.834  0.00  0.00    +0.210 HD
ENDBRANCH   4  17
BRANCH   3  19
ATOM     19  C   UNL     1       6.694  -5.302  24.447  0.00  0.00    +0.190 C 
BRANCH  19  20
ATOM     20  O   UNL     1       6.580  -5.641  23.067  0.00  0.00    -0.392 OA
ATOM     21  H   UNL     1       6.864  -6.566  22.988  0.00  0.00    +0.210 HD
ENDBRANCH  19  20
ENDBRANCH   3  19
TORSDOF 4
ENDMDL
MODEL 9
REMARK VINA RESULT:      -5.7      2.382      5.461
REMARK  Name = 
REMARK  5 active torsions:
REMARK  status: ('A' for Active; 'I' for Inactive)
REMARK    1  A    between atoms: C_1  and  C_2
REMARK    2  A    between atoms: N_4  and  C_10
REMARK    3  A    between atoms: C_14  and  O_21
REMARK    4  A    between atoms: C_16  and  C_19
REMARK    5  A    between atoms: C_19  and  O_20
REMARK                            x       y       z     vdW  Elec       q    Type
REMARK                         _______ _______ _______ _____ _____    ______ ____
ROOT
ATOM      1  C   UNL     1       7.578  -2.771  23.820  0.00  0.00    +0.260 C 
ATOM      2  O   UNL     1       8.027  -2.975  25.178  0.00  0.00    -0.345 OA
ATOM      3  C   UNL     1       8.050  -4.404  25.434  0.00  0.00    +0.178 C 
ATOM      4  C   UNL     1       7.574  -5.105  24.162  0.00  0.00    +0.184 C 
ATOM      5  C   UNL     1       7.852  -4.082  23.082  0.00  0.00    +0.246 C 
ATOM      6  F   UNL     1       7.019  -4.289  22.034  0.00  0.00    -0.238 F 
ENDROOT
BRANCH   1  15
ATOM      7  C   UNL     1       7.397   1.895  22.057  0.00  0.00    +0.051 C 
ATOM      8  C   UNL     1       8.124   0.638  22.409  0.00  0.00    +0.030 A 
ATOM      9  C   UNL     1       9.596   0.629  22.255  0.00  0.00    +0.257 A 
ATOM     10  O   UNL     1      10.215   1.610  21.858  0.00  0.00    -0.267 OA
ATOM     11  N   UNL     1      10.218  -0.542  22.581  0.00  0.00    -0.275 N 
ATOM     12  H   UNL     1      11.221  -0.567  22.487  0.00  0.00    +0.173 HD
ATOM     13  C   UNL     1       9.623  -1.658  23.106  0.00  0.00    +0.331 A 
ATOM     14  O   UNL     1      10.307  -2.623  23.435  0.00  0.00    -0.246 OA
ATOM     15  N   UNL     1       8.241  -1.603  23.226  0.00  0.00    -0.271 N 
ATOM     16  C   UNL     1       7.534  -0.471  22.866  0.00  0.00    +0.102 A 
ENDBRANCH   1  15
BRANCH   4  17
ATOM     17  O   UNL     1       6.162  -5.347  24.261  0.00  0.00    -0.386 OA
ATOM     18  H   UNL     1       5.997  -5.668  25.171  0.00  0.00    +0.210 HD
ENDBRANCH   4  17
BRANCH   3  19
ATOM     19  C   UNL     1       9.472  -4.802  25.834  0.00  0.00    +0.190 C 
BRANCH  19  20
ATOM     20  O   UNL     1       9.879  -5.995  25.166  0.00  0.00    -0.392 OA
ATOM     21  H   UNL     1      10.186  -6.604  25.858  0.00  0.00    +0.210 HD
ENDBRANCH  19  20
ENDBRANCH   3  19
TORSDOF 4
ENDMDL
