MODEL 1
REMARK VINA RESULT:      -6.7      0.000      0.000
REMARK  Name = 
REMARK  3 active torsions:
REMARK  status: ('A' for Active; 'I' for Inactive)
REMARK    1  A    between atoms: C_3  and  C_4
REMARK    2  A    between atoms: C_5  and  C_6
REMARK    3  A    between atoms: C_6  and  C_18
REMARK                            x       y       z     vdW  Elec       q    Type
REMARK                         _______ _______ _______ _____ _____    ______ ____
ROOT
ATOM      1  C   UNL     1       8.110  -4.134  25.882  0.00  0.00    +0.296 C 
ATOM      2  O   UNL     1       7.702  -4.466  27.235  0.00  0.00    -0.417 OA
ATOM      3  C   UNL     1       7.037  -5.621  27.469  0.00  0.00    +0.407 C 
ATOM      4  O   UNL     1       7.087  -6.194  28.552  0.00  0.00    -0.226 OA
ATOM      5  N   UNL     1       6.221  -6.070  26.472  0.00  0.00    -0.251 N 
ATOM      6  H   UNL     1       5.632  -6.851  26.726  0.00  0.00    +0.158 HD
ATOM      7  C   UNL     1       6.104  -5.471  25.226  0.00  0.00    +0.045 A 
ATOM      8  C   UNL     1       5.111  -5.886  24.339  0.00  0.00    +0.025 A 
ATOM      9  C   UNL     1       5.053  -5.329  23.060  0.00  0.00    +0.022 A 
ATOM     10  C   UNL     1       5.996  -4.378  22.678  0.00  0.00    +0.042 A 
ATOM     11 CL   UNL     1       5.969  -3.739  21.082  0.00  0.00    -0.084 Cl
ATOM     12  C   UNL     1       6.977  -3.955  23.574  0.00  0.00    +0.030 A 
ATOM     13  C   UNL     1       7.025  -4.490  24.876  0.00  0.00    +0.040 A 
ENDROOT
BRANCH   1  14
ATOM     14  C   UNL     1       9.449  -4.881  25.551  0.00  0.00    +0.446 C 
ATOM     15  F   UNL     1      10.232  -5.061  26.646  0.00  0.00    -0.165 F 
ATOM     16  F   UNL     1      10.206  -4.199  24.656  0.00  0.00    -0.165 F 
ATOM     17  F   UNL     1       9.247  -6.115  25.024  0.00  0.00    -0.165 F 
ENDBRANCH   1  14
BRANCH   1  19
ATOM     18  C   UNL     1       8.521  -1.474  25.843  0.00  0.00    -0.094 C 
ATOM     19  C   UNL     1       8.315  -2.657  25.882  0.00  0.00    -0.041 C 
BRANCH  18  21
ATOM     20  C   UNL     1       8.686   0.655  24.474  0.00  0.00    +0.017 C 
ATOM     21  C   UNL     1       8.831  -0.076  25.781  0.00  0.00    +0.064 C 
ATOM     22  C   UNL     1      10.054   0.363  25.019  0.00  0.00    +0.017 C 
ENDBRANCH  18  21
ENDBRANCH   1  19
TORSDOF 3
ENDMDL
MODEL 2
REMARK VINA RESULT:      -6.4      5.505      6.975
REMARK  Name = 
REMARK  3 active torsions:
REMARK  status: ('A' for Active; 'I' for Inactive)
REMARK    1  A    between atoms: C_3  and  C_4
REMARK    2  A    between atoms: C_5  and  C_6
REMARK    3  A    between atoms: C_6  and  C_18
REMARK                            x       y       z     vdW  Elec       q    Type
REMARK                         _______ _______ _______ _____ _____    ______ ____
ROOT
ATOM      1  C   UNL     1       9.613   1.295  23.184  0.00  0.00    +0.296 C 
ATOM      2  O   UNL     1      10.500   0.171  22.950  0.00  0.00    -0.417 OA
ATOM      3  C   UNL     1      10.078  -1.084  23.227  0.00  0.00    +0.407 C 
ATOM      4  O   UNL     1      10.522  -2.066  22.641  0.00  0.00    -0.226 OA
ATOM      5  N   UNL     1       9.201  -1.220  24.263  0.00  0.00    -0.251 N 
ATOM      6  H   UNL     1       9.014  -2.175  24.537  0.00  0.00    +0.158 HD
ATOM      7  C   UNL     1       8.663  -0.161  24.978  0.00  0.00    +0.045 A 
ATOM      8  C   UNL     1       7.925  -0.400  26.137  0.00  0.00    +0.025 A 
ATOM      9  C   UNL     1       7.324   0.669  26.804  0.00  0.00    +0.022 A 
ATOM     10  C   UNL     1       7.453   1.960  26.297  0.00  0.00    +0.042 A 
ATOM     11 CL   UNL     1       6.660   3.270  27.078  0.00  0.00    -0.084 Cl
ATOM     12  C   UNL     1       8.206   2.195  25.147  0.00  0.00    +0.030 A 
ATOM     13  C   UNL     1       8.839   1.127  24.484  0.00  0.00    +0.040 A 
ENDROOT
BRANCH   1  14
ATOM     14  C   UNL     1       8.636   1.441  21.965  0.00  0.00    +0.446 C 
ATOM     15  F   UNL     1       8.400   2.738  21.637  0.00  0.00    -0.165 F 
ATOM     16  F   UNL     1       7.422   0.890  22.214  0.00  0.00    -0.165 F 
ATOM     17  F   UNL     1       9.106   0.847  20.840  0.00  0.00    -0.165 F 
ENDBRANCH   1  14
BRANCH   1  19
ATOM     18  C   UNL     1      11.264   3.412  23.382  0.00  0.00    -0.094 C 
ATOM     19  C   UNL     1      10.503   2.487  23.293  0.00  0.00    -0.041 C 
BRANCH  18  21
ATOM     20  C   UNL     1      11.752   5.902  23.401  0.00  0.00    +0.017 C 
ATOM     21  C   UNL     1      12.216   4.475  23.518  0.00  0.00    +0.064 C 
ATOM     22  C   UNL     1      12.573   5.290  22.302  0.00  0.00    +0.017 C 
ENDBRANCH  18  21
ENDBRANCH   1  19
TORSDOF 3
ENDMDL
MODEL 3
REMARK VINA RESULT:      -6.2      4.341      5.928
REMARK  Name = 
REMARK  3 active torsions:
REMARK  status: ('A' for Active; 'I' for Inactive)
REMARK    1  A    between atoms: C_3  and  C_4
REMARK    2  A    between atoms: C_5  and  C_6
REMARK    3  A    between atoms: C_6  and  C_18
REMARK                            x       y       z     vdW  Elec       q    Type
REMARK                         _______ _______ _______ _____ _____    ______ ____
ROOT
ATOM      1  C   UNL     1       8.488   0.734  23.053  0.00  0.00    +0.296 C 
ATOM      2  O   UNL     1       9.467   1.191  24.022  0.00  0.00    -0.417 OA
ATOM      3  C   UNL     1      10.492   0.380  24.373  0.00  0.00    +0.407 C 
ATOM      4  O   UNL     1      11.566   0.820  24.766  0.00  0.00    -0.226 OA
ATOM      5  N   UNL     1      10.241  -0.962  24.362  0.00  0.00    -0.251 N 
ATOM      6  H   UNL     1      10.974  -1.532  24.761  0.00  0.00    +0.158 HD
ATOM      7  C   UNL     1       9.050  -1.533  23.940  0.00  0.00    +0.045 A 
ATOM      8  C   UNL     1       8.816  -2.893  24.140  0.00  0.00    +0.025 A 
ATOM      9  C   UNL     1       7.647  -3.471  23.641  0.00  0.00    +0.022 A 
ATOM     10  C   UNL     1       6.736  -2.688  22.936  0.00  0.00    +0.042 A 
ATOM     11 CL   UNL     1       5.328  -3.410  22.263  0.00  0.00    -0.084 Cl
ATOM     12  C   UNL     1       6.968  -1.326  22.753  0.00  0.00    +0.030 A 
ATOM     13  C   UNL     1       8.130  -0.728  23.277  0.00  0.00    +0.040 A 
ENDROOT
BRANCH   1  14
ATOM     14  C   UNL     1       9.054   0.957  21.607  0.00  0.00    +0.446 C 
ATOM     15  F   UNL     1       9.490  -0.194  21.033  0.00  0.00    -0.165 F 
ATOM     16  F   UNL     1      10.111   1.807  21.597  0.00  0.00    -0.165 F 
ATOM     17  F   UNL     1       8.133   1.477  20.757  0.00  0.00    -0.165 F 
ENDBRANCH   1  14
BRANCH   1  19
ATOM     18  C   UNL     1       6.332   2.298  23.445  0.00  0.00    -0.094 C 
ATOM     19  C   UNL     1       7.279   1.576  23.283  0.00  0.00    -0.041 C 
BRANCH  18  21
ATOM     20  C   UNL     1       4.248   3.420  22.533  0.00  0.00    +0.017 C 
ATOM     21  C   UNL     1       5.245   3.211  23.640  0.00  0.00    +0.064 C 
ATOM     22  C   UNL     1       5.234   4.502  22.864  0.00  0.00    +0.017 C 
ENDBRANCH  18  21
ENDBRANCH   1  19
TORSDOF 3
ENDMDL
MODEL 4
REMARK VINA RESULT:      -6.2      3.855      5.963
REMARK  Name = 
REMARK  3 active torsions:
REMARK  status: ('A' for Active; 'I' for Inactive)
REMARK    1  A    between atoms: C_3  and  C_4
REMARK    2  A    between atoms: C_5  and  C_6
REMARK    3  A    between atoms: C_6  and  C_18
REMARK                            x       y       z     vdW  Elec       q    Type
REMARK                         _______ _______ _______ _____ _____    ______ ____
ROOT
ATOM      1  C   UNL     1       8.398  -1.981  23.169  0.00  0.00    +0.296 C 
ATOM      2  O   UNL     1       8.518  -1.163  21.977  0.00  0.00    -0.417 OA
ATOM      3  C   UNL     1       8.538   0.185  22.089  0.00  0.00    +0.407 C 
ATOM      4  O   UNL     1       9.099   0.900  21.266  0.00  0.00    -0.226 OA
ATOM      5  N   UNL     1       7.817   0.725  23.115  0.00  0.00    -0.251 N 
ATOM      6  H   UNL     1       7.734   1.732  23.090  0.00  0.00    +0.158 HD
ATOM      7  C   UNL     1       7.149  -0.017  24.078  0.00  0.00    +0.045 A 
ATOM      8  C   UNL     1       6.286   0.613  24.974  0.00  0.00    +0.025 A 
ATOM      9  C   UNL     1       5.682  -0.133  25.987  0.00  0.00    +0.022 A 
ATOM     10  C   UNL     1       5.958  -1.493  26.103  0.00  0.00    +0.042 A 
ATOM     11 CL   UNL     1       5.267  -2.401  27.389  0.00  0.00    -0.084 Cl
ATOM     12  C   UNL     1       6.809  -2.121  25.194  0.00  0.00    +0.030 A 
ATOM     13  C   UNL     1       7.401  -1.383  24.152  0.00  0.00    +0.040 A 
ENDROOT
BRANCH   1  14
ATOM     14  C   UNL     1       9.812  -2.137  23.831  0.00  0.00    +0.446 C 
ATOM     15  F   UNL     1      10.821  -2.087  22.923  0.00  0.00    -0.165 F 
ATOM     16  F   UNL     1       9.946  -3.322  24.477  0.00  0.00    -0.165 F 
ATOM     17  F   UNL     1      10.076  -1.168  24.743  0.00  0.00    -0.165 F 
ENDBRANCH   1  14
BRANCH   1  19
ATOM     18  C   UNL     1       7.482  -4.382  22.367  0.00  0.00    -0.094 C 
ATOM     19  C   UNL     1       7.888  -3.300  22.696  0.00  0.00    -0.041 C 
BRANCH  18  21
ATOM     20  C   UNL     1       6.097  -5.882  20.861  0.00  0.00    +0.017 C 
ATOM     21  C   UNL     1       7.032  -5.699  22.025  0.00  0.00    +0.064 C 
ATOM     22  C   UNL     1       5.588  -6.057  22.262  0.00  0.00    +0.017 C 
ENDBRANCH  18  21
ENDBRANCH   1  19
TORSDOF 3
ENDMDL
MODEL 5
REMARK VINA RESULT:      -6.1      3.209      4.144
REMARK  Name = 
REMARK  3 active torsions:
REMARK  status: ('A' for Active; 'I' for Inactive)
REMARK    1  A    between atoms: C_3  and  C_4
REMARK    2  A    between atoms: C_5  and  C_6
REMARK    3  A    between atoms: C_6  and  C_18
REMARK                            x       y       z     vdW  Elec       q    Type
REMARK                         _______ _______ _______ _____ _____    ______ ____
ROOT
ATOM      1  C   UNL     1       7.838  -3.015  23.329  0.00  0.00    +0.296 C 
ATOM      2  O   UNL     1       8.938  -3.905  23.651  0.00  0.00    -0.417 OA
ATOM      3  C   UNL     1       8.812  -4.783  24.673  0.00  0.00    +0.407 C 
ATOM      4  O   UNL     1       9.433  -5.840  24.705  0.00  0.00    -0.226 OA
ATOM      5  N   UNL     1       8.032  -4.392  25.722  0.00  0.00    -0.251 N 
ATOM      6  H   UNL     1       8.069  -5.002  26.528  0.00  0.00    +0.158 HD
ATOM      7  C   UNL     1       7.309  -3.210  25.763  0.00  0.00    +0.045 A 
ATOM      8  C   UNL     1       6.692  -2.805  26.947  0.00  0.00    +0.025 A 
ATOM      9  C   UNL     1       5.902  -1.654  26.953  0.00  0.00    +0.022 A 
ATOM     10  C   UNL     1       5.725  -0.931  25.776  0.00  0.00    +0.042 A 
ATOM     11 CL   UNL     1       4.701   0.450  25.765  0.00  0.00    -0.084 Cl
ATOM     12  C   UNL     1       6.357  -1.331  24.599  0.00  0.00    +0.030 A 
ATOM     13  C   UNL     1       7.178  -2.474  24.590  0.00  0.00    +0.040 A 
ENDROOT
BRANCH   1  14
ATOM     14  C   UNL     1       6.800  -3.781  22.437  0.00  0.00    +0.446 C 
ATOM     15  F   UNL     1       5.835  -4.396  23.170  0.00  0.00    -0.165 F 
ATOM     16  F   UNL     1       7.384  -4.754  21.694  0.00  0.00    -0.165 F 
ATOM     17  F   UNL     1       6.152  -2.967  21.567  0.00  0.00    -0.165 F 
ENDBRANCH   1  14
BRANCH   1  19
ATOM     18  C   UNL     1       8.914  -0.939  21.994  0.00  0.00    -0.094 C 
ATOM     19  C   UNL     1       8.451  -1.885  22.573  0.00  0.00    -0.041 C 
BRANCH  18  21
ATOM     20  C   UNL     1       9.986   1.357  22.119  0.00  0.00    +0.017 C 
ATOM     21  C   UNL     1       9.409   0.223  21.317  0.00  0.00    +0.064 C 
ATOM     22  C   UNL     1       8.652   1.519  21.451  0.00  0.00    +0.017 C 
ENDBRANCH  18  21
ENDBRANCH   1  19
TORSDOF 3
ENDMDL
MODEL 6
REMARK VINA RESULT:      -6.0      1.866      2.226
REMARK  Name = 
REMARK  3 active torsions:
REMARK  status: ('A' for Active; 'I' for Inactive)
REMARK    1  A    between atoms: C_3  and  C_4
REMARK    2  A    between atoms: C_5  and  C_6
REMARK    3  A    between atoms: C_6  and  C_18
REMARK                            x       y       z     vdW  Elec       q    Type
REMARK                         _______ _______ _______ _____ _____    ______ ____
ROOT
ATOM      1  C   UNL     1       7.721  -3.685  25.078  0.00  0.00    +0.296 C 
ATOM      2  O   UNL     1       7.149  -2.829  26.100  0.00  0.00    -0.417 OA
ATOM      3  C   UNL     1       6.012  -3.205  26.730  0.00  0.00    +0.407 C 
ATOM      4  O   UNL     1       5.742  -2.834  27.867  0.00  0.00    -0.226 OA
ATOM      5  N   UNL     1       5.124  -3.942  26.001  0.00  0.00    -0.251 N 
ATOM      6  H   UNL     1       4.228  -4.087  26.446  0.00  0.00    +0.158 HD
ATOM      7  C   UNL     1       5.353  -4.389  24.708  0.00  0.00    +0.045 A 
ATOM      8  C   UNL     1       4.319  -4.972  23.975  0.00  0.00    +0.025 A 
ATOM      9  C   UNL     1       4.582  -5.489  22.705  0.00  0.00    +0.022 A 
ATOM     10  C   UNL     1       5.875  -5.433  22.191  0.00  0.00    +0.042 A 
ATOM     11 CL   UNL     1       6.217  -6.127  20.656  0.00  0.00    -0.084 Cl
ATOM     12  C   UNL     1       6.901  -4.835  22.922  0.00  0.00    +0.030 A 
ATOM     13  C   UNL     1       6.639  -4.285  24.191  0.00  0.00    +0.040 A 
ENDROOT
BRANCH   1  14
ATOM     14  C   UNL     1       8.569  -4.811  25.767  0.00  0.00    +0.446 C 
ATOM     15  F   UNL     1       9.475  -5.372  24.923  0.00  0.00    -0.165 F 
ATOM     16  F   UNL     1       7.796  -5.830  26.219  0.00  0.00    -0.165 F 
ATOM     17  F   UNL     1       9.276  -4.359  26.833  0.00  0.00    -0.165 F 
ENDBRANCH   1  14
BRANCH   1  19
ATOM     18  C   UNL     1       9.336  -2.114  23.605  0.00  0.00    -0.094 C 
ATOM     19  C   UNL     1       8.591  -2.796  24.257  0.00  0.00    -0.041 C 
BRANCH  18  21
ATOM     20  C   UNL     1      10.309   0.166  23.065  0.00  0.00    +0.017 C 
ATOM     21  C   UNL     1      10.274  -1.325  22.864  0.00  0.00    +0.064 C 
ATOM     22  C   UNL     1       9.759  -0.403  21.789  0.00  0.00    +0.017 C 
ENDBRANCH  18  21
ENDBRANCH   1  19
TORSDOF 3
ENDMDL
MODEL 7
REMARK VINA RESULT:      -6.0      6.408      9.209
REMARK  Name = 
REMARK  3 active torsions:
REMARK  status: ('A' for Active; 'I' for Inactive)
REMARK    1  A    between atoms: C_3  and  C_4
REMARK    2  A    between atoms: C_5  and  C_6
REMARK    3  A    between atoms: C_6  and  C_18
REMARK                            x       y       z     vdW  Elec       q    Type
REMARK                         _______ _______ _______ _____ _____    ______ ____
ROOT
ATOM      1  C   UNL     1       8.359   3.081  23.835  0.00  0.00    +0.296 C 
ATOM      2  O   UNL     1       7.289   3.192  24.809  0.00  0.00    -0.417 OA
ATOM      3  C   UNL     1       6.810   4.413  25.142  0.00  0.00    +0.407 C 
ATOM      4  O   UNL     1       5.662   4.577  25.539  0.00  0.00    -0.226 OA
ATOM      5  N   UNL     1       7.699   5.448  25.109  0.00  0.00    -0.251 N 
ATOM      6  H   UNL     1       7.353   6.316  25.496  0.00  0.00    +0.158 HD
ATOM      7  C   UNL     1       9.013   5.339  24.681  0.00  0.00    +0.045 A 
ATOM      8  C   UNL     1       9.899   6.402  24.859  0.00  0.00    +0.025 A 
ATOM      9  C   UNL     1      11.197   6.308  24.354  0.00  0.00    +0.022 A 
ATOM     10  C   UNL     1      11.589   5.163  23.665  0.00  0.00    +0.042 A 
ATOM     11 CL   UNL     1      13.165   5.070  22.984  0.00  0.00    -0.084 Cl
ATOM     12  C   UNL     1      10.705   4.097  23.505  0.00  0.00    +0.030 A 
ATOM     13  C   UNL     1       9.403   4.171  24.035  0.00  0.00    +0.040 A 
ENDROOT
BRANCH   1  14
ATOM     14  C   UNL     1       7.749   3.148  22.391  0.00  0.00    +0.446 C 
ATOM     15  F   UNL     1       6.510   2.595  22.321  0.00  0.00    -0.165 F 
ATOM     16  F   UNL     1       8.509   2.484  21.484  0.00  0.00    -0.165 F 
ATOM     17  F   UNL     1       7.622   4.418  21.932  0.00  0.00    -0.165 F 
ENDBRANCH   1  14
BRANCH   1  19
ATOM     18  C   UNL     1       9.520   0.686  24.237  0.00  0.00    -0.094 C 
ATOM     19  C   UNL     1       8.985   1.751  24.083  0.00  0.00    -0.041 C 
BRANCH  18  21
ATOM     20  C   UNL     1      10.116  -1.552  23.202  0.00  0.00    +0.017 C 
ATOM     21  C   UNL     1      10.169  -0.586  24.354  0.00  0.00    +0.064 C 
ATOM     22  C   UNL     1       9.321  -1.828  24.446  0.00  0.00    +0.017 C 
ENDBRANCH  18  21
ENDBRANCH   1  19
TORSDOF 3
ENDMDL
MODEL 8
REMARK VINA RESULT:      -5.8      3.450      5.905
REMARK  Name = 
REMARK  3 active torsions:
REMARK  status: ('A' for Active; 'I' for Inactive)
REMARK    1  A    between atoms: C_3  and  C_4
REMARK    2  A    between atoms: C_5  and  C_6
REMARK    3  A    between atoms: C_6  and  C_18
REMARK                            x       y       z     vdW  Elec       q    Type
REMARK                         _______ _______ _______ _____ _____    ______ ____
ROOT
ATOM      1  C   UNL     1       6.415  -4.596  23.089  0.00  0.00    +0.296 C 
ATOM      2  O   UNL     1       6.678  -3.387  22.332  0.00  0.00    -0.417 OA
ATOM      3  C   UNL     1       7.880  -2.776  22.441  0.00  0.00    +0.407 C 
ATOM      4  O   UNL     1       8.350  -2.093  21.537  0.00  0.00    -0.226 OA
ATOM      5  N   UNL     1       8.509  -2.875  23.648  0.00  0.00    -0.251 N 
ATOM      6  H   UNL     1       9.332  -2.295  23.745  0.00  0.00    +0.158 HD
ATOM      7  C   UNL     1       8.037  -3.619  24.719  0.00  0.00    +0.045 A 
ATOM      8  C   UNL     1       8.644  -3.510  25.970  0.00  0.00    +0.025 A 
ATOM      9  C   UNL     1       8.209  -4.322  27.019  0.00  0.00    +0.022 A 
ATOM     10  C   UNL     1       7.186  -5.242  26.802  0.00  0.00    +0.042 A 
ATOM     11 CL   UNL     1       6.693  -6.290  28.073  0.00  0.00    -0.084 Cl
ATOM     12  C   UNL     1       6.572  -5.335  25.554  0.00  0.00    +0.030 A 
ATOM     13  C   UNL     1       6.984  -4.500  24.497  0.00  0.00    +0.040 A 
ENDROOT
BRANCH   1  14
ATOM     14  C   UNL     1       7.018  -5.824  22.323  0.00  0.00    +0.446 C 
ATOM     15  F   UNL     1       6.244  -6.936  22.427  0.00  0.00    -0.165 F 
ATOM     16  F   UNL     1       8.240  -6.172  22.796  0.00  0.00    -0.165 F 
ATOM     17  F   UNL     1       7.169  -5.593  20.994  0.00  0.00    -0.165 F 
ENDBRANCH   1  14
BRANCH   1  19
ATOM     18  C   UNL     1       3.738  -4.833  23.255  0.00  0.00    -0.094 C 
ATOM     19  C   UNL     1       4.929  -4.699  23.167  0.00  0.00    -0.041 C 
BRANCH  18  21
ATOM     20  C   UNL     1       1.808  -6.027  24.389  0.00  0.00    +0.017 C 
ATOM     21  C   UNL     1       2.327  -5.058  23.361  0.00  0.00    +0.064 C 
ATOM     22  C   UNL     1       1.771  -6.391  22.933  0.00  0.00    +0.017 C 
ENDBRANCH  18  21
ENDBRANCH   1  19
TORSDOF 3
ENDMDL
MODEL 9
REMARK VINA RESULT:      -5.8      2.727      3.203
REMARK  Name = 
REMARK  3 active torsions:
REMARK  status: ('A' for Active; 'I' for Inactive)
REMARK    1  A    between atoms: C_3  and  C_4
REMARK    2  A    between atoms: C_5  and  C_6
REMARK    3  A    between atoms: C_6  and  C_18
REMARK                            x       y       z     vdW  Elec       q    Type
REMARK                         _______ _______ _______ _____ _____    ______ ____
ROOT
ATOM      1  C   UNL     1       7.243  -1.926  24.510  0.00  0.00    +0.296 C 
ATOM      2  O   UNL     1       6.511  -0.927  25.266  0.00  0.00    -0.417 OA
ATOM      3  C   UNL     1       5.469  -1.304  26.042  0.00  0.00    +0.407 C 
ATOM      4  O   UNL     1       5.129  -0.667  27.033  0.00  0.00    -0.226 OA
ATOM      5  N   UNL     1       4.746  -2.380  25.613  0.00  0.00    -0.251 N 
ATOM      6  H   UNL     1       3.895  -2.551  26.132  0.00  0.00    +0.158 HD
ATOM      7  C   UNL     1       5.061  -3.143  24.500  0.00  0.00    +0.045 A 
ATOM      8  C   UNL     1       4.165  -4.103  24.030  0.00  0.00    +0.025 A 
ATOM      9  C   UNL     1       4.528  -4.917  22.956  0.00  0.00    +0.022 A 
ATOM     10  C   UNL     1       5.786  -4.775  22.376  0.00  0.00    +0.042 A 
ATOM     11 CL   UNL     1       6.262  -5.820  21.096  0.00  0.00    -0.084 Cl
ATOM     12  C   UNL     1       6.672  -3.803  22.838  0.00  0.00    +0.030 A 
ATOM     13  C   UNL     1       6.304  -2.957  23.902  0.00  0.00    +0.040 A 
ENDROOT
BRANCH   1  14
ATOM     14  C   UNL     1       8.295  -2.612  25.451  0.00  0.00    +0.446 C 
ATOM     15  F   UNL     1       8.698  -1.801  26.463  0.00  0.00    -0.165 F 
ATOM     16  F   UNL     1       9.421  -2.969  24.784  0.00  0.00    -0.165 F 
ATOM     17  F   UNL     1       7.820  -3.740  26.037  0.00  0.00    -0.165 F 
ENDBRANCH   1  14
BRANCH   1  19
ATOM     18  C   UNL     1       8.495  -0.538  22.573  0.00  0.00    -0.094 C 
ATOM     19  C   UNL     1       7.923  -1.176  23.416  0.00  0.00    -0.041 C 
BRANCH  18  21
ATOM     20  C   UNL     1       9.999   1.443  22.078  0.00  0.00    +0.017 C 
ATOM     21  C   UNL     1       9.176   0.275  21.609  0.00  0.00    +0.064 C 
ATOM     22  C   UNL     1       8.693   1.683  21.377  0.00  0.00    +0.017 C 
ENDBRANCH  18  21
ENDBRANCH   1  19
TORSDOF 3
ENDMDL
