MODEL 1
REMARK VINA RESULT:      -7.0      0.000      0.000
REMARK  Name = 
REMARK  17 active torsions:
REMARK  status: ('A' for Active; 'I' for Inactive)
REMARK    1  A    between atoms: C_1  and  C_2
REMARK    2  A    between atoms: C_2  and  C_3
REMARK    3  A    between atoms: C_2  and  C_4
REMARK    4  A    between atoms: C_2  and  N_5
REMARK    5  A    between atoms: C_6  and  C_8
REMARK    6  A    between atoms: N_20  and  C_21
REMARK    7  A    between atoms: C_21  and  C_22
REMARK    8  A    between atoms: C_22  and  C_24
REMARK    9  A    between atoms: C_22  and  O_59
REMARK   10  A    between atoms: C_24  and  C_26
REMARK   11  A    between atoms: C_24  and  N_33
REMARK   12  A    between atoms: C_26  and  C_27
REMARK   13  A    between atoms: C_34  and  C_36
REMARK   14  A    between atoms: C_36  and  C_38
REMARK   15  A    between atoms: C_36  and  N_42
REMARK   16  A    between atoms: C_38  and  C_39
REMARK   17  A    between atoms: C_43  and  C_45
REMARK                            x       y       z     vdW  Elec       q    Type
REMARK                         _______ _______ _______ _____ _____    ______ ____
ROOT
ATOM      1  C   UNL     1       4.464  -4.696  25.332  0.00  0.00    +0.107 C 
ENDROOT
BRANCH   1   2
ATOM      2  N   UNL     1       5.892  -4.629  24.898  0.00  0.00    -0.308 N 
ATOM      3  H   UNL     1       6.515  -5.326  25.291  0.00  0.00    +0.149 HD
ATOM      4  C   UNL     1       6.234  -4.184  23.599  0.00  0.00    +0.234 C 
ATOM      5  O   UNL     1       5.383  -3.799  22.793  0.00  0.00    -0.274 OA
BRANCH   4   6
ATOM      6  C   UNL     1       7.763  -4.016  23.299  0.00  0.00    +0.168 C 
BRANCH   6   7
ATOM      7  N   UNL     1       8.218  -2.578  23.369  0.00  0.00    -0.298 N 
ATOM      8  H   UNL     1       7.487  -1.907  23.591  0.00  0.00    +0.150 HD
ATOM      9  C   UNL     1       9.461  -1.966  23.268  0.00  0.00    +0.263 C 
ATOM     10  O   UNL     1      10.506  -2.540  23.030  0.00  0.00    -0.269 OA
BRANCH   9  11
ATOM     11  C   UNL     1       9.424  -0.399  23.438  0.00  0.00    +0.126 A 
ATOM     12  C   UNL     1      10.159   0.260  24.395  0.00  0.00    +0.033 A 
ATOM     13  C   UNL     1      10.046   1.667  24.516  0.00  0.00    +0.012 A 
ATOM     14  C   UNL     1       9.160   2.374  23.701  0.00  0.00    +0.000 A 
ATOM     15  C   UNL     1       8.446   1.620  22.749  0.00  0.00    +0.072 A 
ATOM     16  C   UNL     1       7.542   2.316  21.951  0.00  0.00    +0.028 A 
ATOM     17  C   UNL     1       7.325   3.698  22.057  0.00  0.00    +0.002 A 
ATOM     18  C   UNL     1       8.033   4.435  23.002  0.00  0.00    +0.001 A 
ATOM     19  C   UNL     1       8.957   3.778  23.817  0.00  0.00    +0.010 A 
ATOM     20  N   UNL     1       8.584   0.276  22.594  0.00  0.00    -0.242 NA
ENDBRANCH   9  11
ENDBRANCH   6   7
BRANCH   6  21
ATOM     21  C   UNL     1       8.335  -5.110  24.217  0.00  0.00    +0.127 C 
BRANCH  21  22
ATOM     22  C   UNL     1       9.053  -4.750  25.475  0.00  0.00    +0.213 C 
ATOM     23  N   UNL     1      10.206  -5.482  25.651  0.00  0.00    -0.329 N 
ATOM     24  H   UNL     1      10.780  -5.322  26.470  0.00  0.00    +0.145 HD
ATOM     25  H   UNL     1      10.431  -6.283  25.070  0.00  0.00    +0.145 HD
ATOM     26  O   UNL     1       8.753  -3.838  26.241  0.00  0.00    -0.276 OA
ENDBRANCH  21  22
ENDBRANCH   6  21
ENDBRANCH   4   6
ENDBRANCH   1   2
BRANCH   1  27
ATOM     27  C   UNL     1       4.024  -3.804  26.620  0.00  0.00    +0.149 C 
BRANCH  27  28
ATOM     28  O   UNL     1       2.948  -4.531  27.255  0.00  0.00    -0.389 OA
ATOM     29  H   UNL     1       2.967  -5.452  26.944  0.00  0.00    +0.210 HD
ENDBRANCH  27  28
BRANCH  27  30
ATOM     30  C   UNL     1       3.513  -2.314  26.338  0.00  0.00    +0.118 C 
BRANCH  30  32
ATOM     31  C   UNL     1       4.700  -0.458  27.709  0.00  0.00    +0.143 C 
ATOM     32  N   UNL     1       4.387  -1.074  26.379  0.00  0.00    -0.289 NA
ATOM     33  C   UNL     1       5.431  -0.912  25.367  0.00  0.00    +0.089 C 
ATOM     34  C   UNL     1       6.092   0.509  25.295  0.00  0.00    +0.006 C 
ATOM     35  C   UNL     1       6.763   0.859  26.623  0.00  0.00    -0.005 C 
ATOM     36  C   UNL     1       7.142   2.338  26.802  0.00  0.00    +0.004 C 
ATOM     37  C   UNL     1       6.081   3.344  26.404  0.00  0.00    +0.000 C 
ATOM     38  C   UNL     1       5.428   3.066  25.063  0.00  0.00    +0.000 C 
ATOM     39  C   UNL     1       5.201   1.601  24.671  0.00  0.00    +0.005 C 
ATOM     40  C   UNL     1       6.119   0.184  27.853  0.00  0.00    +0.032 C 
BRANCH  31  43
ATOM     41  N   UNL     1       2.998   1.360  27.287  0.00  0.00    -0.309 N 
ATOM     42  H   UNL     1       3.549   1.484  26.445  0.00  0.00    +0.149 HD
ATOM     43  C   UNL     1       3.618   0.570  28.241  0.00  0.00    +0.231 C 
ATOM     44  O   UNL     1       3.269   0.592  29.411  0.00  0.00    -0.274 OA
BRANCH  41  46
ATOM     45  C   UNL     1       1.484   3.080  26.274  0.00  0.00    +0.031 C 
ATOM     46  C   UNL     1       1.913   2.343  27.554  0.00  0.00    +0.026 C 
ATOM     47  C   UNL     1       0.687   1.580  28.097  0.00  0.00    +0.031 C 
ATOM     48  C   UNL     1       2.303   3.389  28.620  0.00  0.00    +0.031 C 
ENDBRANCH  41  46
ENDBRANCH  31  43
ENDBRANCH  30  32
ENDBRANCH  27  30
ENDBRANCH   1  27
BRANCH   1  49
ATOM     49  C   UNL     1       4.001  -6.196  25.468  0.00  0.00    +0.060 C 
BRANCH  49  50
ATOM     50  C   UNL     1       2.928  -6.628  24.488  0.00  0.00    -0.046 A 
ATOM     51  C   UNL     1       2.315  -5.710  23.618  0.00  0.00    +0.004 A 
ATOM     52  C   UNL     1       1.378  -6.129  22.674  0.00  0.00    +0.000 A 
ATOM     53  C   UNL     1       1.010  -7.469  22.618  0.00  0.00    +0.000 A 
ATOM     54  C   UNL     1       1.566  -8.380  23.514  0.00  0.00    +0.000 A 
ATOM     55  C   UNL     1       2.519  -7.966  24.441  0.00  0.00    +0.004 A 
ENDBRANCH  49  50
ENDBRANCH   1  49
TORSDOF 14
ENDMDL
MODEL 2
REMARK VINA RESULT:      -6.8      2.268      9.190
REMARK  Name = 
REMARK  17 active torsions:
REMARK  status: ('A' for Active; 'I' for Inactive)
REMARK    1  A    between atoms: C_1  and  C_2
REMARK    2  A    between atoms: C_2  and  C_3
REMARK    3  A    between atoms: C_2  and  C_4
REMARK    4  A    between atoms: C_2  and  N_5
REMARK    5  A    between atoms: C_6  and  C_8
REMARK    6  A    between atoms: N_20  and  C_21
REMARK    7  A    between atoms: C_21  and  C_22
REMARK    8  A    between atoms: C_22  and  C_24
REMARK    9  A    between atoms: C_22  and  O_59
REMARK   10  A    between atoms: C_24  and  C_26
REMARK   11  A    between atoms: C_24  and  N_33
REMARK   12  A    between atoms: C_26  and  C_27
REMARK   13  A    between atoms: C_34  and  C_36
REMARK   14  A    between atoms: C_36  and  C_38
REMARK   15  A    between atoms: C_36  and  N_42
REMARK   16  A    between atoms: C_38  and  C_39
REMARK   17  A    between atoms: C_43  and  C_45
REMARK                            x       y       z     vdW  Elec       q    Type
REMARK                         _______ _______ _______ _____ _____    ______ ____
ROOT
ATOM      1  C   UNL     1       7.685   1.802  23.880  0.00  0.00    +0.107 C 
ENDROOT
BRANCH   1   2
ATOM      2  N   UNL     1       7.232   1.563  25.284  0.00  0.00    -0.308 N 
ATOM      3  H   UNL     1       7.801   1.972  26.015  0.00  0.00    +0.149 HD
ATOM      4  C   UNL     1       5.855   1.442  25.589  0.00  0.00    +0.234 C 
ATOM      5  O   UNL     1       4.984   1.491  24.717  0.00  0.00    -0.274 OA
BRANCH   4   6
ATOM      6  C   UNL     1       5.500   1.049  27.064  0.00  0.00    +0.168 C 
BRANCH   6   7
ATOM      7  N   UNL     1       4.603  -0.162  27.145  0.00  0.00    -0.298 N 
ATOM      8  H   UNL     1       5.083  -1.040  27.330  0.00  0.00    +0.150 HD
ATOM      9  C   UNL     1       3.225  -0.333  27.097  0.00  0.00    +0.263 C 
ATOM     10  O   UNL     1       2.416   0.555  26.909  0.00  0.00    -0.269 OA
BRANCH   9  11
ATOM     11  C   UNL     1       2.755  -1.830  27.254  0.00  0.00    +0.126 A 
ATOM     12  C   UNL     1       2.661  -2.452  28.477  0.00  0.00    +0.033 A 
ATOM     13  C   UNL     1       2.269  -3.811  28.540  0.00  0.00    +0.012 A 
ATOM     14  C   UNL     1       2.025  -4.528  27.367  0.00  0.00    +0.000 A 
ATOM     15  C   UNL     1       2.145  -3.814  26.159  0.00  0.00    +0.072 A 
ATOM     16  C   UNL     1       1.929  -4.530  24.985  0.00  0.00    +0.028 A 
ATOM     17  C   UNL     1       1.604  -5.895  24.963  0.00  0.00    +0.002 A 
ATOM     18  C   UNL     1       1.489  -6.594  26.162  0.00  0.00    +0.001 A 
ATOM     19  C   UNL     1       1.689  -5.911  27.364  0.00  0.00    +0.010 A 
ATOM     20  N   UNL     1       2.475  -2.496  26.092  0.00  0.00    -0.242 NA
ENDBRANCH   9  11
ENDBRANCH   6   7
BRANCH   6  21
ATOM     21  C   UNL     1       6.904   1.083  27.692  0.00  0.00    +0.127 C 
BRANCH  21  22
ATOM     22  C   UNL     1       7.079   1.352  29.150  0.00  0.00    +0.213 C 
ATOM     23  N   UNL     1       8.346   1.046  29.593  0.00  0.00    -0.329 N 
ATOM     24  H   UNL     1       8.584   1.191  30.568  0.00  0.00    +0.145 HD
ATOM     25  H   UNL     1       9.013   0.541  29.018  0.00  0.00    +0.145 HD
ATOM     26  O   UNL     1       6.257   1.887  29.889  0.00  0.00    -0.276 OA
ENDBRANCH  21  22
ENDBRANCH   6  21
ENDBRANCH   4   6
ENDBRANCH   1   2
BRANCH   1  27
ATOM     27  C   UNL     1       7.974   0.500  22.947  0.00  0.00    +0.149 C 
BRANCH  27  28
ATOM     28  O   UNL     1       6.694  -0.147  22.765  0.00  0.00    -0.389 OA
ATOM     29  H   UNL     1       6.012   0.378  23.216  0.00  0.00    +0.210 HD
ENDBRANCH  27  28
BRANCH  27  30
ATOM     30  C   UNL     1       9.003  -0.589  23.508  0.00  0.00    +0.118 C 
BRANCH  30  32
ATOM     31  C   UNL     1       8.780  -3.154  23.829  0.00  0.00    +0.143 C 
ATOM     32  N   UNL     1       8.627  -1.769  24.384  0.00  0.00    -0.289 NA
ATOM     33  C   UNL     1       8.814  -1.663  25.831  0.00  0.00    +0.089 C 
ATOM     34  C   UNL     1       8.142  -2.793  26.687  0.00  0.00    +0.006 C 
ATOM     35  C   UNL     1       8.705  -4.163  26.309  0.00  0.00    -0.005 C 
ATOM     36  C   UNL     1       7.900  -5.370  26.815  0.00  0.00    +0.004 C 
ATOM     37  C   UNL     1       6.398  -5.288  26.630  0.00  0.00    +0.000 C 
ATOM     38  C   UNL     1       5.789  -3.962  27.047  0.00  0.00    +0.000 C 
ATOM     39  C   UNL     1       6.607  -2.690  26.794  0.00  0.00    +0.005 C 
ATOM     40  C   UNL     1       9.203  -4.260  24.852  0.00  0.00    +0.032 C 
BRANCH  31  43
ATOM     41  N   UNL     1       6.910  -4.814  23.473  0.00  0.00    -0.309 N 
ATOM     42  H   UNL     1       7.508  -5.396  24.049  0.00  0.00    +0.149 HD
ATOM     43  C   UNL     1       7.542  -3.679  22.992  0.00  0.00    +0.231 C 
ATOM     44  O   UNL     1       7.100  -3.060  22.037  0.00  0.00    -0.274 OA
BRANCH  41  46
ATOM     45  C   UNL     1       4.562  -4.417  22.693  0.00  0.00    +0.031 C 
ATOM     46  C   UNL     1       5.695  -5.440  22.883  0.00  0.00    +0.026 C 
ATOM     47  C   UNL     1       6.062  -6.006  21.497  0.00  0.00    +0.031 C 
ATOM     48  C   UNL     1       5.160  -6.617  23.726  0.00  0.00    +0.031 C 
ENDBRANCH  41  46
ENDBRANCH  31  43
ENDBRANCH  30  32
ENDBRANCH  27  30
ENDBRANCH   1  27
BRANCH   1  49
ATOM     49  C   UNL     1       8.886   2.821  23.857  0.00  0.00    +0.060 C 
BRANCH  49  50
ATOM     50  C   UNL     1       8.533   4.219  23.388  0.00  0.00    -0.046 A 
ATOM     51  C   UNL     1       7.464   4.450  22.505  0.00  0.00    +0.004 A 
ATOM     52  C   UNL     1       7.106   5.745  22.133  0.00  0.00    +0.000 A 
ATOM     53  C   UNL     1       7.841   6.826  22.607  0.00  0.00    +0.000 A 
ATOM     54  C   UNL     1       8.939   6.608  23.437  0.00  0.00    +0.000 A 
ATOM     55  C   UNL     1       9.283   5.316  23.827  0.00  0.00    +0.004 A 
ENDBRANCH  49  50
ENDBRANCH   1  49
TORSDOF 14
ENDMDL
MODEL 3
REMARK VINA RESULT:      -6.7      2.590      7.396
REMARK  Name = 
REMARK  17 active torsions:
REMARK  status: ('A' for Active; 'I' for Inactive)
REMARK    1  A    between atoms: C_1  and  C_2
REMARK    2  A    between atoms: C_2  and  C_3
REMARK    3  A    between atoms: C_2  and  C_4
REMARK    4  A    between atoms: C_2  and  N_5
REMARK    5  A    between atoms: C_6  and  C_8
REMARK    6  A    between atoms: N_20  and  C_21
REMARK    7  A    between atoms: C_21  and  C_22
REMARK    8  A    between atoms: C_22  and  C_24
REMARK    9  A    between atoms: C_22  and  O_59
REMARK   10  A    between atoms: C_24  and  C_26
REMARK   11  A    between atoms: C_24  and  N_33
REMARK   12  A    between atoms: C_26  and  C_27
REMARK   13  A    between atoms: C_34  and  C_36
REMARK   14  A    between atoms: C_36  and  C_38
REMARK   15  A    between atoms: C_36  and  N_42
REMARK   16  A    between atoms: C_38  and  C_39
REMARK   17  A    between atoms: C_43  and  C_45
REMARK                            x       y       z     vdW  Elec       q    Type
REMARK                         _______ _______ _______ _____ _____    ______ ____
ROOT
ATOM      1  C   UNL     1       6.839  -0.942  24.574  0.00  0.00    +0.107 C 
ENDROOT
BRANCH   1   2
ATOM      2  N   UNL     1       7.144  -2.240  25.249  0.00  0.00    -0.308 N 
ATOM      3  H   UNL     1       7.174  -3.060  24.654  0.00  0.00    +0.149 HD
ATOM      4  C   UNL     1       7.995  -2.285  26.378  0.00  0.00    +0.234 C 
ATOM      5  O   UNL     1       8.485  -1.266  26.871  0.00  0.00    -0.274 OA
BRANCH   4   6
ATOM      6  C   UNL     1       8.132  -3.672  27.094  0.00  0.00    +0.168 C 
BRANCH   6   7
ATOM      7  N   UNL     1       6.845  -4.460  27.093  0.00  0.00    -0.298 N 
ATOM      8  H   UNL     1       6.102  -4.068  26.519  0.00  0.00    +0.150 HD
ATOM      9  C   UNL     1       6.468  -5.672  27.659  0.00  0.00    +0.263 C 
ATOM     10  O   UNL     1       7.172  -6.359  28.372  0.00  0.00    -0.269 OA
BRANCH   9  11
ATOM     11  C   UNL     1       4.982  -6.095  27.346  0.00  0.00    +0.126 A 
ATOM     12  C   UNL     1       3.970  -5.985  28.271  0.00  0.00    +0.033 A 
ATOM     13  C   UNL     1       2.666  -6.422  27.934  0.00  0.00    +0.012 A 
ATOM     14  C   UNL     1       2.418  -7.003  26.688  0.00  0.00    +0.000 A 
ATOM     15  C   UNL     1       3.511  -7.077  25.803  0.00  0.00    +0.072 A 
ATOM     16  C   UNL     1       3.278  -7.680  24.570  0.00  0.00    +0.028 A 
ATOM     17  C   UNL     1       2.030  -8.198  24.189  0.00  0.00    +0.002 A 
ATOM     18  C   UNL     1       0.955  -8.122  25.071  0.00  0.00    +0.001 A 
ATOM     19  C   UNL     1       1.145  -7.517  26.315  0.00  0.00    +0.010 A 
ATOM     20  N   UNL     1       4.756  -6.617  26.101  0.00  0.00    -0.242 NA
ENDBRANCH   9  11
ENDBRANCH   6   7
BRANCH   6  21
ATOM     21  C   UNL     1       9.418  -4.189  26.426  0.00  0.00    +0.127 C 
BRANCH  21  22
ATOM     22  C   UNL     1       9.351  -5.032  25.196  0.00  0.00    +0.213 C 
ATOM     23  N   UNL     1       9.551  -6.368  25.462  0.00  0.00    -0.329 N 
ATOM     24  H   UNL     1       9.524  -7.038  24.702  0.00  0.00    +0.145 HD
ATOM     25  H   UNL     1       9.871  -6.697  26.366  0.00  0.00    +0.145 HD
ATOM     26  O   UNL     1       9.047  -4.644  24.071  0.00  0.00    -0.276 OA
ENDBRANCH  21  22
ENDBRANCH   6  21
ENDBRANCH   4   6
ENDBRANCH   1   2
BRANCH   1  27
ATOM     27  C   UNL     1       5.864   0.103  25.351  0.00  0.00    +0.149 C 
BRANCH  27  28
ATOM     28  O   UNL     1       4.752  -0.681  25.838  0.00  0.00    -0.389 OA
ATOM     29  H   UNL     1       4.482  -1.305  25.143  0.00  0.00    +0.210 HD
ENDBRANCH  27  28
BRANCH  27  30
ATOM     30  C   UNL     1       5.274   1.324  24.503  0.00  0.00    +0.118 C 
BRANCH  30  32
ATOM     31  C   UNL     1       6.506   2.851  22.804  0.00  0.00    +0.143 C 
ATOM     32  N   UNL     1       6.017   2.612  24.201  0.00  0.00    -0.289 NA
ATOM     33  C   UNL     1       5.663   3.823  24.943  0.00  0.00    +0.089 C 
ATOM     34  C   UNL     1       6.656   5.028  24.790  0.00  0.00    +0.006 C 
ATOM     35  C   UNL     1       6.749   5.466  23.328  0.00  0.00    -0.005 C 
ATOM     36  C   UNL     1       7.928   6.393  22.991  0.00  0.00    +0.004 C 
ATOM     37  C   UNL     1       9.271   5.989  23.564  0.00  0.00    +0.000 C 
ATOM     38  C   UNL     1       9.234   5.600  25.030  0.00  0.00    +0.000 C 
ATOM     39  C   UNL     1       7.992   4.859  25.540  0.00  0.00    +0.005 C 
ATOM     40  C   UNL     1       6.480   4.336  22.312  0.00  0.00    +0.032 C 
BRANCH  31  43
ATOM     41  N   UNL     1       8.728   1.921  23.561  0.00  0.00    -0.309 N 
ATOM     42  H   UNL     1       8.513   2.463  24.391  0.00  0.00    +0.149 HD
ATOM     43  C   UNL     1       7.925   2.229  22.476  0.00  0.00    +0.231 C 
ATOM     44  O   UNL     1       8.252   1.934  21.337  0.00  0.00    -0.274 OA
BRANCH  41  46
ATOM     45  C   UNL     1      10.130   0.224  22.365  0.00  0.00    +0.031 C 
ATOM     46  C   UNL     1      10.066   1.273  23.488  0.00  0.00    +0.026 C 
ATOM     47  C   UNL     1      11.119   2.359  23.184  0.00  0.00    +0.031 C 
ATOM     48  C   UNL     1      10.479   0.601  24.815  0.00  0.00    +0.031 C 
ENDBRANCH  41  46
ENDBRANCH  31  43
ENDBRANCH  30  32
ENDBRANCH  27  30
ENDBRANCH   1  27
BRANCH   1  49
ATOM     49  C   UNL     1       6.371  -1.192  23.090  0.00  0.00    +0.060 C 
BRANCH  49  50
ATOM     50  C   UNL     1       6.018  -2.629  22.762  0.00  0.00    -0.046 A 
ATOM     51  C   UNL     1       6.797  -3.394  21.878  0.00  0.00    +0.004 A 
ATOM     52  C   UNL     1       6.502  -4.735  21.634  0.00  0.00    +0.000 A 
ATOM     53  C   UNL     1       5.394  -5.318  22.241  0.00  0.00    +0.000 A 
ATOM     54  C   UNL     1       4.579  -4.555  23.075  0.00  0.00    +0.000 A 
ATOM     55  C   UNL     1       4.887  -3.222  23.336  0.00  0.00    +0.004 A 
ENDBRANCH  49  50
ENDBRANCH   1  49
TORSDOF 14
ENDMDL
MODEL 4
REMARK VINA RESULT:      -6.7      2.230      7.183
REMARK  Name = 
REMARK  17 active torsions:
REMARK  status: ('A' for Active; 'I' for Inactive)
REMARK    1  A    between atoms: C_1  and  C_2
REMARK    2  A    between atoms: C_2  and  C_3
REMARK    3  A    between atoms: C_2  and  C_4
REMARK    4  A    between atoms: C_2  and  N_5
REMARK    5  A    between atoms: C_6  and  C_8
REMARK    6  A    between atoms: N_20  and  C_21
REMARK    7  A    between atoms: C_21  and  C_22
REMARK    8  A    between atoms: C_22  and  C_24
REMARK    9  A    between atoms: C_22  and  O_59
REMARK   10  A    between atoms: C_24  and  C_26
REMARK   11  A    between atoms: C_24  and  N_33
REMARK   12  A    between atoms: C_26  and  C_27
REMARK   13  A    between atoms: C_34  and  C_36
REMARK   14  A    between atoms: C_36  and  C_38
REMARK   15  A    between atoms: C_36  and  N_42
REMARK   16  A    between atoms: C_38  and  C_39
REMARK   17  A    between atoms: C_43  and  C_45
REMARK                            x       y       z     vdW  Elec       q    Type
REMARK                         _______ _______ _______ _____ _____    ______ ____
ROOT
ATOM      1  C   UNL     1       8.306  -2.784  23.945  0.00  0.00    +0.107 C 
ENDROOT
BRANCH   1   2
ATOM      2  N   UNL     1       7.462  -1.758  24.629  0.00  0.00    -0.308 N 
ATOM      3  H   UNL     1       6.615  -1.479  24.147  0.00  0.00    +0.149 HD
ATOM      4  C   UNL     1       7.396  -1.699  26.041  0.00  0.00    +0.234 C 
ATOM      5  O   UNL     1       8.053  -2.457  26.759  0.00  0.00    -0.274 OA
BRANCH   4   6
ATOM      6  C   UNL     1       6.598  -0.498  26.653  0.00  0.00    +0.168 C 
BRANCH   6   7
ATOM      7  N   UNL     1       6.798   0.787  25.888  0.00  0.00    -0.298 N 
ATOM      8  H   UNL     1       7.740   1.170  25.930  0.00  0.00    +0.150 HD
ATOM      9  C   UNL     1       5.977   1.539  25.057  0.00  0.00    +0.263 C 
ATOM     10  O   UNL     1       4.812   1.293  24.816  0.00  0.00    -0.269 OA
BRANCH   9  11
ATOM     11  C   UNL     1       6.668   2.824  24.459  0.00  0.00    +0.126 A 
ATOM     12  C   UNL     1       6.668   3.108  23.113  0.00  0.00    +0.033 A 
ATOM     13  C   UNL     1       7.342   4.260  22.642  0.00  0.00    +0.012 A 
ATOM     14  C   UNL     1       8.043   5.078  23.532  0.00  0.00    +0.000 A 
ATOM     15  C   UNL     1       7.991   4.714  24.891  0.00  0.00    +0.072 A 
ATOM     16  C   UNL     1       8.710   5.510  25.780  0.00  0.00    +0.028 A 
ATOM     17  C   UNL     1       9.457   6.629  25.381  0.00  0.00    +0.002 A 
ATOM     18  C   UNL     1       9.505   6.980  24.035  0.00  0.00    +0.001 A 
ATOM     19  C   UNL     1       8.790   6.213  23.111  0.00  0.00    +0.010 A 
ATOM     20  N   UNL     1       7.306   3.636  25.358  0.00  0.00    -0.242 NA
ENDBRANCH   9  11
ENDBRANCH   6   7
BRANCH   6  21
ATOM     21  C   UNL     1       5.217  -1.155  26.819  0.00  0.00    +0.127 C 
BRANCH  21  22
ATOM     22  C   UNL     1       4.349  -0.819  27.987  0.00  0.00    +0.213 C 
ATOM     23  N   UNL     1       3.109  -1.413  27.909  0.00  0.00    -0.329 N 
ATOM     24  H   UNL     1       2.434  -1.260  28.649  0.00  0.00    +0.145 HD
ATOM     25  H   UNL     1       2.786  -1.881  27.069  0.00  0.00    +0.145 HD
ATOM     26  O   UNL     1       4.690  -0.183  28.980  0.00  0.00    -0.276 OA
ENDBRANCH  21  22
ENDBRANCH   6  21
ENDBRANCH   4   6
ENDBRANCH   1   2
BRANCH   1  27
ATOM     27  C   UNL     1       8.199  -4.321  24.468  0.00  0.00    +0.149 C 
BRANCH  27  28
ATOM     28  O   UNL     1       9.523  -4.881  24.322  0.00  0.00    -0.389 OA
ATOM     29  H   UNL     1      10.161  -4.154  24.221  0.00  0.00    +0.210 HD
ENDBRANCH  27  28
BRANCH  27  30
ATOM     30  C   UNL     1       7.169  -5.283  23.711  0.00  0.00    +0.118 C 
BRANCH  30  32
ATOM     31  C   UNL     1       5.090  -4.398  24.985  0.00  0.00    +0.143 C 
ATOM     32  N   UNL     1       5.674  -5.324  23.962  0.00  0.00    -0.289 NA
ATOM     33  C   UNL     1       4.780  -5.653  22.851  0.00  0.00    +0.089 C 
ATOM     34  C   UNL     1       3.292  -5.960  23.245  0.00  0.00    +0.006 C 
ATOM     35  C   UNL     1       2.655  -4.750  23.927  0.00  0.00    -0.005 C 
ATOM     36  C   UNL     1       1.335  -5.026  24.663  0.00  0.00    +0.004 C 
ATOM     37  C   UNL     1       1.311  -6.264  25.536  0.00  0.00    +0.000 C 
ATOM     38  C   UNL     1       1.883  -7.505  24.876  0.00  0.00    +0.000 C 
ATOM     39  C   UNL     1       3.077  -7.324  23.931  0.00  0.00    +0.005 C 
ATOM     40  C   UNL     1       3.658  -3.848  24.677  0.00  0.00    +0.032 C 
BRANCH  31  43
ATOM     41  N   UNL     1       3.965  -4.760  27.217  0.00  0.00    -0.309 N 
ATOM     42  H   UNL     1       3.393  -3.988  26.895  0.00  0.00    +0.149 HD
ATOM     43  C   UNL     1       5.119  -4.940  26.473  0.00  0.00    +0.231 C 
ATOM     44  O   UNL     1       6.065  -5.579  26.909  0.00  0.00    -0.274 OA
BRANCH  41  46
ATOM     45  C   UNL     1       4.706  -4.566  29.603  0.00  0.00    +0.031 C 
ATOM     46  C   UNL     1       3.751  -5.246  28.608  0.00  0.00    +0.026 C 
ATOM     47  C   UNL     1       2.306  -4.905  29.027  0.00  0.00    +0.031 C 
ATOM     48  C   UNL     1       3.910  -6.776  28.738  0.00  0.00    +0.031 C 
ENDBRANCH  41  46
ENDBRANCH  31  43
ENDBRANCH  30  32
ENDBRANCH  27  30
ENDBRANCH   1  27
BRANCH   1  49
ATOM     49  C   UNL     1       9.800  -2.295  23.855  0.00  0.00    +0.060 C 
BRANCH  49  50
ATOM     50  C   UNL     1       9.976  -0.823  23.539  0.00  0.00    -0.046 A 
ATOM     51  C   UNL     1       9.788  -0.323  22.239  0.00  0.00    +0.004 A 
ATOM     52  C   UNL     1       9.887   1.042  21.972  0.00  0.00    +0.000 A 
ATOM     53  C   UNL     1      10.218   1.922  22.997  0.00  0.00    +0.000 A 
ATOM     54  C   UNL     1      10.464   1.434  24.278  0.00  0.00    +0.000 A 
ATOM     55  C   UNL     1      10.344   0.073  24.550  0.00  0.00    +0.004 A 
ENDBRANCH  49  50
ENDBRANCH   1  49
TORSDOF 14
ENDMDL
MODEL 5
REMARK VINA RESULT:      -6.6      2.088      6.372
REMARK  Name = 
REMARK  17 active torsions:
REMARK  status: ('A' for Active; 'I' for Inactive)
REMARK    1  A    between atoms: C_1  and  C_2
REMARK    2  A    between atoms: C_2  and  C_3
REMARK    3  A    between atoms: C_2  and  C_4
REMARK    4  A    between atoms: C_2  and  N_5
REMARK    5  A    between atoms: C_6  and  C_8
REMARK    6  A    between atoms: N_20  and  C_21
REMARK    7  A    between atoms: C_21  and  C_22
REMARK    8  A    between atoms: C_22  and  C_24
REMARK    9  A    between atoms: C_22  and  O_59
REMARK   10  A    between atoms: C_24  and  C_26
REMARK   11  A    between atoms: C_24  and  N_33
REMARK   12  A    between atoms: C_26  and  C_27
REMARK   13  A    between atoms: C_34  and  C_36
REMARK   14  A    between atoms: C_36  and  C_38
REMARK   15  A    between atoms: C_36  and  N_42
REMARK   16  A    between atoms: C_38  and  C_39
REMARK   17  A    between atoms: C_43  and  C_45
REMARK                            x       y       z     vdW  Elec       q    Type
REMARK                         _______ _______ _______ _____ _____    ______ ____
ROOT
ATOM      1  C   UNL     1       7.514  -4.783  25.762  0.00  0.00    +0.107 C 
ENDROOT
BRANCH   1   2
ATOM      2  N   UNL     1       6.043  -4.997  25.602  0.00  0.00    -0.308 N 
ATOM      3  H   UNL     1       5.654  -4.777  24.692  0.00  0.00    +0.149 HD
ATOM      4  C   UNL     1       5.381  -6.030  26.305  0.00  0.00    +0.234 C 
ATOM      5  O   UNL     1       5.973  -6.766  27.099  0.00  0.00    -0.274 OA
BRANCH   4   6
ATOM      6  C   UNL     1       3.820  -6.073  26.176  0.00  0.00    +0.168 C 
BRANCH   6   7
ATOM      7  N   UNL     1       3.174  -4.737  26.447  0.00  0.00    -0.298 N 
ATOM      8  H   UNL     1       3.812  -3.945  26.451  0.00  0.00    +0.150 HD
ATOM      9  C   UNL     1       1.856  -4.333  26.621  0.00  0.00    +0.263 C 
ATOM     10  O   UNL     1       0.893  -5.075  26.638  0.00  0.00    -0.269 OA
BRANCH   9  11
ATOM     11  C   UNL     1       1.682  -2.784  26.861  0.00  0.00    +0.126 A 
ATOM     12  C   UNL     1       0.515  -2.117  26.575  0.00  0.00    +0.033 A 
ATOM     13  C   UNL     1       0.443  -0.717  26.779  0.00  0.00    +0.012 A 
ATOM     14  C   UNL     1       1.564  -0.013  27.223  0.00  0.00    +0.000 A 
ATOM     15  C   UNL     1       2.718  -0.775  27.492  0.00  0.00    +0.072 A 
ATOM     16  C   UNL     1       3.846  -0.075  27.910  0.00  0.00    +0.028 A 
ATOM     17  C   UNL     1       3.874   1.319  28.070  0.00  0.00    +0.002 A 
ATOM     18  C   UNL     1       2.729   2.065  27.801  0.00  0.00    +0.001 A 
ATOM     19  C   UNL     1       1.572   1.401  27.388  0.00  0.00    +0.010 A 
ATOM     20  N   UNL     1       2.781  -2.125  27.344  0.00  0.00    -0.242 NA
ENDBRANCH   9  11
ENDBRANCH   6   7
BRANCH   6  21
ATOM     21  C   UNL     1       3.686  -6.798  24.824  0.00  0.00    +0.127 C 
BRANCH  21  22
ATOM     22  C   UNL     1       3.403  -6.032  23.575  0.00  0.00    +0.213 C 
ATOM     23  N   UNL     1       2.705  -6.775  22.649  0.00  0.00    -0.329 N 
ATOM     24  H   UNL     1       2.453  -6.358  21.760  0.00  0.00    +0.145 HD
ATOM     25  H   UNL     1       2.560  -7.773  22.756  0.00  0.00    +0.145 HD
ATOM     26  O   UNL     1       3.644  -4.843  23.387  0.00  0.00    -0.276 OA
ENDBRANCH  21  22
ENDBRANCH   6  21
ENDBRANCH   4   6
ENDBRANCH   1   2
BRANCH   1  27
ATOM     27  C   UNL     1       8.013  -3.325  26.283  0.00  0.00    +0.149 C 
BRANCH  27  28
ATOM     28  O   UNL     1       6.947  -2.404  25.960  0.00  0.00    -0.389 OA
ATOM     29  H   UNL     1       6.486  -2.159  26.780  0.00  0.00    +0.210 HD
ENDBRANCH  27  28
BRANCH  27  30
ATOM     30  C   UNL     1       9.369  -2.750  25.661  0.00  0.00    +0.118 C 
BRANCH  30  32
ATOM     31  C   UNL     1       9.807  -0.204  25.413  0.00  0.00    +0.143 C 
ATOM     32  N   UNL     1       9.466  -1.519  24.778  0.00  0.00    -0.289 NA
ATOM     33  C   UNL     1       9.930  -1.673  23.399  0.00  0.00    +0.089 C 
ATOM     34  C   UNL     1       9.729  -0.423  22.472  0.00  0.00    +0.006 C 
ATOM     35  C   UNL     1      10.494   0.781  23.019  0.00  0.00    -0.005 C 
ATOM     36  C   UNL     1      10.110   2.139  22.410  0.00  0.00    +0.004 C 
ATOM     37  C   UNL     1       8.625   2.406  22.273  0.00  0.00    +0.000 C 
ATOM     38  C   UNL     1       7.835   1.255  21.679  0.00  0.00    +0.000 C 
ATOM     39  C   UNL     1       8.271  -0.170  22.042  0.00  0.00    +0.005 C 
ATOM     40  C   UNL     1      10.678   0.769  24.551  0.00  0.00    +0.032 C 
BRANCH  31  43
ATOM     41  N   UNL     1       8.426   1.905  25.564  0.00  0.00    -0.309 N 
ATOM     42  H   UNL     1       9.294   2.327  25.254  0.00  0.00    +0.149 HD
ATOM     43  C   UNL     1       8.571   0.597  25.995  0.00  0.00    +0.231 C 
ATOM     44  O   UNL     1       7.729   0.062  26.700  0.00  0.00    -0.274 OA
BRANCH  41  46
ATOM     45  C   UNL     1       7.107   2.887  27.455  0.00  0.00    +0.031 C 
ATOM     46  C   UNL     1       7.308   2.816  25.931  0.00  0.00    +0.026 C 
ATOM     47  C   UNL     1       7.648   4.234  25.430  0.00  0.00    +0.031 C 
ATOM     48  C   UNL     1       5.969   2.414  25.276  0.00  0.00    +0.031 C 
ENDBRANCH  41  46
ENDBRANCH  31  43
ENDBRANCH  30  32
ENDBRANCH  27  30
ENDBRANCH   1  27
BRANCH   1  49
ATOM     49  C   UNL     1       8.280  -5.238  24.462  0.00  0.00    +0.060 C 
BRANCH  49  50
ATOM     50  C   UNL     1       7.513  -5.054  23.168  0.00  0.00    -0.046 A 
ATOM     51  C   UNL     1       7.137  -6.151  22.374  0.00  0.00    +0.004 A 
ATOM     52  C   UNL     1       6.374  -5.976  21.220  0.00  0.00    +0.000 A 
ATOM     53  C   UNL     1       6.013  -4.694  20.821  0.00  0.00    +0.000 A 
ATOM     54  C   UNL     1       6.429  -3.593  21.566  0.00  0.00    +0.000 A 
ATOM     55  C   UNL     1       7.172  -3.768  22.732  0.00  0.00    +0.004 A 
ENDBRANCH  49  50
ENDBRANCH   1  49
TORSDOF 14
ENDMDL
MODEL 6
REMARK VINA RESULT:      -6.3      2.451      6.271
REMARK  Name = 
REMARK  17 active torsions:
REMARK  status: ('A' for Active; 'I' for Inactive)
REMARK    1  A    between atoms: C_1  and  C_2
REMARK    2  A    between atoms: C_2  and  C_3
REMARK    3  A    between atoms: C_2  and  C_4
REMARK    4  A    between atoms: C_2  and  N_5
REMARK    5  A    between atoms: C_6  and  C_8
REMARK    6  A    between atoms: N_20  and  C_21
REMARK    7  A    between atoms: C_21  and  C_22
REMARK    8  A    between atoms: C_22  and  C_24
REMARK    9  A    between atoms: C_22  and  O_59
REMARK   10  A    between atoms: C_24  and  C_26
REMARK   11  A    between atoms: C_24  and  N_33
REMARK   12  A    between atoms: C_26  and  C_27
REMARK   13  A    between atoms: C_34  and  C_36
REMARK   14  A    between atoms: C_36  and  C_38
REMARK   15  A    between atoms: C_36  and  N_42
REMARK   16  A    between atoms: C_38  and  C_39
REMARK   17  A    between atoms: C_43  and  C_45
REMARK                            x       y       z     vdW  Elec       q    Type
REMARK                         _______ _______ _______ _____ _____    ______ ____
ROOT
ATOM      1  C   UNL     1       9.042  -2.515  25.165  0.00  0.00    +0.107 C 
ENDROOT
BRANCH   1   2
ATOM      2  N   UNL     1       7.654  -2.713  25.681  0.00  0.00    -0.308 N 
ATOM      3  H   UNL     1       6.901  -2.495  25.039  0.00  0.00    +0.149 HD
ATOM      4  C   UNL     1       7.368  -3.734  26.618  0.00  0.00    +0.234 C 
ATOM      5  O   UNL     1       8.247  -4.470  27.073  0.00  0.00    -0.274 OA
BRANCH   4   6
ATOM      6  C   UNL     1       5.914  -3.760  27.201  0.00  0.00    +0.168 C 
BRANCH   6   7
ATOM      7  N   UNL     1       5.396  -2.384  27.541  0.00  0.00    -0.298 N 
ATOM      8  H   UNL     1       6.104  -1.654  27.573  0.00  0.00    +0.150 HD
ATOM      9  C   UNL     1       4.122  -1.870  27.751  0.00  0.00    +0.263 C 
ATOM     10  O   UNL     1       3.096  -2.521  27.747  0.00  0.00    -0.269 OA
BRANCH   9  11
ATOM     11  C   UNL     1       4.094  -0.325  28.065  0.00  0.00    +0.126 A 
ATOM     12  C   UNL     1       2.931   0.409  28.069  0.00  0.00    +0.033 A 
ATOM     13  C   UNL     1       2.985   1.802  28.321  0.00  0.00    +0.012 A 
ATOM     14  C   UNL     1       4.214   2.434  28.516  0.00  0.00    +0.000 A 
ATOM     15  C   UNL     1       5.355   1.607  28.494  0.00  0.00    +0.072 A 
ATOM     16  C   UNL     1       6.586   2.236  28.661  0.00  0.00    +0.028 A 
ATOM     17  C   UNL     1       6.726   3.619  28.847  0.00  0.00    +0.002 A 
ATOM     18  C   UNL     1       5.594   4.430  28.866  0.00  0.00    +0.001 A 
ATOM     19  C   UNL     1       4.338   3.838  28.710  0.00  0.00    +0.010 A 
ATOM     20  N   UNL     1       5.308   0.262  28.301  0.00  0.00    -0.242 NA
ENDBRANCH   9  11
ENDBRANCH   6   7
BRANCH   6  21
ATOM     21  C   UNL     1       5.230  -4.667  26.163  0.00  0.00    +0.127 C 
BRANCH  21  22
ATOM     22  C   UNL     1       5.145  -6.142  26.380  0.00  0.00    +0.213 C 
ATOM     23  N   UNL     1       4.466  -6.784  25.368  0.00  0.00    -0.329 N 
ATOM     24  H   UNL     1       4.348  -7.790  25.406  0.00  0.00    +0.145 HD
ATOM     25  H   UNL     1       3.948  -6.277  24.658  0.00  0.00    +0.145 HD
ATOM     26  O   UNL     1       5.694  -6.772  27.279  0.00  0.00    -0.276 OA
ENDBRANCH  21  22
ENDBRANCH   6  21
ENDBRANCH   4   6
ENDBRANCH   1   2
BRANCH   1  27
ATOM     27  C   UNL     1       9.582  -0.987  25.015  0.00  0.00    +0.149 C 
BRANCH  27  28
ATOM     28  O   UNL     1       8.975  -0.246  26.097  0.00  0.00    -0.389 OA
ATOM     29  H   UNL     1       8.856   0.677  25.816  0.00  0.00    +0.210 HD
ENDBRANCH  27  28
BRANCH  27  30
ATOM     30  C   UNL     1       9.253  -0.225  23.648  0.00  0.00    +0.118 C 
BRANCH  30  32
ATOM     31  C   UNL     1       8.548   2.076  22.679  0.00  0.00    +0.143 C 
ATOM     32  N   UNL     1       8.207   0.862  23.490  0.00  0.00    -0.289 NA
ATOM     33  C   UNL     1       6.793   0.485  23.465  0.00  0.00    +0.089 C 
ATOM     34  C   UNL     1       5.772   1.669  23.591  0.00  0.00    +0.006 C 
ATOM     35  C   UNL     1       5.944   2.654  22.436  0.00  0.00    -0.005 C 
ATOM     36  C   UNL     1       5.256   4.016  22.621  0.00  0.00    +0.004 C 
ATOM     37  C   UNL     1       5.440   4.670  23.975  0.00  0.00    +0.000 C 
ATOM     38  C   UNL     1       5.222   3.739  25.154  0.00  0.00    +0.000 C 
ATOM     39  C   UNL     1       5.669   2.281  25.002  0.00  0.00    +0.005 C 
ATOM     40  C   UNL     1       7.374   2.706  21.858  0.00  0.00    +0.032 C 
BRANCH  31  43
ATOM     41  N   UNL     1       8.797   4.511  23.303  0.00  0.00    -0.309 N 
ATOM     42  H   UNL     1       8.304   4.640  22.426  0.00  0.00    +0.149 HD
ATOM     43  C   UNL     1       9.287   3.227  23.478  0.00  0.00    +0.231 C 
ATOM     44  O   UNL     1      10.170   2.987  24.287  0.00  0.00    -0.274 OA
BRANCH  41  46
ATOM     45  C   UNL     1      10.793   5.963  23.736  0.00  0.00    +0.031 C 
ATOM     46  C   UNL     1       9.296   5.727  24.001  0.00  0.00    +0.026 C 
ATOM     47  C   UNL     1       8.521   6.949  23.467  0.00  0.00    +0.031 C 
ATOM     48  C   UNL     1       9.067   5.678  25.527  0.00  0.00    +0.031 C 
ENDBRANCH  41  46
ENDBRANCH  31  43
ENDBRANCH  30  32
ENDBRANCH  27  30
ENDBRANCH   1  27
BRANCH   1  49
ATOM     49  C   UNL     1       9.263  -3.350  23.847  0.00  0.00    +0.060 C 
BRANCH  49  50
ATOM     50  C   UNL     1       7.995  -3.870  23.198  0.00  0.00    -0.046 A 
ATOM     51  C   UNL     1       7.121  -3.016  22.505  0.00  0.00    +0.004 A 
ATOM     52  C   UNL     1       5.993  -3.515  21.855  0.00  0.00    +0.000 A 
ATOM     53  C   UNL     1       5.702  -4.873  21.926  0.00  0.00    +0.000 A 
ATOM     54  C   UNL     1       6.528  -5.722  22.659  0.00  0.00    +0.000 A 
ATOM     55  C   UNL     1       7.667  -5.228  23.290  0.00  0.00    +0.004 A 
ENDBRANCH  49  50
ENDBRANCH   1  49
TORSDOF 14
ENDMDL
MODEL 7
REMARK VINA RESULT:      -6.3      2.455      7.033
REMARK  Name = 
REMARK  17 active torsions:
REMARK  status: ('A' for Active; 'I' for Inactive)
REMARK    1  A    between atoms: C_1  and  C_2
REMARK    2  A    between atoms: C_2  and  C_3
REMARK    3  A    between atoms: C_2  and  C_4
REMARK    4  A    between atoms: C_2  and  N_5
REMARK    5  A    between atoms: C_6  and  C_8
REMARK    6  A    between atoms: N_20  and  C_21
REMARK    7  A    between atoms: C_21  and  C_22
REMARK    8  A    between atoms: C_22  and  C_24
REMARK    9  A    between atoms: C_22  and  O_59
REMARK   10  A    between atoms: C_24  and  C_26
REMARK   11  A    between atoms: C_24  and  N_33
REMARK   12  A    between atoms: C_26  and  C_27
REMARK   13  A    between atoms: C_34  and  C_36
REMARK   14  A    between atoms: C_36  and  C_38
REMARK   15  A    between atoms: C_36  and  N_42
REMARK   16  A    between atoms: C_38  and  C_39
REMARK   17  A    between atoms: C_43  and  C_45
REMARK                            x       y       z     vdW  Elec       q    Type
REMARK                         _______ _______ _______ _____ _____    ______ ____
ROOT
ATOM      1  C   UNL     1       9.306  -1.046  23.901  0.00  0.00    +0.107 C 
ENDROOT
BRANCH   1   2
ATOM      2  N   UNL     1       8.332  -2.178  23.838  0.00  0.00    -0.308 N 
ATOM      3  H   UNL     1       7.567  -2.076  23.181  0.00  0.00    +0.149 HD
ATOM      4  C   UNL     1       8.754  -3.509  24.067  0.00  0.00    +0.234 C 
ATOM      5  O   UNL     1       9.919  -3.785  24.363  0.00  0.00    -0.274 OA
BRANCH   4   6
ATOM      6  C   UNL     1       7.629  -4.599  24.120  0.00  0.00    +0.168 C 
BRANCH   6   7
ATOM      7  N   UNL     1       6.608  -4.333  25.200  0.00  0.00    -0.298 N 
ATOM      8  H   UNL     1       6.326  -3.361  25.293  0.00  0.00    +0.150 HD
ATOM      9  C   UNL     1       5.898  -5.157  26.063  0.00  0.00    +0.263 C 
ATOM     10  O   UNL     1       6.026  -6.364  26.143  0.00  0.00    -0.269 OA
BRANCH   9  11
ATOM     11  C   UNL     1       4.906  -4.389  27.018  0.00  0.00    +0.126 A 
ATOM     12  C   UNL     1       5.026  -4.415  28.388  0.00  0.00    +0.033 A 
ATOM     13  C   UNL     1       4.074  -3.734  29.185  0.00  0.00    +0.012 A 
ATOM     14  C   UNL     1       2.996  -3.079  28.587  0.00  0.00    +0.000 A 
ATOM     15  C   UNL     1       2.950  -3.102  27.179  0.00  0.00    +0.072 A 
ATOM     16  C   UNL     1       1.862  -2.474  26.579  0.00  0.00    +0.028 A 
ATOM     17  C   UNL     1       0.844  -1.836  27.303  0.00  0.00    +0.002 A 
ATOM     18  C   UNL     1       0.896  -1.818  28.694  0.00  0.00    +0.001 A 
ATOM     19  C   UNL     1       1.975  -2.430  29.337  0.00  0.00    +0.010 A 
ATOM     20  N   UNL     1       3.885  -3.714  26.404  0.00  0.00    -0.242 NA
ENDBRANCH   9  11
ENDBRANCH   6   7
BRANCH   6  21
ATOM     21  C   UNL     1       7.256  -4.666  22.628  0.00  0.00    +0.127 C 
BRANCH  21  22
ATOM     22  C   UNL     1       5.866  -5.008  22.206  0.00  0.00    +0.213 C 
ATOM     23  N   UNL     1       5.802  -6.203  21.525  0.00  0.00    -0.329 N 
ATOM     24  H   UNL     1       4.906  -6.540  21.190  0.00  0.00    +0.145 HD
ATOM     25  H   UNL     1       6.634  -6.692  21.211  0.00  0.00    +0.145 HD
ATOM     26  O   UNL     1       4.849  -4.387  22.501  0.00  0.00    -0.276 OA
ENDBRANCH  21  22
ENDBRANCH   6  21
ENDBRANCH   4   6
ENDBRANCH   1   2
BRANCH   1  27
ATOM     27  C   UNL     1       9.163   0.006  25.134  0.00  0.00    +0.149 C 
BRANCH  27  28
ATOM     28  O   UNL     1      10.512   0.305  25.556  0.00  0.00    -0.389 OA
ATOM     29  H   UNL     1      11.133  -0.172  24.981  0.00  0.00    +0.210 HD
ENDBRANCH  27  28
BRANCH  27  30
ATOM     30  C   UNL     1       8.339  -0.478  26.417  0.00  0.00    +0.118 C 
BRANCH  30  32
ATOM     31  C   UNL     1       6.372   1.170  26.034  0.00  0.00    +0.143 C 
ATOM     32  N   UNL     1       6.972   0.042  26.819  0.00  0.00    -0.289 NA
ATOM     33  C   UNL     1       6.002  -0.891  27.393  0.00  0.00    +0.089 C 
ATOM     34  C   UNL     1       4.734  -0.236  28.045  0.00  0.00    +0.006 C 
ATOM     35  C   UNL     1       3.951   0.571  27.010  0.00  0.00    -0.005 C 
ATOM     36  C   UNL     1       2.897   1.532  27.581  0.00  0.00    +0.004 C 
ATOM     37  C   UNL     1       3.341   2.375  28.759  0.00  0.00    +0.000 C 
ATOM     38  C   UNL     1       4.074   1.602  29.840  0.00  0.00    +0.000 C 
ATOM     39  C   UNL     1       4.993   0.457  29.398  0.00  0.00    +0.005 C 
ATOM     40  C   UNL     1       4.817   1.138  25.865  0.00  0.00    +0.032 C 
BRANCH  31  43
ATOM     41  N   UNL     1       6.550   3.655  25.625  0.00  0.00    -0.309 N 
ATOM     42  H   UNL     1       6.487   3.357  24.658  0.00  0.00    +0.149 HD
ATOM     43  C   UNL     1       6.805   2.618  26.507  0.00  0.00    +0.231 C 
ATOM     44  O   UNL     1       7.239   2.828  27.629  0.00  0.00    -0.274 OA
BRANCH  41  46
ATOM     45  C   UNL     1       8.322   5.403  25.920  0.00  0.00    +0.031 C 
ATOM     46  C   UNL     1       6.815   5.096  25.889  0.00  0.00    +0.026 C 
ATOM     47  C   UNL     1       6.184   5.924  24.751  0.00  0.00    +0.031 C 
ATOM     48  C   UNL     1       6.184   5.588  27.209  0.00  0.00    +0.031 C 
ENDBRANCH  41  46
ENDBRANCH  31  43
ENDBRANCH  30  32
ENDBRANCH  27  30
ENDBRANCH   1  27
BRANCH   1  49
ATOM     49  C   UNL     1       9.388  -0.314  22.508  0.00  0.00    +0.060 C 
BRANCH  49  50
ATOM     50  C   UNL     1       8.558   0.950  22.399  0.00  0.00    -0.046 A 
ATOM     51  C   UNL     1       7.153   0.907  22.372  0.00  0.00    +0.004 A 
ATOM     52  C   UNL     1       6.398   2.079  22.337  0.00  0.00    +0.000 A 
ATOM     53  C   UNL     1       7.041   3.311  22.286  0.00  0.00    +0.000 A 
ATOM     54  C   UNL     1       8.433   3.366  22.253  0.00  0.00    +0.000 A 
ATOM     55  C   UNL     1       9.188   2.197  22.310  0.00  0.00    +0.004 A 
ENDBRANCH  49  50
ENDBRANCH   1  49
TORSDOF 14
ENDMDL
MODEL 8
REMARK VINA RESULT:      -6.2      2.387      7.046
REMARK  Name = 
REMARK  17 active torsions:
REMARK  status: ('A' for Active; 'I' for Inactive)
REMARK    1  A    between atoms: C_1  and  C_2
REMARK    2  A    between atoms: C_2  and  C_3
REMARK    3  A    between atoms: C_2  and  C_4
REMARK    4  A    between atoms: C_2  and  N_5
REMARK    5  A    between atoms: C_6  and  C_8
REMARK    6  A    between atoms: N_20  and  C_21
REMARK    7  A    between atoms: C_21  and  C_22
REMARK    8  A    between atoms: C_22  and  C_24
REMARK    9  A    between atoms: C_22  and  O_59
REMARK   10  A    between atoms: C_24  and  C_26
REMARK   11  A    between atoms: C_24  and  N_33
REMARK   12  A    between atoms: C_26  and  C_27
REMARK   13  A    between atoms: C_34  and  C_36
REMARK   14  A    between atoms: C_36  and  C_38
REMARK   15  A    between atoms: C_36  and  N_42
REMARK   16  A    between atoms: C_38  and  C_39
REMARK   17  A    between atoms: C_43  and  C_45
REMARK                            x       y       z     vdW  Elec       q    Type
REMARK                         _______ _______ _______ _____ _____    ______ ____
ROOT
ATOM      1  C   UNL     1       6.496  -3.059  24.308  0.00  0.00    +0.107 C 
ENDROOT
BRANCH   1   2
ATOM      2  N   UNL     1       6.903  -2.009  25.290  0.00  0.00    -0.308 N 
ATOM      3  H   UNL     1       7.842  -1.640  25.190  0.00  0.00    +0.149 HD
ATOM      4  C   UNL     1       5.953  -1.100  25.812  0.00  0.00    +0.234 C 
ATOM      5  O   UNL     1       4.757  -1.159  25.514  0.00  0.00    -0.274 OA
BRANCH   4   6
ATOM      6  C   UNL     1       6.456  -0.136  26.941  0.00  0.00    +0.168 C 
BRANCH   6   7
ATOM      7  N   UNL     1       7.095   1.118  26.396  0.00  0.00    -0.298 N 
ATOM      8  H   UNL     1       8.032   1.307  26.741  0.00  0.00    +0.150 HD
ATOM      9  C   UNL     1       6.701   2.053  25.446  0.00  0.00    +0.263 C 
ATOM     10  O   UNL     1       5.636   2.049  24.861  0.00  0.00    -0.269 OA
BRANCH   9  11
ATOM     11  C   UNL     1       7.751   3.203  25.200  0.00  0.00    +0.126 A 
ATOM     12  C   UNL     1       7.522   4.507  25.572  0.00  0.00    +0.033 A 
ATOM     13  C   UNL     1       8.493   5.496  25.284  0.00  0.00    +0.012 A 
ATOM     14  C   UNL     1       9.654   5.160  24.585  0.00  0.00    +0.000 A 
ATOM     15  C   UNL     1       9.808   3.802  24.242  0.00  0.00    +0.072 A 
ATOM     16  C   UNL     1      10.950   3.465  23.522  0.00  0.00    +0.028 A 
ATOM     17  C   UNL     1      11.925   4.399  23.140  0.00  0.00    +0.002 A 
ATOM     18  C   UNL     1      11.765   5.739  23.482  0.00  0.00    +0.001 A 
ATOM     19  C   UNL     1      10.637   6.119  24.213  0.00  0.00    +0.010 A 
ATOM     20  N   UNL     1       8.902   2.837  24.556  0.00  0.00    -0.242 NA
ENDBRANCH   9  11
ENDBRANCH   6   7
BRANCH   6  21
ATOM     21  C   UNL     1       5.207  -0.105  27.839  0.00  0.00    +0.127 C 
BRANCH  21  22
ATOM     22  C   UNL     1       4.426   1.155  28.013  0.00  0.00    +0.213 C 
ATOM     23  N   UNL     1       3.513   1.352  27.000  0.00  0.00    -0.329 N 
ATOM     24  H   UNL     1       2.922   2.175  27.013  0.00  0.00    +0.145 HD
ATOM     25  H   UNL     1       3.508   0.785  26.159  0.00  0.00    +0.145 HD
ATOM     26  O   UNL     1       4.473   1.905  28.983  0.00  0.00    -0.276 OA
ENDBRANCH  21  22
ENDBRANCH   6  21
ENDBRANCH   4   6
ENDBRANCH   1   2
BRANCH   1  27
ATOM     27  C   UNL     1       7.273  -4.488  24.365  0.00  0.00    +0.149 C 
BRANCH  27  28
ATOM     28  O   UNL     1       6.659  -5.312  23.349  0.00  0.00    -0.389 OA
ATOM     29  H   UNL     1       5.727  -5.051  23.256  0.00  0.00    +0.210 HD
ENDBRANCH  27  28
BRANCH  27  30
ATOM     30  C   UNL     1       7.229  -5.291  25.747  0.00  0.00    +0.118 C 
BRANCH  30  32
ATOM     31  C   UNL     1       5.326  -6.605  26.924  0.00  0.00    +0.143 C 
ATOM     32  N   UNL     1       6.050  -5.311  26.703  0.00  0.00    -0.289 NA
ATOM     33  C   UNL     1       6.058  -4.407  27.853  0.00  0.00    +0.089 C 
ATOM     34  C   UNL     1       4.697  -4.275  28.622  0.00  0.00    +0.006 C 
ATOM     35  C   UNL     1       4.261  -5.630  29.180  0.00  0.00    -0.005 C 
ATOM     36  C   UNL     1       2.799  -5.711  29.648  0.00  0.00    +0.004 C 
ATOM     37  C   UNL     1       1.771  -5.109  28.712  0.00  0.00    +0.000 C 
ATOM     38  C   UNL     1       2.138  -3.737  28.178  0.00  0.00    +0.000 C 
ATOM     39  C   UNL     1       3.617  -3.460  27.883  0.00  0.00    +0.005 C 
ATOM     40  C   UNL     1       4.766  -6.840  28.366  0.00  0.00    +0.032 C 
BRANCH  31  43
ATOM     41  N   UNL     1       2.979  -7.371  26.392  0.00  0.00    -0.309 N 
ATOM     42  H   UNL     1       3.070  -7.816  27.298  0.00  0.00    +0.149 HD
ATOM     43  C   UNL     1       4.182  -6.919  25.875  0.00  0.00    +0.231 C 
ATOM     44  O   UNL     1       4.311  -6.674  24.686  0.00  0.00    -0.274 OA
BRANCH  41  46
ATOM     45  C   UNL     1       0.632  -8.245  26.475  0.00  0.00    +0.031 C 
ATOM     46  C   UNL     1       1.755  -7.665  25.598  0.00  0.00    +0.026 C 
ATOM     47  C   UNL     1       1.243  -6.346  24.983  0.00  0.00    +0.031 C 
ATOM     48  C   UNL     1       2.019  -8.637  24.429  0.00  0.00    +0.031 C 
ENDBRANCH  41  46
ENDBRANCH  31  43
ENDBRANCH  30  32
ENDBRANCH  27  30
ENDBRANCH   1  27
BRANCH   1  49
ATOM     49  C   UNL     1       6.463  -2.465  22.849  0.00  0.00    +0.060 C 
BRANCH  49  50
ATOM     50  C   UNL     1       7.611  -1.534  22.509  0.00  0.00    -0.046 A 
ATOM     51  C   UNL     1       7.431  -0.143  22.434  0.00  0.00    +0.004 A 
ATOM     52  C   UNL     1       8.507   0.709  22.186  0.00  0.00    +0.000 A 
ATOM     53  C   UNL     1       9.772   0.175  21.967  0.00  0.00    +0.000 A 
ATOM     54  C   UNL     1       9.954  -1.206  21.981  0.00  0.00    +0.000 A 
ATOM     55  C   UNL     1       8.883  -2.057  22.250  0.00  0.00    +0.004 A 
ENDBRANCH  49  50
ENDBRANCH   1  49
TORSDOF 14
ENDMDL
MODEL 9
REMARK VINA RESULT:      -6.2      2.662      7.359
REMARK  Name = 
REMARK  17 active torsions:
REMARK  status: ('A' for Active; 'I' for Inactive)
REMARK    1  A    between atoms: C_1  and  C_2
REMARK    2  A    between atoms: C_2  and  C_3
REMARK    3  A    between atoms: C_2  and  C_4
REMARK    4  A    between atoms: C_2  and  N_5
REMARK    5  A    between atoms: C_6  and  C_8
REMARK    6  A    between atoms: N_20  and  C_21
REMARK    7  A    between atoms: C_21  and  C_22
REMARK    8  A    between atoms: C_22  and  C_24
REMARK    9  A    between atoms: C_22  and  O_59
REMARK   10  A    between atoms: C_24  and  C_26
REMARK   11  A    between atoms: C_24  and  N_33
REMARK   12  A    between atoms: C_26  and  C_27
REMARK   13  A    between atoms: C_34  and  C_36
REMARK   14  A    between atoms: C_36  and  C_38
REMARK   15  A    between atoms: C_36  and  N_42
REMARK   16  A    between atoms: C_38  and  C_39
REMARK   17  A    between atoms: C_43  and  C_45
REMARK                            x       y       z     vdW  Elec       q    Type
REMARK                         _______ _______ _______ _____ _____    ______ ____
ROOT
ATOM      1  C   UNL     1       9.061  -2.363  24.905  0.00  0.00    +0.107 C 
ENDROOT
BRANCH   1   2
ATOM      2  N   UNL     1       8.021  -3.325  24.431  0.00  0.00    -0.308 N 
ATOM      3  H   UNL     1       7.359  -2.971  23.750  0.00  0.00    +0.149 HD
ATOM      4  C   UNL     1       8.305  -4.707  24.331  0.00  0.00    +0.234 C 
ATOM      5  O   UNL     1       9.396  -5.178  24.662  0.00  0.00    -0.274 OA
BRANCH   4   6
ATOM      6  C   UNL     1       7.102  -5.642  23.963  0.00  0.00    +0.168 C 
BRANCH   6   7
ATOM      7  N   UNL     1       6.024  -5.651  25.018  0.00  0.00    -0.298 N 
ATOM      8  H   UNL     1       6.093  -4.907  25.709  0.00  0.00    +0.150 HD
ATOM      9  C   UNL     1       4.888  -6.427  25.214  0.00  0.00    +0.263 C 
ATOM     10  O   UNL     1       4.556  -7.368  24.522  0.00  0.00    -0.269 OA
BRANCH   9  11
ATOM     11  C   UNL     1       4.043  -6.024  26.483  0.00  0.00    +0.126 A 
ATOM     12  C   UNL     1       2.874  -6.661  26.828  0.00  0.00    +0.033 A 
ATOM     13  C   UNL     1       2.146  -6.220  27.960  0.00  0.00    +0.012 A 
ATOM     14  C   UNL     1       2.587  -5.116  28.693  0.00  0.00    +0.000 A 
ATOM     15  C   UNL     1       3.793  -4.524  28.271  0.00  0.00    +0.072 A 
ATOM     16  C   UNL     1       4.223  -3.407  28.982  0.00  0.00    +0.028 A 
ATOM     17  C   UNL     1       3.522  -2.869  30.072  0.00  0.00    +0.002 A 
ATOM     18  C   UNL     1       2.330  -3.460  30.482  0.00  0.00    +0.001 A 
ATOM     19  C   UNL     1       1.867  -4.589  29.802  0.00  0.00    +0.010 A 
ATOM     20  N   UNL     1       4.523  -4.970  27.214  0.00  0.00    -0.242 NA
ENDBRANCH   9  11
ENDBRANCH   6   7
BRANCH   6  21
ATOM     21  C   UNL     1       6.841  -5.181  22.518  0.00  0.00    +0.127 C 
BRANCH  21  22
ATOM     22  C   UNL     1       5.665  -4.321  22.194  0.00  0.00    +0.213 C 
ATOM     23  N   UNL     1       6.021  -3.176  21.518  0.00  0.00    -0.329 N 
ATOM     24  H   UNL     1       5.303  -2.515  21.241  0.00  0.00    +0.145 HD
ATOM     25  H   UNL     1       6.988  -2.889  21.412  0.00  0.00    +0.145 HD
ATOM     26  O   UNL     1       4.487  -4.608  22.386  0.00  0.00    -0.276 OA
ENDBRANCH  21  22
ENDBRANCH   6  21
ENDBRANCH   4   6
ENDBRANCH   1   2
BRANCH   1  27
ATOM     27  C   UNL     1       8.553  -0.985  25.606  0.00  0.00    +0.149 C 
BRANCH  27  28
ATOM     28  O   UNL     1       8.467  -1.270  27.021  0.00  0.00    -0.389 OA
ATOM     29  H   UNL     1       9.366  -1.324  27.384  0.00  0.00    +0.210 HD
ENDBRANCH  27  28
BRANCH  27  30
ATOM     30  C   UNL     1       7.141  -0.400  25.133  0.00  0.00    +0.118 C 
BRANCH  30  32
ATOM     31  C   UNL     1       7.606   2.101  25.642  0.00  0.00    +0.143 C 
ATOM     32  N   UNL     1       6.855   1.065  24.862  0.00  0.00    -0.289 NA
ATOM     33  C   UNL     1       6.474   1.472  23.509  0.00  0.00    +0.089 C 
ATOM     34  C   UNL     1       5.917   2.932  23.371  0.00  0.00    +0.006 C 
ATOM     35  C   UNL     1       6.964   3.952  23.817  0.00  0.00    -0.005 C 
ATOM     36  C   UNL     1       6.438   5.376  24.058  0.00  0.00    +0.004 C 
ATOM     37  C   UNL     1       5.151   5.479  24.851  0.00  0.00    +0.000 C 
ATOM     38  C   UNL     1       4.062   4.521  24.404  0.00  0.00    +0.000 C 
ATOM     39  C   UNL     1       4.491   3.130  23.922  0.00  0.00    +0.005 C 
ATOM     40  C   UNL     1       7.952   3.421  24.877  0.00  0.00    +0.032 C 
BRANCH  31  43
ATOM     41  N   UNL     1       7.469   1.803  28.147  0.00  0.00    -0.309 N 
ATOM     42  H   UNL     1       7.880   0.905  27.920  0.00  0.00    +0.149 HD
ATOM     43  C   UNL     1       6.969   2.476  27.043  0.00  0.00    +0.231 C 
ATOM     44  O   UNL     1       6.161   3.383  27.163  0.00  0.00    -0.274 OA
BRANCH  41  46
ATOM     45  C   UNL     1       5.643   1.521  29.839  0.00  0.00    +0.031 C 
ATOM     46  C   UNL     1       7.063   2.042  29.558  0.00  0.00    +0.026 C 
ATOM     47  C   UNL     1       8.038   1.284  30.482  0.00  0.00    +0.031 C 
ATOM     48  C   UNL     1       7.129   3.532  29.956  0.00  0.00    +0.031 C 
ENDBRANCH  41  46
ENDBRANCH  31  43
ENDBRANCH  30  32
ENDBRANCH  27  30
ENDBRANCH   1  27
BRANCH   1  49
ATOM     49  C   UNL     1      10.117  -2.091  23.768  0.00  0.00    +0.060 C 
BRANCH  49  50
ATOM     50  C   UNL     1      10.092  -0.689  23.192  0.00  0.00    -0.046 A 
ATOM     51  C   UNL     1       9.476  -0.411  21.961  0.00  0.00    +0.004 A 
ATOM     52  C   UNL     1       9.401   0.893  21.471  0.00  0.00    +0.000 A 
ATOM     53  C   UNL     1       9.981   1.933  22.191  0.00  0.00    +0.000 A 
ATOM     54  C   UNL     1      10.646   1.663  23.385  0.00  0.00    +0.000 A 
ATOM     55  C   UNL     1      10.702   0.364  23.885  0.00  0.00    +0.004 A 
ENDBRANCH  49  50
ENDBRANCH   1  49
TORSDOF 14
ENDMDL
