MODEL 1
REMARK VINA RESULT:      -6.3      0.000      0.000
REMARK  Name = 
REMARK  8 active torsions:
REMARK  status: ('A' for Active; 'I' for Inactive)
REMARK    1  A    between atoms: N_3  and  C_9
REMARK    2  A    between atoms: C_9  and  C_10
REMARK    3  A    between atoms: C_10  and  C_12
REMARK    4  A    between atoms: C_10  and  O_14
REMARK    5  A    between atoms: C_12  and  O_13
REMARK    6  A    between atoms: O_14  and  C_15
REMARK    7  A    between atoms: C_15  and  P_16
REMARK    8  A    between atoms: P_16  and  O_18
REMARK                            x       y       z     vdW  Elec       q    Type
REMARK                         _______ _______ _______ _____ _____    ______ ____
ROOT
ATOM      1  C   UNL     1       9.384  -2.549  24.545  0.00  0.00    +0.160 C 
ENDROOT
BRANCH   1  10
ATOM      2  C   UNL     1       9.579  -0.515  21.496  0.00  0.00    +0.061 A 
ATOM      3  C   UNL     1       9.742   0.787  22.160  0.00  0.00    +0.123 A 
ATOM      4  N   UNL     1       9.681   1.938  21.429  0.00  0.00    -0.343 N 
ATOM      5  H   UNL     1      10.089   1.911  20.501  0.00  0.00    +0.144 HD
ATOM      6  H   UNL     1       9.976   2.740  21.978  0.00  0.00    +0.144 HD
ATOM      7  N   UNL     1       9.935   0.925  23.435  0.00  0.00    -0.178 NA
ATOM      8  C   UNL     1       9.943  -0.179  24.249  0.00  0.00    +0.350 A 
ATOM      9  O   UNL     1      10.136  -0.060  25.453  0.00  0.00    -0.244 OA
ATOM     10  N   UNL     1       9.714  -1.433  23.663  0.00  0.00    -0.296 N 
ATOM     11  C   UNL     1       9.541  -1.579  22.301  0.00  0.00    +0.094 A 
ENDBRANCH   1  10
BRANCH   1  12
ATOM     12  C   UNL     1       8.597  -3.725  23.928  0.00  0.00    +0.164 C 
BRANCH  12  13
ATOM     13  O   UNL     1       7.169  -3.473  23.956  0.00  0.00    -0.364 OA
BRANCH  13  14
ATOM     14  C   UNL     1       6.434  -4.681  23.648  0.00  0.00    +0.242 C 
BRANCH  14  15
ATOM     15  P   UNL     1       6.123  -4.990  21.882  0.00  0.00    +0.159 P 
ATOM     16  O   UNL     1       5.675  -3.772  21.133  0.00  0.00    -0.780 OA
ATOM     17  O   UNL     1       7.258  -5.848  21.368  0.00  0.00    -0.305 OA
BRANCH  15  18
ATOM     18  O   UNL     1       4.909  -6.046  21.967  0.00  0.00    -0.352 OA
ATOM     19  H   UNL     1       4.137  -5.468  22.103  0.00  0.00    +0.217 HD
ENDBRANCH  15  18
ENDBRANCH  14  15
ENDBRANCH  13  14
ENDBRANCH  12  13
BRANCH  12  20
ATOM     20  C   UNL     1       8.893  -5.025  24.690  0.00  0.00    +0.189 C 
BRANCH  20  21
ATOM     21  O   UNL     1      10.294  -5.159  24.935  0.00  0.00    -0.392 OA
ATOM     22  H   UNL     1      10.673  -4.283  24.720  0.00  0.00    +0.210 HD
ENDBRANCH  20  21
ENDBRANCH  12  20
ENDBRANCH   1  12
TORSDOF 8
ENDMDL
MODEL 2
REMARK VINA RESULT:      -6.2      2.307      3.072
REMARK  Name = 
REMARK  8 active torsions:
REMARK  status: ('A' for Active; 'I' for Inactive)
REMARK    1  A    between atoms: N_3  and  C_9
REMARK    2  A    between atoms: C_9  and  C_10
REMARK    3  A    between atoms: C_10  and  C_12
REMARK    4  A    between atoms: C_10  and  O_14
REMARK    5  A    between atoms: C_12  and  O_13
REMARK    6  A    between atoms: O_14  and  C_15
REMARK    7  A    between atoms: C_15  and  P_16
REMARK    8  A    between atoms: P_16  and  O_18
REMARK                            x       y       z     vdW  Elec       q    Type
REMARK                         _______ _______ _______ _____ _____    ______ ____
ROOT
ATOM      1  C   UNL     1       9.842  -2.618  24.116  0.00  0.00    +0.160 C 
ENDROOT
BRANCH   1  10
ATOM      2  C   UNL     1       9.454  -0.310  21.289  0.00  0.00    +0.061 A 
ATOM      3  C   UNL     1       9.562   0.937  22.060  0.00  0.00    +0.123 A 
ATOM      4  N   UNL     1       9.294   2.135  21.462  0.00  0.00    -0.343 N 
ATOM      5  H   UNL     1       9.586   2.237  20.497  0.00  0.00    +0.144 HD
ATOM      6  H   UNL     1       9.568   2.913  22.054  0.00  0.00    +0.144 HD
ATOM      7  N   UNL     1       9.892   0.982  23.313  0.00  0.00    -0.178 NA
ATOM      8  C   UNL     1      10.112  -0.182  24.004  0.00  0.00    +0.350 A 
ATOM      9  O   UNL     1      10.437  -0.151  25.185  0.00  0.00    -0.244 OA
ATOM     10  N   UNL     1       9.945  -1.397  23.322  0.00  0.00    -0.296 N 
ATOM     11  C   UNL     1       9.624  -1.439  21.979  0.00  0.00    +0.094 A 
ENDBRANCH   1  10
BRANCH   1  12
ATOM     12  C   UNL     1       8.424  -3.083  24.510  0.00  0.00    +0.164 C 
BRANCH  12  13
ATOM     13  O   UNL     1       8.324  -3.310  25.939  0.00  0.00    -0.364 OA
BRANCH  13  14
ATOM     14  C   UNL     1       6.975  -3.690  26.300  0.00  0.00    +0.242 C 
BRANCH  14  15
ATOM     15  P   UNL     1       6.805  -5.282  27.164  0.00  0.00    +0.159 P 
ATOM     16  O   UNL     1       6.440  -5.139  28.611  0.00  0.00    -0.780 OA
ATOM     17  O   UNL     1       6.033  -6.211  26.254  0.00  0.00    -0.305 OA
BRANCH  15  18
ATOM     18  O   UNL     1       8.306  -5.856  27.043  0.00  0.00    -0.352 OA
ATOM     19  H   UNL     1       8.363  -6.457  27.808  0.00  0.00    +0.217 HD
ENDBRANCH  15  18
ENDBRANCH  14  15
ENDBRANCH  13  14
ENDBRANCH  12  13
BRANCH  12  20
ATOM     20  C   UNL     1       8.062  -4.379  23.769  0.00  0.00    +0.189 C 
BRANCH  20  21
ATOM     21  O   UNL     1       8.962  -5.431  24.120  0.00  0.00    -0.392 OA
ATOM     22  H   UNL     1       9.824  -4.988  24.260  0.00  0.00    +0.210 HD
ENDBRANCH  20  21
ENDBRANCH  12  20
ENDBRANCH   1  12
TORSDOF 8
ENDMDL
MODEL 3
REMARK VINA RESULT:      -6.0      2.301      3.444
REMARK  Name = 
REMARK  8 active torsions:
REMARK  status: ('A' for Active; 'I' for Inactive)
REMARK    1  A    between atoms: N_3  and  C_9
REMARK    2  A    between atoms: C_9  and  C_10
REMARK    3  A    between atoms: C_10  and  C_12
REMARK    4  A    between atoms: C_10  and  O_14
REMARK    5  A    between atoms: C_12  and  O_13
REMARK    6  A    between atoms: O_14  and  C_15
REMARK    7  A    between atoms: C_15  and  P_16
REMARK    8  A    between atoms: P_16  and  O_18
REMARK                            x       y       z     vdW  Elec       q    Type
REMARK                         _______ _______ _______ _____ _____    ______ ____
ROOT
ATOM      1  C   UNL     1      10.054  -2.192  23.341  0.00  0.00    +0.160 C 
ENDROOT
BRANCH   1  10
ATOM      2  C   UNL     1      10.410   1.282  24.471  0.00  0.00    +0.061 A 
ATOM      3  C   UNL     1      10.311   1.912  23.146  0.00  0.00    +0.123 A 
ATOM      4  N   UNL     1      10.572   3.244  23.003  0.00  0.00    -0.343 N 
ATOM      5  H   UNL     1      10.268   3.851  23.756  0.00  0.00    +0.144 HD
ATOM      6  H   UNL     1      10.304   3.576  22.081  0.00  0.00    +0.144 HD
ATOM      7  N   UNL     1       9.994   1.269  22.066  0.00  0.00    -0.178 NA
ATOM      8  C   UNL     1       9.782  -0.086  22.113  0.00  0.00    +0.350 A 
ATOM      9  O   UNL     1       9.470  -0.701  21.100  0.00  0.00    -0.244 OA
ATOM     10  N   UNL     1       9.942  -0.736  23.347  0.00  0.00    -0.296 N 
ATOM     11  C   UNL     1      10.248  -0.042  24.500  0.00  0.00    +0.094 A 
ENDBRANCH   1  10
BRANCH   1  12
ATOM     12  C   UNL     1       8.872  -2.991  23.929  0.00  0.00    +0.164 C 
BRANCH  12  13
ATOM     13  O   UNL     1       9.285  -4.322  24.331  0.00  0.00    -0.364 OA
BRANCH  13  14
ATOM     14  C   UNL     1       9.196  -4.469  25.768  0.00  0.00    +0.242 C 
BRANCH  14  15
ATOM     15  P   UNL     1       7.529  -4.777  26.430  0.00  0.00    +0.159 P 
ATOM     16  O   UNL     1       6.904  -3.569  27.059  0.00  0.00    -0.780 OA
ATOM     17  O   UNL     1       6.779  -5.597  25.403  0.00  0.00    -0.305 OA
BRANCH  15  18
ATOM     18  O   UNL     1       7.851  -5.870  27.569  0.00  0.00    -0.352 OA
ATOM     19  H   UNL     1       7.456  -5.468  28.363  0.00  0.00    +0.217 HD
ENDBRANCH  15  18
ENDBRANCH  14  15
ENDBRANCH  13  14
ENDBRANCH  12  13
BRANCH  12  20
ATOM     20  C   UNL     1       7.740  -3.106  22.898  0.00  0.00    +0.189 C 
BRANCH  20  21
ATOM     21  O   UNL     1       7.327  -4.466  22.750  0.00  0.00    -0.392 OA
ATOM     22  H   UNL     1       6.476  -4.420  22.269  0.00  0.00    +0.210 HD
ENDBRANCH  20  21
ENDBRANCH  12  20
ENDBRANCH   1  12
TORSDOF 8
ENDMDL
MODEL 4
REMARK VINA RESULT:      -5.9      1.885      3.167
REMARK  Name = 
REMARK  8 active torsions:
REMARK  status: ('A' for Active; 'I' for Inactive)
REMARK    1  A    between atoms: N_3  and  C_9
REMARK    2  A    between atoms: C_9  and  C_10
REMARK    3  A    between atoms: C_10  and  C_12
REMARK    4  A    between atoms: C_10  and  O_14
REMARK    5  A    between atoms: C_12  and  O_13
REMARK    6  A    between atoms: O_14  and  C_15
REMARK    7  A    between atoms: C_15  and  P_16
REMARK    8  A    between atoms: P_16  and  O_18
REMARK                            x       y       z     vdW  Elec       q    Type
REMARK                         _______ _______ _______ _____ _____    ______ ____
ROOT
ATOM      1  C   UNL     1       9.457  -1.689  23.380  0.00  0.00    +0.160 C 
ENDROOT
BRANCH   1  10
ATOM      2  C   UNL     1       9.965   1.616  21.866  0.00  0.00    +0.061 A 
ATOM      3  C   UNL     1      10.112   2.368  23.122  0.00  0.00    +0.123 A 
ATOM      4  N   UNL     1      10.146   3.732  23.100  0.00  0.00    -0.343 N 
ATOM      5  H   UNL     1      10.628   4.163  22.320  0.00  0.00    +0.144 HD
ATOM      6  H   UNL     1      10.418   4.109  24.003  0.00  0.00    +0.144 HD
ATOM      7  N   UNL     1      10.202   1.809  24.288  0.00  0.00    -0.178 NA
ATOM      8  C   UNL     1      10.109   0.444  24.402  0.00  0.00    +0.350 A 
ATOM      9  O   UNL     1      10.205  -0.095  25.498  0.00  0.00    -0.244 OA
ATOM     10  N   UNL     1       9.892  -0.302  23.233  0.00  0.00    -0.296 N 
ATOM     11  C   UNL     1       9.828   0.294  21.990  0.00  0.00    +0.094 A 
ENDBRANCH   1  10
BRANCH   1  12
ATOM     12  C   UNL     1       7.941  -1.938  23.525  0.00  0.00    +0.164 C 
BRANCH  12  13
ATOM     13  O   UNL     1       7.649  -2.724  24.709  0.00  0.00    -0.364 OA
BRANCH  13  14
ATOM     14  C   UNL     1       8.855  -3.341  25.219  0.00  0.00    +0.242 C 
BRANCH  14  15
ATOM     15  P   UNL     1       8.873  -5.161  25.223  0.00  0.00    +0.159 P 
ATOM     16  O   UNL     1       8.108  -5.762  26.362  0.00  0.00    -0.780 OA
ATOM     17  O   UNL     1       8.640  -5.618  23.799  0.00  0.00    -0.305 OA
BRANCH  15  18
ATOM     18  O   UNL     1      10.446  -5.449  25.420  0.00  0.00    -0.352 OA
ATOM     19  H   UNL     1      10.753  -5.573  24.504  0.00  0.00    +0.217 HD
ENDBRANCH  15  18
ENDBRANCH  14  15
ENDBRANCH  13  14
ENDBRANCH  12  13
BRANCH  12  20
ATOM     20  C   UNL     1       7.399  -2.671  22.289  0.00  0.00    +0.189 C 
BRANCH  20  21
ATOM     21  O   UNL     1       6.553  -3.755  22.675  0.00  0.00    -0.392 OA
ATOM     22  H   UNL     1       6.506  -3.703  23.651  0.00  0.00    +0.210 HD
ENDBRANCH  20  21
ENDBRANCH  12  20
ENDBRANCH   1  12
TORSDOF 8
ENDMDL
MODEL 5
REMARK VINA RESULT:      -5.9      1.512      1.981
REMARK  Name = 
REMARK  8 active torsions:
REMARK  status: ('A' for Active; 'I' for Inactive)
REMARK    1  A    between atoms: N_3  and  C_9
REMARK    2  A    between atoms: C_9  and  C_10
REMARK    3  A    between atoms: C_10  and  C_12
REMARK    4  A    between atoms: C_10  and  O_14
REMARK    5  A    between atoms: C_12  and  O_13
REMARK    6  A    between atoms: O_14  and  C_15
REMARK    7  A    between atoms: C_15  and  P_16
REMARK    8  A    between atoms: P_16  and  O_18
REMARK                            x       y       z     vdW  Elec       q    Type
REMARK                         _______ _______ _______ _____ _____    ______ ____
ROOT
ATOM      1  C   UNL     1       8.210  -2.443  24.676  0.00  0.00    +0.160 C 
ENDROOT
BRANCH   1  10
ATOM      2  C   UNL     1      10.372   0.320  23.600  0.00  0.00    +0.061 A 
ATOM      3  C   UNL     1       9.509   0.811  22.515  0.00  0.00    +0.123 A 
ATOM      4  N   UNL     1       9.970   1.764  21.653  0.00  0.00    -0.343 N 
ATOM      5  H   UNL     1      10.562   2.486  22.048  0.00  0.00    +0.144 HD
ATOM      6  H   UNL     1       9.223   2.127  21.069  0.00  0.00    +0.144 HD
ATOM      7  N   UNL     1       8.304   0.380  22.304  0.00  0.00    -0.178 NA
ATOM      8  C   UNL     1       7.790  -0.624  23.084  0.00  0.00    +0.350 A 
ATOM      9  O   UNL     1       6.649  -1.030  22.901  0.00  0.00    -0.244 OA
ATOM     10  N   UNL     1       8.612  -1.171  24.082  0.00  0.00    -0.296 N 
ATOM     11  C   UNL     1       9.883  -0.688  24.324  0.00  0.00    +0.094 A 
ENDBRANCH   1  10
BRANCH   1  12
ATOM     12  C   UNL     1       9.057  -3.684  24.321  0.00  0.00    +0.164 C 
BRANCH  12  13
ATOM     13  O   UNL     1       8.408  -4.488  23.303  0.00  0.00    -0.364 OA
BRANCH  13  14
ATOM     14  C   UNL     1       6.975  -4.502  23.503  0.00  0.00    +0.242 C 
BRANCH  14  15
ATOM     15  P   UNL     1       5.975  -4.914  22.040  0.00  0.00    +0.159 P 
ATOM     16  O   UNL     1       6.705  -5.754  21.036  0.00  0.00    -0.780 OA
ATOM     17  O   UNL     1       4.598  -5.305  22.529  0.00  0.00    -0.305 OA
BRANCH  15  18
ATOM     18  O   UNL     1       5.714  -3.447  21.425  0.00  0.00    -0.352 OA
ATOM     19  H   UNL     1       5.534  -3.641  20.488  0.00  0.00    +0.217 HD
ENDBRANCH  15  18
ENDBRANCH  14  15
ENDBRANCH  13  14
ENDBRANCH  12  13
BRANCH  12  20
ATOM     20  C   UNL     1       9.289  -4.547  25.570  0.00  0.00    +0.189 C 
BRANCH  20  21
ATOM     21  O   UNL     1      10.234  -5.584  25.299  0.00  0.00    -0.392 OA
ATOM     22  H   UNL     1      10.907  -5.502  26.006  0.00  0.00    +0.210 HD
ENDBRANCH  20  21
ENDBRANCH  12  20
ENDBRANCH   1  12
TORSDOF 8
ENDMDL
MODEL 6
REMARK VINA RESULT:      -5.8      1.348      1.663
REMARK  Name = 
REMARK  8 active torsions:
REMARK  status: ('A' for Active; 'I' for Inactive)
REMARK    1  A    between atoms: N_3  and  C_9
REMARK    2  A    between atoms: C_9  and  C_10
REMARK    3  A    between atoms: C_10  and  C_12
REMARK    4  A    between atoms: C_10  and  O_14
REMARK    5  A    between atoms: C_12  and  O_13
REMARK    6  A    between atoms: O_14  and  C_15
REMARK    7  A    between atoms: C_15  and  P_16
REMARK    8  A    between atoms: P_16  and  O_18
REMARK                            x       y       z     vdW  Elec       q    Type
REMARK                         _______ _______ _______ _____ _____    ______ ____
ROOT
ATOM      1  C   UNL     1       9.193  -2.398  24.467  0.00  0.00    +0.160 C 
ENDROOT
BRANCH   1  10
ATOM      2  C   UNL     1       7.888   0.732  23.062  0.00  0.00    +0.061 A 
ATOM      3  C   UNL     1       8.977   0.966  22.103  0.00  0.00    +0.123 A 
ATOM      4  N   UNL     1       9.050   2.151  21.429  0.00  0.00    -0.343 N 
ATOM      5  H   UNL     1       8.172   2.567  21.142  0.00  0.00    +0.144 HD
ATOM      6  H   UNL     1       9.742   2.111  20.687  0.00  0.00    +0.144 HD
ATOM      7  N   UNL     1       9.911   0.103  21.851  0.00  0.00    -0.178 NA
ATOM      8  C   UNL     1       9.947  -1.086  22.536  0.00  0.00    +0.350 A 
ATOM      9  O   UNL     1      10.819  -1.913  22.297  0.00  0.00    -0.244 OA
ATOM     10  N   UNL     1       8.967  -1.313  23.515  0.00  0.00    -0.296 N 
ATOM     11  C   UNL     1       7.956  -0.405  23.757  0.00  0.00    +0.094 A 
ENDBRANCH   1  10
BRANCH   1  12
ATOM     12  C   UNL     1       8.611  -3.781  24.107  0.00  0.00    +0.164 C 
BRANCH  12  13
ATOM     13  O   UNL     1       7.164  -3.733  24.011  0.00  0.00    -0.364 OA
BRANCH  13  14
ATOM     14  C   UNL     1       6.632  -5.042  23.699  0.00  0.00    +0.242 C 
BRANCH  14  15
ATOM     15  P   UNL     1       5.428  -5.104  22.336  0.00  0.00    +0.159 P 
ATOM     16  O   UNL     1       4.003  -5.091  22.799  0.00  0.00    -0.780 OA
ATOM     17  O   UNL     1       5.909  -4.150  21.265  0.00  0.00    -0.305 OA
BRANCH  15  18
ATOM     18  O   UNL     1       5.771  -6.541  21.692  0.00  0.00    -0.352 OA
ATOM     19  H   UNL     1       4.942  -7.033  21.825  0.00  0.00    +0.217 HD
ENDBRANCH  15  18
ENDBRANCH  14  15
ENDBRANCH  13  14
ENDBRANCH  12  13
BRANCH  12  20
ATOM     20  C   UNL     1       9.009  -4.820  25.166  0.00  0.00    +0.189 C 
BRANCH  20  21
ATOM     21  O   UNL     1      10.356  -5.252  24.968  0.00  0.00    -0.392 OA
ATOM     22  H   UNL     1      10.381  -6.167  25.316  0.00  0.00    +0.210 HD
ENDBRANCH  20  21
ENDBRANCH  12  20
ENDBRANCH   1  12
TORSDOF 8
ENDMDL
MODEL 7
REMARK VINA RESULT:      -5.6      1.934      2.518
REMARK  Name = 
REMARK  8 active torsions:
REMARK  status: ('A' for Active; 'I' for Inactive)
REMARK    1  A    between atoms: N_3  and  C_9
REMARK    2  A    between atoms: C_9  and  C_10
REMARK    3  A    between atoms: C_10  and  C_12
REMARK    4  A    between atoms: C_10  and  O_14
REMARK    5  A    between atoms: C_12  and  O_13
REMARK    6  A    between atoms: O_14  and  C_15
REMARK    7  A    between atoms: C_15  and  P_16
REMARK    8  A    between atoms: P_16  and  O_18
REMARK                            x       y       z     vdW  Elec       q    Type
REMARK                         _______ _______ _______ _____ _____    ______ ____
ROOT
ATOM      1  C   UNL     1       7.310  -3.409  25.484  0.00  0.00    +0.160 C 
ENDROOT
BRANCH   1  10
ATOM      2  C   UNL     1       8.132  -1.285  22.606  0.00  0.00    +0.061 A 
ATOM      3  C   UNL     1       9.551  -1.657  22.508  0.00  0.00    +0.123 A 
ATOM      4  N   UNL     1      10.379  -0.975  21.664  0.00  0.00    -0.343 N 
ATOM      5  H   UNL     1       9.984  -0.679  20.779  0.00  0.00    +0.144 HD
ATOM      6  H   UNL     1      11.277  -1.440  21.572  0.00  0.00    +0.144 HD
ATOM      7  N   UNL     1      10.093  -2.611  23.198  0.00  0.00    -0.178 NA
ATOM      8  C   UNL     1       9.345  -3.302  24.117  0.00  0.00    +0.350 A 
ATOM      9  O   UNL     1       9.844  -4.213  24.766  0.00  0.00    -0.244 OA
ATOM     10  N   UNL     1       8.004  -2.924  24.294  0.00  0.00    -0.296 N 
ATOM     11  C   UNL     1       7.423  -1.929  23.535  0.00  0.00    +0.094 A 
ENDBRANCH   1  10
BRANCH   1  12
ATOM     12  C   UNL     1       6.828  -4.875  25.469  0.00  0.00    +0.164 C 
BRANCH  12  13
ATOM     13  O   UNL     1       5.455  -4.971  25.012  0.00  0.00    -0.364 OA
BRANCH  13  14
ATOM     14  C   UNL     1       5.350  -5.907  23.913  0.00  0.00    +0.242 C 
BRANCH  14  15
ATOM     15  P   UNL     1       5.797  -5.256  22.273  0.00  0.00    +0.159 P 
ATOM     16  O   UNL     1       5.125  -3.957  21.944  0.00  0.00    -0.780 OA
ATOM     17  O   UNL     1       7.291  -5.424  22.113  0.00  0.00    -0.305 OA
BRANCH  15  18
ATOM     18  O   UNL     1       5.218  -6.417  21.317  0.00  0.00    -0.352 OA
ATOM     19  H   UNL     1       5.298  -6.019  20.432  0.00  0.00    +0.217 HD
ENDBRANCH  15  18
ENDBRANCH  14  15
ENDBRANCH  13  14
ENDBRANCH  12  13
BRANCH  12  20
ATOM     20  C   UNL     1       6.935  -5.487  26.873  0.00  0.00    +0.189 C 
BRANCH  20  21
ATOM     21  O   UNL     1       8.303  -5.675  27.240  0.00  0.00    -0.392 OA
ATOM     22  H   UNL     1       8.277  -6.290  28.002  0.00  0.00    +0.210 HD
ENDBRANCH  20  21
ENDBRANCH  12  20
ENDBRANCH   1  12
TORSDOF 8
ENDMDL
MODEL 8
REMARK VINA RESULT:      -5.6      1.547      2.027
REMARK  Name = 
REMARK  8 active torsions:
REMARK  status: ('A' for Active; 'I' for Inactive)
REMARK    1  A    between atoms: N_3  and  C_9
REMARK    2  A    between atoms: C_9  and  C_10
REMARK    3  A    between atoms: C_10  and  C_12
REMARK    4  A    between atoms: C_10  and  O_14
REMARK    5  A    between atoms: C_12  and  O_13
REMARK    6  A    between atoms: O_14  and  C_15
REMARK    7  A    between atoms: C_15  and  P_16
REMARK    8  A    between atoms: P_16  and  O_18
REMARK                            x       y       z     vdW  Elec       q    Type
REMARK                         _______ _______ _______ _____ _____    ______ ____
ROOT
ATOM      1  C   UNL     1       7.956  -1.088  23.349  0.00  0.00    +0.160 C 
ENDROOT
BRANCH   1  10
ATOM      2  C   UNL     1       9.831   1.707  21.885  0.00  0.00    +0.061 A 
ATOM      3  C   UNL     1      10.348   2.256  23.147  0.00  0.00    +0.123 A 
ATOM      4  N   UNL     1      10.989   3.461  23.155  0.00  0.00    -0.343 N 
ATOM      5  H   UNL     1      11.582   3.666  22.359  0.00  0.00    +0.144 HD
ATOM      6  H   UNL     1      11.435   3.636  24.050  0.00  0.00    +0.144 HD
ATOM      7  N   UNL     1      10.223   1.664  24.294  0.00  0.00    -0.178 NA
ATOM      8  C   UNL     1       9.533   0.481  24.381  0.00  0.00    +0.350 A 
ATOM      9  O   UNL     1       9.420  -0.093  25.458  0.00  0.00    -0.244 OA
ATOM     10  N   UNL     1       8.960  -0.037  23.210  0.00  0.00    -0.296 N 
ATOM     11  C   UNL     1       9.122   0.581  21.986  0.00  0.00    +0.094 A 
ENDBRANCH   1  10
BRANCH   1  12
ATOM     12  C   UNL     1       8.314  -2.481  22.789  0.00  0.00    +0.164 C 
BRANCH  12  13
ATOM     13  O   UNL     1       7.174  -3.093  22.133  0.00  0.00    -0.364 OA
BRANCH  13  14
ATOM     14  C   UNL     1       7.197  -4.529  22.310  0.00  0.00    +0.242 C 
BRANCH  14  15
ATOM     15  P   UNL     1       5.613  -5.295  22.773  0.00  0.00    +0.159 P 
ATOM     16  O   UNL     1       5.641  -5.956  24.118  0.00  0.00    -0.780 OA
ATOM     17  O   UNL     1       4.515  -4.320  22.406  0.00  0.00    -0.305 OA
BRANCH  15  18
ATOM     18  O   UNL     1       5.470  -6.417  21.625  0.00  0.00    -0.352 OA
ATOM     19  H   UNL     1       6.244  -6.984  21.789  0.00  0.00    +0.217 HD
ENDBRANCH  15  18
ENDBRANCH  14  15
ENDBRANCH  13  14
ENDBRANCH  12  13
BRANCH  12  20
ATOM     20  C   UNL     1       8.798  -3.402  23.919  0.00  0.00    +0.189 C 
BRANCH  20  21
ATOM     21  O   UNL     1      10.215  -3.313  24.073  0.00  0.00    -0.392 OA
ATOM     22  H   UNL     1      10.494  -4.208  24.358  0.00  0.00    +0.210 HD
ENDBRANCH  20  21
ENDBRANCH  12  20
ENDBRANCH   1  12
TORSDOF 8
ENDMDL
MODEL 9
REMARK VINA RESULT:      -5.5      1.158      1.670
REMARK  Name = 
REMARK  8 active torsions:
REMARK  status: ('A' for Active; 'I' for Inactive)
REMARK    1  A    between atoms: N_3  and  C_9
REMARK    2  A    between atoms: C_9  and  C_10
REMARK    3  A    between atoms: C_10  and  C_12
REMARK    4  A    between atoms: C_10  and  O_14
REMARK    5  A    between atoms: C_12  and  O_13
REMARK    6  A    between atoms: O_14  and  C_15
REMARK    7  A    between atoms: C_15  and  P_16
REMARK    8  A    between atoms: P_16  and  O_18
REMARK                            x       y       z     vdW  Elec       q    Type
REMARK                         _______ _______ _______ _____ _____    ______ ____
ROOT
ATOM      1  C   UNL     1       8.230  -2.070  23.923  0.00  0.00    +0.160 C 
ENDROOT
BRANCH   1  10
ATOM      2  C   UNL     1       9.291   0.462  21.487  0.00  0.00    +0.061 A 
ATOM      3  C   UNL     1       9.958   1.360  22.442  0.00  0.00    +0.123 A 
ATOM      4  N   UNL     1      10.384   2.592  22.036  0.00  0.00    -0.343 N 
ATOM      5  H   UNL     1      10.762   2.657  21.098  0.00  0.00    +0.144 HD
ATOM      6  H   UNL     1      10.969   3.031  22.741  0.00  0.00    +0.144 HD
ATOM      7  N   UNL     1      10.167   1.061  23.686  0.00  0.00    -0.178 NA
ATOM      8  C   UNL     1       9.710  -0.131  24.189  0.00  0.00    +0.350 A 
ATOM      9  O   UNL     1       9.912  -0.429  25.360  0.00  0.00    -0.244 OA
ATOM     10  N   UNL     1       9.001  -0.983  23.327  0.00  0.00    -0.296 N 
ATOM     11  C   UNL     1       8.809  -0.674  21.995  0.00  0.00    +0.094 A 
ENDBRANCH   1  10
BRANCH   1  12
ATOM     12  C   UNL     1       8.796  -3.498  23.775  0.00  0.00    +0.164 C 
BRANCH  12  13
ATOM     13  O   UNL     1       7.829  -4.384  23.156  0.00  0.00    -0.364 OA
BRANCH  13  14
ATOM     14  C   UNL     1       6.642  -4.493  23.976  0.00  0.00    +0.242 C 
BRANCH  14  15
ATOM     15  P   UNL     1       5.055  -4.341  23.097  0.00  0.00    +0.159 P 
ATOM     16  O   UNL     1       4.646  -5.594  22.384  0.00  0.00    -0.780 OA
ATOM     17  O   UNL     1       4.096  -3.619  24.018  0.00  0.00    -0.305 OA
BRANCH  15  18
ATOM     18  O   UNL     1       5.414  -3.200  22.016  0.00  0.00    -0.352 OA
ATOM     19  H   UNL     1       4.789  -3.392  21.294  0.00  0.00    +0.217 HD
ENDBRANCH  15  18
ENDBRANCH  14  15
ENDBRANCH  13  14
ENDBRANCH  12  13
BRANCH  12  20
ATOM     20  C   UNL     1       9.188  -4.062  25.148  0.00  0.00    +0.189 C 
BRANCH  20  21
ATOM     21  O   UNL     1      10.112  -5.142  25.006  0.00  0.00    -0.392 OA
ATOM     22  H   UNL     1       9.656  -5.790  24.431  0.00  0.00    +0.210 HD
ENDBRANCH  20  21
ENDBRANCH  12  20
ENDBRANCH   1  12
TORSDOF 8
ENDMDL
