MODEL 1
REMARK VINA RESULT:      -6.2      0.000      0.000
REMARK  Name = 
REMARK  9 active torsions:
REMARK  status: ('A' for Active; 'I' for Inactive)
REMARK    1  A    between atoms: C_1  and  C_2
REMARK    2  A    between atoms: C_2  and  C_4
REMARK    3  A    between atoms: C_2  and  O_15
REMARK    4  A    between atoms: C_4  and  N_5
REMARK    5  A    between atoms: C_9  and  N_14
REMARK    6  A    between atoms: O_15  and  C_16
REMARK    7  A    between atoms: C_16  and  P_17
REMARK    8  A    between atoms: P_17  and  O_19
REMARK    9  A    between atoms: P_17  and  O_20
REMARK                            x       y       z     vdW  Elec       q    Type
REMARK                         _______ _______ _______ _____ _____    ______ ____
ROOT
ATOM      1  N   UNL     1       9.081  -1.858  22.872  0.00  0.00    -0.312 N 
ATOM      2  C   UNL     1       9.626  -0.748  23.465  0.00  0.00    +0.165 A 
ATOM      3  C   UNL     1       9.726   0.185  22.441  0.00  0.00    +0.147 A 
ATOM      4  C   UNL     1      10.249   1.440  22.772  0.00  0.00    +0.147 A 
ATOM      5  N   UNL     1      10.663   1.656  24.042  0.00  0.00    -0.219 NA
ATOM      6  C   UNL     1      10.514   0.654  24.936  0.00  0.00    +0.225 A 
ATOM      7  N   UNL     1       9.293  -0.346  21.248  0.00  0.00    -0.231 NA
ATOM      8  N   UNL     1      10.000  -0.582  24.743  0.00  0.00    -0.216 NA
ATOM      9  C   UNL     1       8.933  -1.574  21.541  0.00  0.00    +0.201 A 
ENDROOT
BRANCH   4  10
ATOM     10  N   UNL     1      10.387   2.462  21.837  0.00  0.00    -0.341 N 
ATOM     11  H   UNL     1      11.197   3.040  22.020  0.00  0.00    +0.144 HD
ATOM     12  H   UNL     1      10.240   2.145  20.885  0.00  0.00    +0.144 HD
ENDBRANCH   4  10
BRANCH   1  13
ATOM     13  C   UNL     1       8.798  -3.101  23.564  0.00  0.00    +0.156 C 
BRANCH  13  15
ATOM     14  C   UNL     1       7.363  -5.023  22.722  0.00  0.00    +0.040 C 
ATOM     15  C   UNL     1       7.366  -3.673  23.442  0.00  0.00    +0.136 C 
BRANCH  15  16
ATOM     16  O   UNL     1       6.663  -3.787  24.700  0.00  0.00    -0.363 OA
BRANCH  16  17
ATOM     17  C   UNL     1       6.841  -5.088  25.309  0.00  0.00    +0.286 C 
BRANCH  17  18
ATOM     18  P   UNL     1       8.147  -5.027  26.546  0.00  0.00    +0.353 P 
ATOM     19  O   UNL     1       8.509  -3.664  27.033  0.00  0.00    -0.256 OA
BRANCH  18  20
ATOM     20  O   UNL     1       9.406  -5.835  25.969  0.00  0.00    -0.323 OA
ATOM     21  H   UNL     1       9.123  -6.719  25.661  0.00  0.00    +0.220 HD
ENDBRANCH  18  20
BRANCH  18  22
ATOM     22  O   UNL     1       7.681  -6.041  27.702  0.00  0.00    -0.323 OA
ATOM     23  H   UNL     1       7.113  -5.594  28.364  0.00  0.00    +0.220 HD
ENDBRANCH  18  22
ENDBRANCH  17  18
ENDBRANCH  16  17
ENDBRANCH  15  16
ENDBRANCH  13  15
ENDBRANCH   1  13
TORSDOF 8
ENDMDL
MODEL 2
REMARK VINA RESULT:      -6.1      1.498      2.330
REMARK  Name = 
REMARK  9 active torsions:
REMARK  status: ('A' for Active; 'I' for Inactive)
REMARK    1  A    between atoms: C_1  and  C_2
REMARK    2  A    between atoms: C_2  and  C_4
REMARK    3  A    between atoms: C_2  and  O_15
REMARK    4  A    between atoms: C_4  and  N_5
REMARK    5  A    between atoms: C_9  and  N_14
REMARK    6  A    between atoms: O_15  and  C_16
REMARK    7  A    between atoms: C_16  and  P_17
REMARK    8  A    between atoms: P_17  and  O_19
REMARK    9  A    between atoms: P_17  and  O_20
REMARK                            x       y       z     vdW  Elec       q    Type
REMARK                         _______ _______ _______ _____ _____    ______ ____
ROOT
ATOM      1  N   UNL     1       7.042  -2.242  23.075  0.00  0.00    -0.312 N 
ATOM      2  C   UNL     1       8.280  -1.657  22.998  0.00  0.00    +0.165 A 
ATOM      3  C   UNL     1       8.315  -0.765  24.062  0.00  0.00    +0.147 A 
ATOM      4  C   UNL     1       9.490  -0.025  24.234  0.00  0.00    +0.147 A 
ATOM      5  N   UNL     1      10.494  -0.185  23.341  0.00  0.00    -0.219 NA
ATOM      6  C   UNL     1      10.321  -1.084  22.347  0.00  0.00    +0.225 A 
ATOM      7  N   UNL     1       7.123  -0.772  24.749  0.00  0.00    -0.231 NA
ATOM      8  N   UNL     1       9.251  -1.872  22.096  0.00  0.00    -0.216 NA
ATOM      9  C   UNL     1       6.380  -1.653  24.119  0.00  0.00    +0.201 A 
ENDROOT
BRANCH   4  10
ATOM     10  N   UNL     1       9.652   0.890  25.270  0.00  0.00    -0.341 N 
ATOM     11  H   UNL     1       8.856   1.506  25.363  0.00  0.00    +0.144 HD
ATOM     12  H   UNL     1      10.021   0.466  26.114  0.00  0.00    +0.144 HD
ENDBRANCH   4  10
BRANCH   1  13
ATOM     13  C   UNL     1       6.552  -3.248  22.151  0.00  0.00    +0.156 C 
BRANCH  13  15
ATOM     14  C   UNL     1       6.698  -5.676  21.412  0.00  0.00    +0.040 C 
ATOM     15  C   UNL     1       6.614  -4.724  22.608  0.00  0.00    +0.136 C 
BRANCH  15  16
ATOM     16  O   UNL     1       7.680  -5.013  23.540  0.00  0.00    -0.363 OA
BRANCH  16  17
ATOM     17  C   UNL     1       7.181  -5.283  24.873  0.00  0.00    +0.286 C 
BRANCH  17  18
ATOM     18  P   UNL     1       8.451  -4.933  26.099  0.00  0.00    +0.353 P 
ATOM     19  O   UNL     1       8.720  -3.489  26.355  0.00  0.00    -0.256 OA
BRANCH  18  20
ATOM     20  O   UNL     1       9.769  -5.747  25.683  0.00  0.00    -0.323 OA
ATOM     21  H   UNL     1      10.387  -5.793  26.441  0.00  0.00    +0.220 HD
ENDBRANCH  18  20
BRANCH  18  22
ATOM     22  O   UNL     1       8.019  -5.767  27.403  0.00  0.00    -0.323 OA
ATOM     23  H   UNL     1       7.590  -5.192  28.071  0.00  0.00    +0.220 HD
ENDBRANCH  18  22
ENDBRANCH  17  18
ENDBRANCH  16  17
ENDBRANCH  15  16
ENDBRANCH  13  15
ENDBRANCH   1  13
TORSDOF 8
ENDMDL
MODEL 3
REMARK VINA RESULT:      -6.0      2.094      2.944
REMARK  Name = 
REMARK  9 active torsions:
REMARK  status: ('A' for Active; 'I' for Inactive)
REMARK    1  A    between atoms: C_1  and  C_2
REMARK    2  A    between atoms: C_2  and  C_4
REMARK    3  A    between atoms: C_2  and  O_15
REMARK    4  A    between atoms: C_4  and  N_5
REMARK    5  A    between atoms: C_9  and  N_14
REMARK    6  A    between atoms: O_15  and  C_16
REMARK    7  A    between atoms: C_16  and  P_17
REMARK    8  A    between atoms: P_17  and  O_19
REMARK    9  A    between atoms: P_17  and  O_20
REMARK                            x       y       z     vdW  Elec       q    Type
REMARK                         _______ _______ _______ _____ _____    ______ ____
ROOT
ATOM      1  N   UNL     1       9.288  -2.082  23.303  0.00  0.00    -0.312 N 
ATOM      2  C   UNL     1       9.780  -0.847  23.642  0.00  0.00    +0.165 A 
ATOM      3  C   UNL     1       9.602  -0.073  22.502  0.00  0.00    +0.147 A 
ATOM      4  C   UNL     1      10.013   1.263  22.569  0.00  0.00    +0.147 A 
ATOM      5  N   UNL     1      10.594   1.707  23.708  0.00  0.00    -0.219 NA
ATOM      6  C   UNL     1      10.711   0.840  24.739  0.00  0.00    +0.225 A 
ATOM      7  N   UNL     1       9.055  -0.816  21.483  0.00  0.00    -0.231 NA
ATOM      8  N   UNL     1      10.328  -0.455  24.802  0.00  0.00    -0.216 NA
ATOM      9  C   UNL     1       8.898  -2.017  21.993  0.00  0.00    +0.201 A 
ENDROOT
BRANCH   4  10
ATOM     10  N   UNL     1       9.877   2.142  21.499  0.00  0.00    -0.341 N 
ATOM     11  H   UNL     1      10.213   3.069  21.720  0.00  0.00    +0.144 HD
ATOM     12  H   UNL     1      10.168   1.734  20.617  0.00  0.00    +0.144 HD
ENDBRANCH   4  10
BRANCH   1  13
ATOM     13  C   UNL     1       9.272  -3.228  24.192  0.00  0.00    +0.156 C 
BRANCH  13  15
ATOM     14  C   UNL     1       7.896  -2.660  26.253  0.00  0.00    +0.040 C 
ATOM     15  C   UNL     1       7.967  -3.502  24.977  0.00  0.00    +0.136 C 
BRANCH  15  16
ATOM     16  O   UNL     1       6.760  -3.322  24.202  0.00  0.00    -0.363 OA
BRANCH  16  17
ATOM     17  C   UNL     1       6.076  -4.575  23.959  0.00  0.00    +0.286 C 
BRANCH  17  18
ATOM     18  P   UNL     1       6.082  -4.960  22.201  0.00  0.00    +0.353 P 
ATOM     19  O   UNL     1       7.384  -5.437  21.651  0.00  0.00    -0.256 OA
BRANCH  18  20
ATOM     20  O   UNL     1       5.506  -3.684  21.419  0.00  0.00    -0.323 OA
ATOM     21  H   UNL     1       5.781  -3.716  20.480  0.00  0.00    +0.220 HD
ENDBRANCH  18  20
BRANCH  18  22
ATOM     22  O   UNL     1       4.861  -5.982  21.989  0.00  0.00    -0.323 OA
ATOM     23  H   UNL     1       4.477  -6.266  22.845  0.00  0.00    +0.220 HD
ENDBRANCH  18  22
ENDBRANCH  17  18
ENDBRANCH  16  17
ENDBRANCH  15  16
ENDBRANCH  13  15
ENDBRANCH   1  13
TORSDOF 8
ENDMDL
MODEL 4
REMARK VINA RESULT:      -6.0      4.310      6.601
REMARK  Name = 
REMARK  9 active torsions:
REMARK  status: ('A' for Active; 'I' for Inactive)
REMARK    1  A    between atoms: C_1  and  C_2
REMARK    2  A    between atoms: C_2  and  C_4
REMARK    3  A    between atoms: C_2  and  O_15
REMARK    4  A    between atoms: C_4  and  N_5
REMARK    5  A    between atoms: C_9  and  N_14
REMARK    6  A    between atoms: O_15  and  C_16
REMARK    7  A    between atoms: C_16  and  P_17
REMARK    8  A    between atoms: P_17  and  O_19
REMARK    9  A    between atoms: P_17  and  O_20
REMARK                            x       y       z     vdW  Elec       q    Type
REMARK                         _______ _______ _______ _____ _____    ______ ____
ROOT
ATOM      1  N   UNL     1       8.455  -2.927  24.096  0.00  0.00    -0.312 N 
ATOM      2  C   UNL     1       7.423  -3.223  23.242  0.00  0.00    +0.165 A 
ATOM      3  C   UNL     1       7.426  -4.610  23.155  0.00  0.00    +0.147 A 
ATOM      4  C   UNL     1       6.450  -5.198  22.343  0.00  0.00    +0.147 A 
ATOM      5  N   UNL     1       5.600  -4.394  21.663  0.00  0.00    -0.219 NA
ATOM      6  C   UNL     1       5.717  -3.059  21.835  0.00  0.00    +0.225 A 
ATOM      7  N   UNL     1       8.449  -5.147  23.900  0.00  0.00    -0.231 NA
ATOM      8  N   UNL     1       6.593  -2.379  22.609  0.00  0.00    -0.216 NA
ATOM      9  C   UNL     1       9.054  -4.110  24.433  0.00  0.00    +0.201 A 
ENDROOT
BRANCH   4  10
ATOM     10  N   UNL     1       6.342  -6.577  22.184  0.00  0.00    -0.341 N 
ATOM     11  H   UNL     1       5.835  -7.010  22.944  0.00  0.00    +0.144 HD
ATOM     12  H   UNL     1       6.091  -6.844  21.238  0.00  0.00    +0.144 HD
ENDBRANCH   4  10
BRANCH   1  13
ATOM     13  C   UNL     1       8.837  -1.582  24.482  0.00  0.00    +0.156 C 
BRANCH  13  15
ATOM     14  C   UNL     1      10.207  -1.430  22.346  0.00  0.00    +0.040 C 
ATOM     15  C   UNL     1      10.085  -0.973  23.802  0.00  0.00    +0.136 C 
BRANCH  15  16
ATOM     16  O   UNL     1      10.154   0.469  23.871  0.00  0.00    -0.363 OA
BRANCH  16  17
ATOM     17  C   UNL     1       8.847   1.084  23.771  0.00  0.00    +0.286 C 
BRANCH  17  18
ATOM     18  P   UNL     1       8.770   2.160  22.331  0.00  0.00    +0.353 P 
ATOM     19  O   UNL     1       7.613   1.932  21.417  0.00  0.00    -0.256 OA
BRANCH  18  20
ATOM     20  O   UNL     1      10.183   2.072  21.578  0.00  0.00    -0.323 OA
ATOM     21  H   UNL     1      10.489   1.143  21.548  0.00  0.00    +0.220 HD
ENDBRANCH  18  20
BRANCH  18  22
ATOM     22  O   UNL     1       8.866   3.654  22.915  0.00  0.00    -0.323 OA
ATOM     23  H   UNL     1       9.431   4.224  22.353  0.00  0.00    +0.220 HD
ENDBRANCH  18  22
ENDBRANCH  17  18
ENDBRANCH  16  17
ENDBRANCH  15  16
ENDBRANCH  13  15
ENDBRANCH   1  13
TORSDOF 8
ENDMDL
MODEL 5
REMARK VINA RESULT:      -6.0      1.634      2.184
REMARK  Name = 
REMARK  9 active torsions:
REMARK  status: ('A' for Active; 'I' for Inactive)
REMARK    1  A    between atoms: C_1  and  C_2
REMARK    2  A    between atoms: C_2  and  C_4
REMARK    3  A    between atoms: C_2  and  O_15
REMARK    4  A    between atoms: C_4  and  N_5
REMARK    5  A    between atoms: C_9  and  N_14
REMARK    6  A    between atoms: O_15  and  C_16
REMARK    7  A    between atoms: C_16  and  P_17
REMARK    8  A    between atoms: P_17  and  O_19
REMARK    9  A    between atoms: P_17  and  O_20
REMARK                            x       y       z     vdW  Elec       q    Type
REMARK                         _______ _______ _______ _____ _____    ______ ____
ROOT
ATOM      1  N   UNL     1       7.823  -2.237  22.710  0.00  0.00    -0.312 N 
ATOM      2  C   UNL     1       7.778  -1.527  23.883  0.00  0.00    +0.165 A 
ATOM      3  C   UNL     1       9.018  -0.906  23.965  0.00  0.00    +0.147 A 
ATOM      4  C   UNL     1       9.249  -0.091  25.080  0.00  0.00    +0.147 A 
ATOM      5  N   UNL     1       8.283   0.008  26.022  0.00  0.00    -0.219 NA
ATOM      6  C   UNL     1       7.126  -0.660  25.816  0.00  0.00    +0.225 A 
ATOM      7  N   UNL     1       9.814  -1.252  22.898  0.00  0.00    -0.231 NA
ATOM      8  N   UNL     1       6.778  -1.448  24.774  0.00  0.00    -0.216 NA
ATOM      9  C   UNL     1       9.073  -2.064  22.179  0.00  0.00    +0.201 A 
ENDROOT
BRANCH   4  10
ATOM     10  N   UNL     1      10.445   0.594  25.269  0.00  0.00    -0.341 N 
ATOM     11  H   UNL     1      10.841   0.921  24.398  0.00  0.00    +0.144 HD
ATOM     12  H   UNL     1      10.403   1.249  26.043  0.00  0.00    +0.144 HD
ENDBRANCH   4  10
BRANCH   1  13
ATOM     13  C   UNL     1       6.738  -3.058  22.207  0.00  0.00    +0.156 C 
BRANCH  13  15
ATOM     14  C   UNL     1       6.755  -5.488  21.461  0.00  0.00    +0.040 C 
ATOM     15  C   UNL     1       6.696  -4.537  22.658  0.00  0.00    +0.136 C 
BRANCH  15  16
ATOM     16  O   UNL     1       7.715  -4.893  23.619  0.00  0.00    -0.363 OA
BRANCH  16  17
ATOM     17  C   UNL     1       7.169  -5.093  24.946  0.00  0.00    +0.286 C 
BRANCH  17  18
ATOM     18  P   UNL     1       8.471  -4.975  26.182  0.00  0.00    +0.353 P 
ATOM     19  O   UNL     1       8.892  -3.590  26.544  0.00  0.00    -0.256 OA
BRANCH  18  20
ATOM     20  O   UNL     1       9.694  -5.889  25.694  0.00  0.00    -0.323 OA
ATOM     21  H   UNL     1       9.467  -6.328  24.850  0.00  0.00    +0.220 HD
ENDBRANCH  18  20
BRANCH  18  22
ATOM     22  O   UNL     1       7.954  -5.854  27.424  0.00  0.00    -0.323 OA
ATOM     23  H   UNL     1       7.738  -5.293  28.197  0.00  0.00    +0.220 HD
ENDBRANCH  18  22
ENDBRANCH  17  18
ENDBRANCH  16  17
ENDBRANCH  15  16
ENDBRANCH  13  15
ENDBRANCH   1  13
TORSDOF 8
ENDMDL
MODEL 6
REMARK VINA RESULT:      -5.9      4.412      6.631
REMARK  Name = 
REMARK  9 active torsions:
REMARK  status: ('A' for Active; 'I' for Inactive)
REMARK    1  A    between atoms: C_1  and  C_2
REMARK    2  A    between atoms: C_2  and  C_4
REMARK    3  A    between atoms: C_2  and  O_15
REMARK    4  A    between atoms: C_4  and  N_5
REMARK    5  A    between atoms: C_9  and  N_14
REMARK    6  A    between atoms: O_15  and  C_16
REMARK    7  A    between atoms: C_16  and  P_17
REMARK    8  A    between atoms: P_17  and  O_19
REMARK    9  A    between atoms: P_17  and  O_20
REMARK                            x       y       z     vdW  Elec       q    Type
REMARK                         _______ _______ _______ _____ _____    ______ ____
ROOT
ATOM      1  N   UNL     1       5.311  -5.411  24.421  0.00  0.00    -0.312 N 
ATOM      2  C   UNL     1       6.026  -5.475  25.590  0.00  0.00    +0.165 A 
ATOM      3  C   UNL     1       5.311  -6.355  26.393  0.00  0.00    +0.147 A 
ATOM      4  C   UNL     1       5.829  -6.621  27.665  0.00  0.00    +0.147 A 
ATOM      5  N   UNL     1       6.956  -5.980  28.053  0.00  0.00    -0.219 NA
ATOM      6  C   UNL     1       7.544  -5.141  27.171  0.00  0.00    +0.225 A 
ATOM      7  N   UNL     1       4.173  -6.789  25.754  0.00  0.00    -0.231 NA
ATOM      8  N   UNL     1       7.157  -4.829  25.914  0.00  0.00    -0.216 NA
ATOM      9  C   UNL     1       4.197  -6.189  24.585  0.00  0.00    +0.201 A 
ENDROOT
BRANCH   4  10
ATOM     10  N   UNL     1       5.212  -7.494  28.556  0.00  0.00    -0.341 N 
ATOM     11  H   UNL     1       4.221  -7.313  28.643  0.00  0.00    +0.144 HD
ATOM     12  H   UNL     1       5.507  -8.456  28.429  0.00  0.00    +0.144 HD
ENDBRANCH   4  10
BRANCH   1  13
ATOM     13  C   UNL     1       5.680  -4.598  23.278  0.00  0.00    +0.156 C 
BRANCH  13  15
ATOM     14  C   UNL     1       6.472  -5.696  21.126  0.00  0.00    +0.040 C 
ATOM     15  C   UNL     1       6.902  -5.053  22.446  0.00  0.00    +0.136 C 
BRANCH  15  16
ATOM     16  O   UNL     1       7.869  -4.009  22.191  0.00  0.00    -0.363 OA
BRANCH  16  17
ATOM     17  C   UNL     1       7.738  -2.905  23.120  0.00  0.00    +0.286 C 
BRANCH  17  18
ATOM     18  P   UNL     1       9.323  -2.548  23.894  0.00  0.00    +0.353 P 
ATOM     19  O   UNL     1       9.323  -1.420  24.870  0.00  0.00    -0.256 OA
BRANCH  18  20
ATOM     20  O   UNL     1      10.406  -2.358  22.726  0.00  0.00    -0.323 OA
ATOM     21  H   UNL     1      10.054  -2.710  21.883  0.00  0.00    +0.220 HD
ENDBRANCH  18  20
BRANCH  18  22
ATOM     22  O   UNL     1       9.821  -3.949  24.501  0.00  0.00    -0.323 OA
ATOM     23  H   UNL     1       9.103  -4.615  24.505  0.00  0.00    +0.220 HD
ENDBRANCH  18  22
ENDBRANCH  17  18
ENDBRANCH  16  17
ENDBRANCH  15  16
ENDBRANCH  13  15
ENDBRANCH   1  13
TORSDOF 8
ENDMDL
MODEL 7
REMARK VINA RESULT:      -5.8      2.426      3.252
REMARK  Name = 
REMARK  9 active torsions:
REMARK  status: ('A' for Active; 'I' for Inactive)
REMARK    1  A    between atoms: C_1  and  C_2
REMARK    2  A    between atoms: C_2  and  C_4
REMARK    3  A    between atoms: C_2  and  O_15
REMARK    4  A    between atoms: C_4  and  N_5
REMARK    5  A    between atoms: C_9  and  N_14
REMARK    6  A    between atoms: O_15  and  C_16
REMARK    7  A    between atoms: C_16  and  P_17
REMARK    8  A    between atoms: P_17  and  O_19
REMARK    9  A    between atoms: P_17  and  O_20
REMARK                            x       y       z     vdW  Elec       q    Type
REMARK                         _______ _______ _______ _____ _____    ______ ____
ROOT
ATOM      1  N   UNL     1       9.346  -1.988  23.216  0.00  0.00    -0.312 N 
ATOM      2  C   UNL     1       9.825  -0.761  23.598  0.00  0.00    +0.165 A 
ATOM      3  C   UNL     1       9.692   0.036  22.468  0.00  0.00    +0.147 A 
ATOM      4  C   UNL     1      10.102   1.369  22.578  0.00  0.00    +0.147 A 
ATOM      5  N   UNL     1      10.638   1.789  23.747  0.00  0.00    -0.219 NA
ATOM      6  C   UNL     1      10.715   0.902  24.764  0.00  0.00    +0.225 A 
ATOM      7  N   UNL     1       9.184  -0.687  21.414  0.00  0.00    -0.231 NA
ATOM      8  N   UNL     1      10.329  -0.394  24.786  0.00  0.00    -0.216 NA
ATOM      9  C   UNL     1       9.006  -1.897  21.893  0.00  0.00    +0.201 A 
ENDROOT
BRANCH   4  10
ATOM     10  N   UNL     1      10.007   2.270  21.521  0.00  0.00    -0.341 N 
ATOM     11  H   UNL     1      10.594   3.082  21.657  0.00  0.00    +0.144 HD
ATOM     12  H   UNL     1      10.036   1.814  20.614  0.00  0.00    +0.144 HD
ENDBRANCH   4  10
BRANCH   1  13
ATOM     13  C   UNL     1       9.294  -3.152  24.080  0.00  0.00    +0.156 C 
BRANCH  13  15
ATOM     14  C   UNL     1       8.245  -3.040  26.394  0.00  0.00    +0.040 C 
ATOM     15  C   UNL     1       8.010  -3.362  24.916  0.00  0.00    +0.136 C 
BRANCH  15  16
ATOM     16  O   UNL     1       6.861  -2.630  24.432  0.00  0.00    -0.363 OA
BRANCH  16  17
ATOM     17  C   UNL     1       6.248  -1.826  25.469  0.00  0.00    +0.286 C 
BRANCH  17  18
ATOM     18  P   UNL     1       6.030  -0.133  24.901  0.00  0.00    +0.353 P 
ATOM     19  O   UNL     1       4.758   0.527  25.317  0.00  0.00    -0.256 OA
BRANCH  18  20
ATOM     20  O   UNL     1       6.247  -0.118  23.312  0.00  0.00    -0.323 OA
ATOM     21  H   UNL     1       6.523  -1.005  23.004  0.00  0.00    +0.220 HD
ENDBRANCH  18  20
BRANCH  18  22
ATOM     22  O   UNL     1       7.359   0.641  25.363  0.00  0.00    -0.323 OA
ATOM     23  H   UNL     1       7.379   1.559  25.019  0.00  0.00    +0.220 HD
ENDBRANCH  18  22
ENDBRANCH  17  18
ENDBRANCH  16  17
ENDBRANCH  15  16
ENDBRANCH  13  15
ENDBRANCH   1  13
TORSDOF 8
ENDMDL
MODEL 8
REMARK VINA RESULT:      -5.6      1.508      2.493
REMARK  Name = 
REMARK  9 active torsions:
REMARK  status: ('A' for Active; 'I' for Inactive)
REMARK    1  A    between atoms: C_1  and  C_2
REMARK    2  A    between atoms: C_2  and  C_4
REMARK    3  A    between atoms: C_2  and  O_15
REMARK    4  A    between atoms: C_4  and  N_5
REMARK    5  A    between atoms: C_9  and  N_14
REMARK    6  A    between atoms: O_15  and  C_16
REMARK    7  A    between atoms: C_16  and  P_17
REMARK    8  A    between atoms: P_17  and  O_19
REMARK    9  A    between atoms: P_17  and  O_20
REMARK                            x       y       z     vdW  Elec       q    Type
REMARK                         _______ _______ _______ _____ _____    ______ ____
ROOT
ATOM      1  N   UNL     1       9.439  -1.266  24.186  0.00  0.00    -0.312 N 
ATOM      2  C   UNL     1       9.353  -0.213  23.310  0.00  0.00    +0.165 A 
ATOM      3  C   UNL     1       9.103   0.892  24.114  0.00  0.00    +0.147 A 
ATOM      4  C   UNL     1       8.979   2.130  23.472  0.00  0.00    +0.147 A 
ATOM      5  N   UNL     1       9.064   2.172  22.123  0.00  0.00    -0.219 NA
ATOM      6  C   UNL     1       9.302   1.016  21.466  0.00  0.00    +0.225 A 
ATOM      7  N   UNL     1       8.999   0.526  25.436  0.00  0.00    -0.231 NA
ATOM      8  N   UNL     1       9.468  -0.227  21.974  0.00  0.00    -0.216 NA
ATOM      9  C   UNL     1       9.187  -0.773  25.438  0.00  0.00    +0.201 A 
ENDROOT
BRANCH   4  10
ATOM     10  N   UNL     1       8.741   3.311  24.168  0.00  0.00    -0.341 N 
ATOM     11  H   UNL     1       8.237   3.988  23.611  0.00  0.00    +0.144 HD
ATOM     12  H   UNL     1       8.420   3.150  25.117  0.00  0.00    +0.144 HD
ENDBRANCH   4  10
BRANCH   1  13
ATOM     13  C   UNL     1       9.686  -2.640  23.792  0.00  0.00    +0.156 C 
BRANCH  13  15
ATOM     14  C   UNL     1       7.694  -3.567  22.513  0.00  0.00    +0.040 C 
ATOM     15  C   UNL     1       8.487  -3.616  23.821  0.00  0.00    +0.136 C 
BRANCH  15  16
ATOM     16  O   UNL     1       8.841  -4.983  24.129  0.00  0.00    -0.363 OA
BRANCH  16  17
ATOM     17  C   UNL     1       9.037  -5.190  25.549  0.00  0.00    +0.286 C 
BRANCH  17  18
ATOM     18  P   UNL     1       7.454  -5.182  26.406  0.00  0.00    +0.353 P 
ATOM     19  O   UNL     1       6.284  -5.638  25.601  0.00  0.00    -0.256 OA
BRANCH  18  20
ATOM     20  O   UNL     1       7.245  -3.721  27.035  0.00  0.00    -0.323 OA
ATOM     21  H   UNL     1       6.898  -3.796  27.946  0.00  0.00    +0.220 HD
ENDBRANCH  18  20
BRANCH  18  22
ATOM     22  O   UNL     1       7.700  -6.024  27.752  0.00  0.00    -0.323 OA
ATOM     23  H   UNL     1       7.012  -6.711  27.877  0.00  0.00    +0.220 HD
ENDBRANCH  18  22
ENDBRANCH  17  18
ENDBRANCH  16  17
ENDBRANCH  15  16
ENDBRANCH  13  15
ENDBRANCH   1  13
TORSDOF 8
ENDMDL
MODEL 9
REMARK VINA RESULT:      -5.6      2.240      3.083
REMARK  Name = 
REMARK  9 active torsions:
REMARK  status: ('A' for Active; 'I' for Inactive)
REMARK    1  A    between atoms: C_1  and  C_2
REMARK    2  A    between atoms: C_2  and  C_4
REMARK    3  A    between atoms: C_2  and  O_15
REMARK    4  A    between atoms: C_4  and  N_5
REMARK    5  A    between atoms: C_9  and  N_14
REMARK    6  A    between atoms: O_15  and  C_16
REMARK    7  A    between atoms: C_16  and  P_17
REMARK    8  A    between atoms: P_17  and  O_19
REMARK    9  A    between atoms: P_17  and  O_20
REMARK                            x       y       z     vdW  Elec       q    Type
REMARK                         _______ _______ _______ _____ _____    ______ ____
ROOT
ATOM      1  N   UNL     1       9.109   0.395  25.070  0.00  0.00    -0.312 N 
ATOM      2  C   UNL     1       8.953   1.734  24.814  0.00  0.00    +0.165 A 
ATOM      3  C   UNL     1      10.088   2.090  24.097  0.00  0.00    +0.147 A 
ATOM      4  C   UNL     1      10.190   3.424  23.687  0.00  0.00    +0.147 A 
ATOM      5  N   UNL     1       9.212   4.289  24.045  0.00  0.00    -0.219 NA
ATOM      6  C   UNL     1       8.166   3.806  24.752  0.00  0.00    +0.225 A 
ATOM      7  N   UNL     1      10.934   1.016  23.950  0.00  0.00    -0.231 NA
ATOM      8  N   UNL     1       7.945   2.542  25.178  0.00  0.00    -0.216 NA
ATOM      9  C   UNL     1      10.325   0.025  24.560  0.00  0.00    +0.201 A 
ENDROOT
BRANCH   4  10
ATOM     10  N   UNL     1      11.272   3.900  22.953  0.00  0.00    -0.341 N 
ATOM     11  H   UNL     1      11.020   4.116  21.998  0.00  0.00    +0.144 HD
ATOM     12  H   UNL     1      11.820   4.585  23.463  0.00  0.00    +0.144 HD
ENDBRANCH   4  10
BRANCH   1  13
ATOM     13  C   UNL     1       8.159  -0.414  25.809  0.00  0.00    +0.156 C 
BRANCH  13  15
ATOM     14  C   UNL     1       6.577  -0.736  23.844  0.00  0.00    +0.040 C 
ATOM     15  C   UNL     1       7.304  -1.421  25.003  0.00  0.00    +0.136 C 
BRANCH  15  16
ATOM     16  O   UNL     1       8.040  -2.565  24.514  0.00  0.00    -0.363 OA
BRANCH  16  17
ATOM     17  C   UNL     1       8.701  -3.287  25.582  0.00  0.00    +0.286 C 
BRANCH  17  18
ATOM     18  P   UNL     1       8.949  -5.007  25.115  0.00  0.00    +0.353 P 
ATOM     19  O   UNL     1       8.361  -5.410  23.804  0.00  0.00    -0.256 OA
BRANCH  18  20
ATOM     20  O   UNL     1       8.441  -5.921  26.331  0.00  0.00    -0.323 OA
ATOM     21  H   UNL     1       8.234  -5.362  27.106  0.00  0.00    +0.220 HD
ENDBRANCH  18  20
BRANCH  18  22
ATOM     22  O   UNL     1      10.532  -5.252  25.234  0.00  0.00    -0.323 OA
ATOM     23  H   UNL     1      10.948  -4.621  25.857  0.00  0.00    +0.220 HD
ENDBRANCH  18  22
ENDBRANCH  17  18
ENDBRANCH  16  17
ENDBRANCH  15  16
ENDBRANCH  13  15
ENDBRANCH   1  13
TORSDOF 8
ENDMDL
