MODEL 1
REMARK VINA RESULT:      -6.2      0.000      0.000
REMARK  Name = 
REMARK  10 active torsions:
REMARK  status: ('A' for Active; 'I' for Inactive)
REMARK    1  A    between atoms: C_1  and  C_2
REMARK    2  A    between atoms: N_4  and  C_5
REMARK    3  A    between atoms: C_7  and  N_23
REMARK    4  A    between atoms: C_10  and  C_20
REMARK    5  A    between atoms: C_12  and  C_14
REMARK    6  A    between atoms: C_14  and  C_16
REMARK    7  A    between atoms: C_16  and  C_17
REMARK    8  A    between atoms: C_16  and  O_19
REMARK    9  A    between atoms: C_17  and  O_18
REMARK   10  A    between atoms: C_20  and  O_22
REMARK                            x       y       z     vdW  Elec       q    Type
REMARK                         _______ _______ _______ _____ _____    ______ ____
ROOT
ATOM      1  C   UNL     1       7.680  -2.342  23.844  0.00  0.00    +0.149 C 
ATOM      2  C   UNL     1       7.551  -3.846  23.470  0.00  0.00    +0.211 C 
ATOM      3  O   UNL     1       7.158  -4.725  24.528  0.00  0.00    -0.353 OA
ATOM      4  C   UNL     1       7.814  -4.513  25.779  0.00  0.00    +0.231 C 
ATOM      5  C   UNL     1       7.543  -3.103  26.267  0.00  0.00    +0.089 C 
ATOM      6  C   UNL     1       8.135  -2.080  25.303  0.00  0.00    +0.214 C 
ENDROOT
BRANCH   6   7
ATOM      7  N   UNL     1       7.656  -0.750  25.714  0.00  0.00    -0.108 NA
ATOM      8  C   UNL     1       8.488   0.208  25.870  0.00  0.00    +0.377 C 
ATOM      9  N   UNL     1       8.055   1.422  26.282  0.00  0.00    -0.289 N 
ATOM     10  H   UNL     1       8.667   1.841  26.969  0.00  0.00    +0.255 HD
ATOM     11  H   UNL     1       7.104   1.361  26.630  0.00  0.00    +0.255 HD
ATOM     12  N   UNL     1       9.833   0.240  25.741  0.00  0.00    -0.289 N 
ATOM     13  H   UNL     1      10.161   1.098  25.312  0.00  0.00    +0.255 HD
ATOM     14  H   UNL     1      10.255  -0.562  25.289  0.00  0.00    +0.255 HD
ENDBRANCH   6   7
BRANCH   1  17
ATOM     15  C   UNL     1       9.272   0.178  21.451  0.00  0.00    +0.109 C 
ATOM     16  C   UNL     1       8.226  -0.412  22.351  0.00  0.00    +0.210 C 
ATOM     17  N   UNL     1       8.546  -1.644  22.872  0.00  0.00    -0.306 N 
ATOM     18  H   UNL     1       9.500  -1.980  22.789  0.00  0.00    +0.149 HD
ATOM     19  O   UNL     1       7.174   0.168  22.601  0.00  0.00    -0.276 OA
ENDBRANCH   1  17
BRANCH   2  20
ATOM     20  C   UNL     1       6.543  -3.974  22.304  0.00  0.00    +0.194 C 
ATOM     21  O   UNL     1       6.100  -3.001  21.680  0.00  0.00    -0.292 OA
BRANCH  20  22
ATOM     22  C   UNL     1       6.167  -5.376  21.848  0.00  0.00    +0.208 C 
BRANCH  22  23
ATOM     23  O   UNL     1       5.948  -5.387  20.430  0.00  0.00    -0.382 OA
ATOM     24  H   UNL     1       6.037  -6.322  20.147  0.00  0.00    +0.210 HD
ENDBRANCH  22  23
BRANCH  22  25
ATOM     25  C   UNL     1       4.879  -5.834  22.528  0.00  0.00    +0.195 C 
BRANCH  25  26
ATOM     26  O   UNL     1       4.003  -4.718  22.709  0.00  0.00    -0.392 OA
ATOM     27  H   UNL     1       3.131  -5.083  22.959  0.00  0.00    +0.210 HD
ENDBRANCH  25  26
ENDBRANCH  22  25
ENDBRANCH  20  22
ENDBRANCH   2  20
BRANCH   4  28
ATOM     28  C   UNL     1       9.312  -4.882  25.858  0.00  0.00    +0.334 C 
ATOM     29  O   UNL     1      10.026  -5.123  24.895  0.00  0.00    -0.248 OA
BRANCH  28  30
ATOM     30  O   UNL     1       9.783  -4.841  27.128  0.00  0.00    -0.479 OA
ATOM     31  H   UNL     1       9.322  -5.482  27.704  0.00  0.00    +0.295 HD
ENDBRANCH  28  30
ENDBRANCH   4  28
TORSDOF 9
ENDMDL
MODEL 2
REMARK VINA RESULT:      -6.2      2.216      4.645
REMARK  Name = 
REMARK  10 active torsions:
REMARK  status: ('A' for Active; 'I' for Inactive)
REMARK    1  A    between atoms: C_1  and  C_2
REMARK    2  A    between atoms: N_4  and  C_5
REMARK    3  A    between atoms: C_7  and  N_23
REMARK    4  A    between atoms: C_10  and  C_20
REMARK    5  A    between atoms: C_12  and  C_14
REMARK    6  A    between atoms: C_14  and  C_16
REMARK    7  A    between atoms: C_16  and  C_17
REMARK    8  A    between atoms: C_16  and  O_19
REMARK    9  A    between atoms: C_17  and  O_18
REMARK   10  A    between atoms: C_20  and  O_22
REMARK                            x       y       z     vdW  Elec       q    Type
REMARK                         _______ _______ _______ _____ _____    ______ ____
ROOT
ATOM      1  C   UNL     1       7.383  -2.352  24.167  0.00  0.00    +0.149 C 
ATOM      2  C   UNL     1       8.684  -3.007  23.623  0.00  0.00    +0.211 C 
ATOM      3  O   UNL     1       9.891  -2.267  23.822  0.00  0.00    -0.353 OA
ATOM      4  C   UNL     1       9.809  -0.869  23.543  0.00  0.00    +0.231 C 
ATOM      5  C   UNL     1       8.760  -0.229  24.432  0.00  0.00    +0.089 C 
ATOM      6  C   UNL     1       7.380  -0.801  24.127  0.00  0.00    +0.214 C 
ENDROOT
BRANCH   6   7
ATOM      7  N   UNL     1       6.453  -0.306  25.157  0.00  0.00    -0.108 NA
ATOM      8  C   UNL     1       5.689   0.687  24.905  0.00  0.00    +0.377 C 
ATOM      9  N   UNL     1       4.861   1.167  25.861  0.00  0.00    -0.289 N 
ATOM     10  H   UNL     1       4.835   2.178  25.883  0.00  0.00    +0.255 HD
ATOM     11  H   UNL     1       5.111   0.790  26.770  0.00  0.00    +0.255 HD
ATOM     12  N   UNL     1       5.566   1.448  23.794  0.00  0.00    -0.289 N 
ATOM     13  H   UNL     1       4.603   1.691  23.595  0.00  0.00    +0.255 HD
ATOM     14  H   UNL     1       6.019   1.093  22.961  0.00  0.00    +0.255 HD
ENDBRANCH   6   7
BRANCH   1  17
ATOM     15  C   UNL     1       4.150  -4.188  23.281  0.00  0.00    +0.109 C 
ATOM     16  C   UNL     1       5.344  -3.798  24.101  0.00  0.00    +0.210 C 
ATOM     17  N   UNL     1       6.200  -2.915  23.486  0.00  0.00    -0.306 N 
ATOM     18  H   UNL     1       5.896  -2.444  22.640  0.00  0.00    +0.149 HD
ATOM     19  O   UNL     1       5.532  -4.232  25.233  0.00  0.00    -0.276 OA
ENDBRANCH   1  17
BRANCH   2  20
ATOM     20  C   UNL     1       8.833  -4.405  24.268  0.00  0.00    +0.194 C 
ATOM     21  O   UNL     1       8.445  -5.447  23.726  0.00  0.00    -0.292 OA
BRANCH  20  22
ATOM     22  C   UNL     1       9.589  -4.495  25.585  0.00  0.00    +0.208 C 
BRANCH  22  23
ATOM     23  O   UNL     1      10.465  -5.632  25.569  0.00  0.00    -0.382 OA
ATOM     24  H   UNL     1       9.893  -6.420  25.679  0.00  0.00    +0.210 HD
ENDBRANCH  22  23
BRANCH  22  25
ATOM     25  C   UNL     1       8.618  -4.665  26.750  0.00  0.00    +0.195 C 
BRANCH  25  26
ATOM     26  O   UNL     1       7.913  -5.902  26.618  0.00  0.00    -0.392 OA
ATOM     27  H   UNL     1       8.528  -6.531  26.190  0.00  0.00    +0.210 HD
ENDBRANCH  25  26
ENDBRANCH  22  25
ENDBRANCH  20  22
ENDBRANCH   2  20
BRANCH   4  28
ATOM     28  C   UNL     1       9.652  -0.456  22.063  0.00  0.00    +0.334 C 
ATOM     29  O   UNL     1       9.298   0.650  21.678  0.00  0.00    -0.248 OA
BRANCH  28  30
ATOM     30  O   UNL     1      10.024  -1.444  21.213  0.00  0.00    -0.479 OA
ATOM     31  H   UNL     1      10.477  -2.172  21.684  0.00  0.00    +0.295 HD
ENDBRANCH  28  30
ENDBRANCH   4  28
TORSDOF 9
ENDMDL
MODEL 3
REMARK VINA RESULT:      -6.1      2.711      4.181
REMARK  Name = 
REMARK  10 active torsions:
REMARK  status: ('A' for Active; 'I' for Inactive)
REMARK    1  A    between atoms: C_1  and  C_2
REMARK    2  A    between atoms: N_4  and  C_5
REMARK    3  A    between atoms: C_7  and  N_23
REMARK    4  A    between atoms: C_10  and  C_20
REMARK    5  A    between atoms: C_12  and  C_14
REMARK    6  A    between atoms: C_14  and  C_16
REMARK    7  A    between atoms: C_16  and  C_17
REMARK    8  A    between atoms: C_16  and  O_19
REMARK    9  A    between atoms: C_17  and  O_18
REMARK   10  A    between atoms: C_20  and  O_22
REMARK                            x       y       z     vdW  Elec       q    Type
REMARK                         _______ _______ _______ _____ _____    ______ ____
ROOT
ATOM      1  C   UNL     1       6.125  -4.333  24.562  0.00  0.00    +0.149 C 
ATOM      2  C   UNL     1       6.532  -5.590  25.382  0.00  0.00    +0.211 C 
ATOM      3  O   UNL     1       7.367  -5.354  26.519  0.00  0.00    -0.353 OA
ATOM      4  C   UNL     1       8.450  -4.447  26.310  0.00  0.00    +0.231 C 
ATOM      5  C   UNL     1       7.911  -3.095  25.883  0.00  0.00    +0.089 C 
ATOM      6  C   UNL     1       7.189  -3.205  24.545  0.00  0.00    +0.214 C 
ENDROOT
BRANCH   6   7
ATOM      7  N   UNL     1       6.511  -1.922  24.296  0.00  0.00    -0.108 NA
ATOM      8  C   UNL     1       6.922  -1.153  23.362  0.00  0.00    +0.377 C 
ATOM      9  N   UNL     1       6.323   0.042  23.154  0.00  0.00    -0.289 N 
ATOM     10  H   UNL     1       6.987   0.783  22.966  0.00  0.00    +0.255 HD
ATOM     11  H   UNL     1       5.724   0.281  23.938  0.00  0.00    +0.255 HD
ATOM     12  N   UNL     1       7.954  -1.284  22.498  0.00  0.00    -0.289 N 
ATOM     13  H   UNL     1       7.724  -0.957  21.567  0.00  0.00    +0.255 HD
ATOM     14  H   UNL     1       8.380  -2.203  22.452  0.00  0.00    +0.255 HD
ENDBRANCH   6   7
BRANCH   1  17
ATOM     15  C   UNL     1       5.955  -5.772  21.024  0.00  0.00    +0.109 C 
ATOM     16  C   UNL     1       6.571  -5.383  22.336  0.00  0.00    +0.210 C 
ATOM     17  N   UNL     1       5.724  -4.720  23.194  0.00  0.00    -0.306 N 
ATOM     18  H   UNL     1       4.730  -4.707  22.991  0.00  0.00    +0.149 HD
ATOM     19  O   UNL     1       7.736  -5.644  22.617  0.00  0.00    -0.276 OA
ENDBRANCH   1  17
BRANCH   2  20
ATOM     20  C   UNL     1       5.244  -6.312  25.840  0.00  0.00    +0.194 C 
ATOM     21  O   UNL     1       4.547  -7.001  25.084  0.00  0.00    -0.292 OA
BRANCH  20  22
ATOM     22  C   UNL     1       4.885  -6.245  27.317  0.00  0.00    +0.208 C 
BRANCH  22  23
ATOM     23  O   UNL     1       5.421  -7.386  28.003  0.00  0.00    -0.382 OA
ATOM     24  H   UNL     1       6.190  -7.687  27.473  0.00  0.00    +0.210 HD
ENDBRANCH  22  23
BRANCH  22  25
ATOM     25  C   UNL     1       3.370  -6.251  27.503  0.00  0.00    +0.195 C 
BRANCH  25  26
ATOM     26  O   UNL     1       2.866  -7.578  27.330  0.00  0.00    -0.392 OA
ATOM     27  H   UNL     1       1.999  -7.610  27.781  0.00  0.00    +0.210 HD
ENDBRANCH  25  26
ENDBRANCH  22  25
ENDBRANCH  20  22
ENDBRANCH   2  20
BRANCH   4  28
ATOM     28  C   UNL     1       9.605  -4.928  25.404  0.00  0.00    +0.334 C 
ATOM     29  O   UNL     1      10.263  -4.208  24.666  0.00  0.00    -0.248 OA
BRANCH  28  30
ATOM     30  O   UNL     1       9.867  -6.248  25.566  0.00  0.00    -0.479 OA
ATOM     31  H   UNL     1       9.750  -6.744  24.732  0.00  0.00    +0.295 HD
ENDBRANCH  28  30
ENDBRANCH   4  28
TORSDOF 9
ENDMDL
MODEL 4
REMARK VINA RESULT:      -6.0      2.611      5.484
REMARK  Name = 
REMARK  10 active torsions:
REMARK  status: ('A' for Active; 'I' for Inactive)
REMARK    1  A    between atoms: C_1  and  C_2
REMARK    2  A    between atoms: N_4  and  C_5
REMARK    3  A    between atoms: C_7  and  N_23
REMARK    4  A    between atoms: C_10  and  C_20
REMARK    5  A    between atoms: C_12  and  C_14
REMARK    6  A    between atoms: C_14  and  C_16
REMARK    7  A    between atoms: C_16  and  C_17
REMARK    8  A    between atoms: C_16  and  O_19
REMARK    9  A    between atoms: C_17  and  O_18
REMARK   10  A    between atoms: C_20  and  O_22
REMARK                            x       y       z     vdW  Elec       q    Type
REMARK                         _______ _______ _______ _____ _____    ______ ____
ROOT
ATOM      1  C   UNL     1       8.508  -2.710  24.299  0.00  0.00    +0.149 C 
ATOM      2  C   UNL     1       8.516  -1.298  23.649  0.00  0.00    +0.211 C 
ATOM      3  O   UNL     1       8.317  -0.196  24.539  0.00  0.00    -0.353 OA
ATOM      4  C   UNL     1       7.277  -0.362  25.502  0.00  0.00    +0.231 C 
ATOM      5  C   UNL     1       7.571  -1.570  26.371  0.00  0.00    +0.089 C 
ATOM      6  C   UNL     1       7.577  -2.844  25.533  0.00  0.00    +0.214 C 
ENDROOT
BRANCH   6   7
ATOM      7  N   UNL     1       8.077  -3.936  26.383  0.00  0.00    -0.108 NA
ATOM      8  C   UNL     1       7.402  -5.015  26.499  0.00  0.00    +0.377 C 
ATOM      9  N   UNL     1       7.841  -6.007  27.308  0.00  0.00    -0.289 N 
ATOM     10  H   UNL     1       7.097  -6.427  27.850  0.00  0.00    +0.255 HD
ATOM     11  H   UNL     1       8.585  -5.671  27.911  0.00  0.00    +0.255 HD
ATOM     12  N   UNL     1       6.211  -5.375  25.969  0.00  0.00    -0.289 N 
ATOM     13  H   UNL     1       6.193  -6.346  25.681  0.00  0.00    +0.255 HD
ATOM     14  H   UNL     1       5.860  -4.782  25.226  0.00  0.00    +0.255 HD
ENDBRANCH   6   7
BRANCH   1  17
ATOM     15  C   UNL     1       6.843  -5.023  21.751  0.00  0.00    +0.109 C 
ATOM     16  C   UNL     1       6.934  -4.008  22.852  0.00  0.00    +0.210 C 
ATOM     17  N   UNL     1       8.212  -3.741  23.284  0.00  0.00    -0.306 N 
ATOM     18  H   UNL     1       8.997  -4.074  22.733  0.00  0.00    +0.149 HD
ATOM     19  O   UNL     1       5.942  -3.458  23.321  0.00  0.00    -0.276 OA
ENDBRANCH   1  17
BRANCH   2  20
ATOM     20  C   UNL     1       9.858  -1.112  22.903  0.00  0.00    +0.194 C 
ATOM     21  O   UNL     1      10.637  -2.044  22.667  0.00  0.00    -0.292 OA
BRANCH  20  22
ATOM     22  C   UNL     1      10.171   0.270  22.351  0.00  0.00    +0.208 C 
BRANCH  22  23
ATOM     23  O   UNL     1      10.348   1.200  23.430  0.00  0.00    -0.382 OA
ATOM     24  H   UNL     1       9.674   1.900  23.301  0.00  0.00    +0.210 HD
ENDBRANCH  22  23
BRANCH  22  25
ATOM     25  C   UNL     1       9.024   0.773  21.478  0.00  0.00    +0.195 C 
BRANCH  25  26
ATOM     26  O   UNL     1       9.076   2.198  21.383  0.00  0.00    -0.392 OA
ATOM     27  H   UNL     1       8.277   2.539  21.832  0.00  0.00    +0.210 HD
ENDBRANCH  25  26
ENDBRANCH  22  25
ENDBRANCH  20  22
ENDBRANCH   2  20
BRANCH   4  28
ATOM     28  C   UNL     1       5.824  -0.361  24.975  0.00  0.00    +0.334 C 
ATOM     29  O   UNL     1       4.872  -0.875  25.545  0.00  0.00    -0.248 OA
BRANCH  28  30
ATOM     30  O   UNL     1       5.697   0.344  23.825  0.00  0.00    -0.479 OA
ATOM     31  H   UNL     1       4.811   0.229  23.428  0.00  0.00    +0.295 HD
ENDBRANCH  28  30
ENDBRANCH   4  28
TORSDOF 9
ENDMDL
MODEL 5
REMARK VINA RESULT:      -6.0      5.210      8.559
REMARK  Name = 
REMARK  10 active torsions:
REMARK  status: ('A' for Active; 'I' for Inactive)
REMARK    1  A    between atoms: C_1  and  C_2
REMARK    2  A    between atoms: N_4  and  C_5
REMARK    3  A    between atoms: C_7  and  N_23
REMARK    4  A    between atoms: C_10  and  C_20
REMARK    5  A    between atoms: C_12  and  C_14
REMARK    6  A    between atoms: C_14  and  C_16
REMARK    7  A    between atoms: C_16  and  C_17
REMARK    8  A    between atoms: C_16  and  O_19
REMARK    9  A    between atoms: C_17  and  O_18
REMARK   10  A    between atoms: C_20  and  O_22
REMARK                            x       y       z     vdW  Elec       q    Type
REMARK                         _______ _______ _______ _____ _____    ______ ____
ROOT
ATOM      1  C   UNL     1       8.633   3.969  23.626  0.00  0.00    +0.149 C 
ATOM      2  C   UNL     1      10.181   3.852  23.716  0.00  0.00    +0.211 C 
ATOM      3  O   UNL     1      10.806   3.017  22.738  0.00  0.00    -0.353 OA
ATOM      4  C   UNL     1      10.163   1.765  22.496  0.00  0.00    +0.231 C 
ATOM      5  C   UNL     1       8.744   2.001  22.017  0.00  0.00    +0.089 C 
ATOM      6  C   UNL     1       7.922   2.695  23.099  0.00  0.00    +0.214 C 
ENDROOT
BRANCH   6   7
ATOM      7  N   UNL     1       6.636   3.086  22.501  0.00  0.00    -0.108 NA
ATOM      8  C   UNL     1       5.544   2.620  22.974  0.00  0.00    +0.377 C 
ATOM      9  N   UNL     1       4.361   2.950  22.405  0.00  0.00    -0.289 N 
ATOM     10  H   UNL     1       3.732   2.162  22.328  0.00  0.00    +0.255 HD
ATOM     11  H   UNL     1       4.512   3.385  21.500  0.00  0.00    +0.255 HD
ATOM     12  N   UNL     1       5.317   1.752  23.986  0.00  0.00    -0.289 N 
ATOM     13  H   UNL     1       4.509   2.006  24.542  0.00  0.00    +0.255 HD
ATOM     14  H   UNL     1       6.109   1.555  24.587  0.00  0.00    +0.255 HD
ENDBRANCH   6   7
BRANCH   1  17
ATOM     15  C   UNL     1       6.653   5.680  26.412  0.00  0.00    +0.109 C 
ATOM     16  C   UNL     1       7.179   5.445  25.027  0.00  0.00    +0.210 C 
ATOM     17  N   UNL     1       8.074   4.405  24.921  0.00  0.00    -0.306 N 
ATOM     18  H   UNL     1       8.173   3.761  25.699  0.00  0.00    +0.149 HD
ATOM     19  O   UNL     1       6.829   6.125  24.069  0.00  0.00    -0.276 OA
ENDBRANCH   1  17
BRANCH   2  20
ATOM     20  C   UNL     1      10.783   5.274  23.629  0.00  0.00    +0.194 C 
ATOM     21  O   UNL     1      10.109   6.282  23.380  0.00  0.00    -0.292 OA
BRANCH  20  22
ATOM     22  C   UNL     1      12.257   5.437  23.970  0.00  0.00    +0.208 C 
BRANCH  22  23
ATOM     23  O   UNL     1      12.465   6.677  24.661  0.00  0.00    -0.382 OA
ATOM     24  H   UNL     1      11.756   6.737  25.336  0.00  0.00    +0.210 HD
ENDBRANCH  22  23
BRANCH  22  25
ATOM     25  C   UNL     1      13.102   5.457  22.699  0.00  0.00    +0.195 C 
BRANCH  25  26
ATOM     26  O   UNL     1      14.456   5.120  23.011  0.00  0.00    -0.392 OA
ATOM     27  H   UNL     1      14.580   4.186  22.749  0.00  0.00    +0.210 HD
ENDBRANCH  25  26
ENDBRANCH  22  25
ENDBRANCH  20  22
ENDBRANCH   2  20
BRANCH   4  28
ATOM     28  C   UNL     1      10.232   0.710  23.624  0.00  0.00    +0.334 C 
ATOM     29  O   UNL     1      10.826   0.855  24.682  0.00  0.00    -0.248 OA
BRANCH  28  30
ATOM     30  O   UNL     1       9.490  -0.388  23.343  0.00  0.00    -0.479 OA
ATOM     31  H   UNL     1       8.571  -0.152  23.106  0.00  0.00    +0.295 HD
ENDBRANCH  28  30
ENDBRANCH   4  28
TORSDOF 9
ENDMDL
MODEL 6
REMARK VINA RESULT:      -5.9      1.989      4.724
REMARK  Name = 
REMARK  10 active torsions:
REMARK  status: ('A' for Active; 'I' for Inactive)
REMARK    1  A    between atoms: C_1  and  C_2
REMARK    2  A    between atoms: N_4  and  C_5
REMARK    3  A    between atoms: C_7  and  N_23
REMARK    4  A    between atoms: C_10  and  C_20
REMARK    5  A    between atoms: C_12  and  C_14
REMARK    6  A    between atoms: C_14  and  C_16
REMARK    7  A    between atoms: C_16  and  C_17
REMARK    8  A    between atoms: C_16  and  O_19
REMARK    9  A    between atoms: C_17  and  O_18
REMARK   10  A    between atoms: C_20  and  O_22
REMARK                            x       y       z     vdW  Elec       q    Type
REMARK                         _______ _______ _______ _____ _____    ______ ____
ROOT
ATOM      1  C   UNL     1       6.949  -2.250  24.691  0.00  0.00    +0.149 C 
ATOM      2  C   UNL     1       6.567  -3.748  24.863  0.00  0.00    +0.211 C 
ATOM      3  O   UNL     1       7.106  -4.649  23.892  0.00  0.00    -0.353 OA
ATOM      4  C   UNL     1       7.038  -4.206  22.536  0.00  0.00    +0.231 C 
ATOM      5  C   UNL     1       7.799  -2.903  22.383  0.00  0.00    +0.089 C 
ATOM      6  C   UNL     1       7.151  -1.804  23.219  0.00  0.00    +0.214 C 
ENDROOT
BRANCH   6   7
ATOM      7  N   UNL     1       8.050  -0.639  23.199  0.00  0.00    -0.108 NA
ATOM      8  C   UNL     1       7.582   0.524  22.949  0.00  0.00    +0.377 C 
ATOM      9  N   UNL     1       8.412   1.592  22.895  0.00  0.00    -0.289 N 
ATOM     10  H   UNL     1       8.196   2.216  22.128  0.00  0.00    +0.255 HD
ATOM     11  H   UNL     1       9.379   1.289  22.856  0.00  0.00    +0.255 HD
ATOM     12  N   UNL     1       6.326   0.928  22.654  0.00  0.00    -0.289 N 
ATOM     13  H   UNL     1       6.089   1.810  23.092  0.00  0.00    +0.255 HD
ATOM     14  H   UNL     1       5.593   0.248  22.815  0.00  0.00    +0.255 HD
ENDBRANCH   6   7
BRANCH   1  17
ATOM     15  C   UNL     1       5.233   0.384  26.865  0.00  0.00    +0.109 C 
ATOM     16  C   UNL     1       6.353  -0.461  26.332  0.00  0.00    +0.210 C 
ATOM     17  N   UNL     1       5.975  -1.388  25.390  0.00  0.00    -0.306 N 
ATOM     18  H   UNL     1       5.049  -1.323  24.979  0.00  0.00    +0.149 HD
ATOM     19  O   UNL     1       7.513  -0.324  26.708  0.00  0.00    -0.276 OA
ENDBRANCH   1  17
BRANCH   2  20
ATOM     20  C   UNL     1       7.003  -4.203  26.274  0.00  0.00    +0.194 C 
ATOM     21  O   UNL     1       6.528  -3.732  27.316  0.00  0.00    -0.292 OA
BRANCH  20  22
ATOM     22  C   UNL     1       7.989  -5.358  26.369  0.00  0.00    +0.208 C 
BRANCH  22  23
ATOM     23  O   UNL     1       7.868  -6.001  27.647  0.00  0.00    -0.382 OA
ATOM     24  H   UNL     1       8.184  -5.352  28.311  0.00  0.00    +0.210 HD
ENDBRANCH  22  23
BRANCH  22  25
ATOM     25  C   UNL     1       9.423  -4.852  26.230  0.00  0.00    +0.195 C 
BRANCH  25  26
ATOM     26  O   UNL     1       9.974  -5.293  24.987  0.00  0.00    -0.392 OA
ATOM     27  H   UNL     1      10.937  -5.131  25.034  0.00  0.00    +0.210 HD
ENDBRANCH  25  26
ENDBRANCH  22  25
ENDBRANCH  20  22
ENDBRANCH   2  20
BRANCH   4  28
ATOM     28  C   UNL     1       5.638  -4.145  21.886  0.00  0.00    +0.334 C 
ATOM     29  O   UNL     1       4.580  -4.277  22.486  0.00  0.00    -0.248 OA
BRANCH  28  30
ATOM     30  O   UNL     1       5.699  -3.853  20.564  0.00  0.00    -0.479 OA
ATOM     31  H   UNL     1       6.378  -3.176  20.376  0.00  0.00    +0.295 HD
ENDBRANCH  28  30
ENDBRANCH   4  28
TORSDOF 9
ENDMDL
MODEL 7
REMARK VINA RESULT:      -5.8      2.697      4.691
REMARK  Name = 
REMARK  10 active torsions:
REMARK  status: ('A' for Active; 'I' for Inactive)
REMARK    1  A    between atoms: C_1  and  C_2
REMARK    2  A    between atoms: N_4  and  C_5
REMARK    3  A    between atoms: C_7  and  N_23
REMARK    4  A    between atoms: C_10  and  C_20
REMARK    5  A    between atoms: C_12  and  C_14
REMARK    6  A    between atoms: C_14  and  C_16
REMARK    7  A    between atoms: C_16  and  C_17
REMARK    8  A    between atoms: C_16  and  O_19
REMARK    9  A    between atoms: C_17  and  O_18
REMARK   10  A    between atoms: C_20  and  O_22
REMARK                            x       y       z     vdW  Elec       q    Type
REMARK                         _______ _______ _______ _____ _____    ______ ____
ROOT
ATOM      1  C   UNL     1       7.044  -2.313  24.712  0.00  0.00    +0.149 C 
ATOM      2  C   UNL     1       8.558  -2.428  24.377  0.00  0.00    +0.211 C 
ATOM      3  O   UNL     1       8.947  -3.573  23.613  0.00  0.00    -0.353 OA
ATOM      4  C   UNL     1       8.369  -4.813  24.025  0.00  0.00    +0.231 C 
ATOM      5  C   UNL     1       6.858  -4.728  23.936  0.00  0.00    +0.089 C 
ATOM      6  C   UNL     1       6.322  -3.674  24.898  0.00  0.00    +0.214 C 
ENDROOT
BRANCH   6   7
ATOM      7  N   UNL     1       4.891  -3.491  24.610  0.00  0.00    -0.108 NA
ATOM      8  C   UNL     1       4.030  -3.615  25.546  0.00  0.00    +0.377 C 
ATOM      9  N   UNL     1       2.711  -3.482  25.277  0.00  0.00    -0.289 N 
ATOM     10  H   UNL     1       2.144  -4.173  25.752  0.00  0.00    +0.255 HD
ATOM     11  H   UNL     1       2.548  -3.505  24.275  0.00  0.00    +0.255 HD
ATOM     12  N   UNL     1       4.183  -3.927  26.852  0.00  0.00    -0.289 N 
ATOM     13  H   UNL     1       3.566  -3.393  27.454  0.00  0.00    +0.255 HD
ATOM     14  H   UNL     1       5.131  -3.897  27.207  0.00  0.00    +0.255 HD
ENDBRANCH   6   7
BRANCH   1  17
ATOM     15  C   UNL     1       5.842   0.370  27.155  0.00  0.00    +0.109 C 
ATOM     16  C   UNL     1       5.984  -0.355  25.849  0.00  0.00    +0.210 C 
ATOM     17  N   UNL     1       6.842  -1.429  25.878  0.00  0.00    -0.306 N 
ATOM     18  H   UNL     1       7.162  -1.779  26.775  0.00  0.00    +0.149 HD
ATOM     19  O   UNL     1       5.374  -0.014  24.841  0.00  0.00    -0.276 OA
ENDBRANCH   1  17
BRANCH   2  20
ATOM     20  C   UNL     1       8.990  -1.148  23.625  0.00  0.00    +0.194 C 
ATOM     21  O   UNL     1       9.164  -0.058  24.186  0.00  0.00    -0.292 OA
BRANCH  20  22
ATOM     22  C   UNL     1       9.310  -1.274  22.143  0.00  0.00    +0.208 C 
BRANCH  22  23
ATOM     23  O   UNL     1      10.666  -1.715  21.972  0.00  0.00    -0.382 OA
ATOM     24  H   UNL     1      10.676  -2.257  21.155  0.00  0.00    +0.210 HD
ENDBRANCH  22  23
BRANCH  22  25
ATOM     25  C   UNL     1       9.161   0.075  21.445  0.00  0.00    +0.195 C 
BRANCH  25  26
ATOM     26  O   UNL     1      10.176   0.972  21.902  0.00  0.00    -0.392 OA
ATOM     27  H   UNL     1       9.771   1.518  22.606  0.00  0.00    +0.210 HD
ENDBRANCH  25  26
ENDBRANCH  22  25
ENDBRANCH  20  22
ENDBRANCH   2  20
BRANCH   4  28
ATOM     28  C   UNL     1       8.844  -5.395  25.375  0.00  0.00    +0.334 C 
ATOM     29  O   UNL     1       8.105  -5.764  26.277  0.00  0.00    -0.248 OA
BRANCH  28  30
ATOM     30  O   UNL     1      10.191  -5.525  25.432  0.00  0.00    -0.479 OA
ATOM     31  H   UNL     1      10.533  -5.346  26.330  0.00  0.00    +0.295 HD
ENDBRANCH  28  30
ENDBRANCH   4  28
TORSDOF 9
ENDMDL
MODEL 8
REMARK VINA RESULT:      -5.7      3.099      4.675
REMARK  Name = 
REMARK  10 active torsions:
REMARK  status: ('A' for Active; 'I' for Inactive)
REMARK    1  A    between atoms: C_1  and  C_2
REMARK    2  A    between atoms: N_4  and  C_5
REMARK    3  A    between atoms: C_7  and  N_23
REMARK    4  A    between atoms: C_10  and  C_20
REMARK    5  A    between atoms: C_12  and  C_14
REMARK    6  A    between atoms: C_14  and  C_16
REMARK    7  A    between atoms: C_16  and  C_17
REMARK    8  A    between atoms: C_16  and  O_19
REMARK    9  A    between atoms: C_17  and  O_18
REMARK   10  A    between atoms: C_20  and  O_22
REMARK                            x       y       z     vdW  Elec       q    Type
REMARK                         _______ _______ _______ _____ _____    ______ ____
ROOT
ATOM      1  C   UNL     1       8.125   0.439  24.809  0.00  0.00    +0.149 C 
ATOM      2  C   UNL     1       7.753  -1.042  25.102  0.00  0.00    +0.211 C 
ATOM      3  O   UNL     1       8.830  -1.982  25.051  0.00  0.00    -0.353 OA
ATOM      4  C   UNL     1       9.723  -1.837  23.946  0.00  0.00    +0.231 C 
ATOM      5  C   UNL     1      10.354  -0.459  23.975  0.00  0.00    +0.089 C 
ATOM      6  C   UNL     1       9.292   0.621  23.803  0.00  0.00    +0.214 C 
ENDROOT
BRANCH   6   7
ATOM      7  N   UNL     1       9.931   1.922  24.055  0.00  0.00    -0.108 NA
ATOM      8  C   UNL     1      10.337   2.635  23.075  0.00  0.00    +0.377 C 
ATOM      9  N   UNL     1      10.958   3.815  23.304  0.00  0.00    -0.289 N 
ATOM     10  H   UNL     1      11.758   3.959  22.702  0.00  0.00    +0.255 HD
ATOM     11  H   UNL     1      11.220   3.894  24.282  0.00  0.00    +0.255 HD
ATOM     12  N   UNL     1      10.312   2.403  21.743  0.00  0.00    -0.289 N 
ATOM     13  H   UNL     1      10.092   3.235  21.208  0.00  0.00    +0.255 HD
ATOM     14  H   UNL     1       9.736   1.628  21.438  0.00  0.00    +0.255 HD
ENDBRANCH   6   7
BRANCH   1  17
ATOM     15  C   UNL     1       5.343   3.028  24.405  0.00  0.00    +0.109 C 
ATOM     16  C   UNL     1       6.529   2.351  25.026  0.00  0.00    +0.210 C 
ATOM     17  N   UNL     1       6.928   1.197  24.394  0.00  0.00    -0.306 N 
ATOM     18  H   UNL     1       6.549   0.982  23.477  0.00  0.00    +0.149 HD
ATOM     19  O   UNL     1       7.096   2.801  26.017  0.00  0.00    -0.276 OA
ENDBRANCH   1  17
BRANCH   2  20
ATOM     20  C   UNL     1       7.085  -1.111  26.494  0.00  0.00    +0.194 C 
ATOM     21  O   UNL     1       7.289  -0.279  27.387  0.00  0.00    -0.292 OA
BRANCH  20  22
ATOM     22  C   UNL     1       6.051  -2.203  26.726  0.00  0.00    +0.208 C 
BRANCH  22  23
ATOM     23  O   UNL     1       6.550  -3.460  26.245  0.00  0.00    -0.382 OA
ATOM     24  H   UNL     1       6.709  -4.013  27.039  0.00  0.00    +0.210 HD
ENDBRANCH  22  23
BRANCH  22  25
ATOM     25  C   UNL     1       4.760  -1.888  25.974  0.00  0.00    +0.195 C 
BRANCH  25  26
ATOM     26  O   UNL     1       4.584  -0.473  25.886  0.00  0.00    -0.392 OA
ATOM     27  H   UNL     1       4.776  -0.110  26.773  0.00  0.00    +0.210 HD
ENDBRANCH  25  26
ENDBRANCH  22  25
ENDBRANCH  20  22
ENDBRANCH   2  20
BRANCH   4  28
ATOM     28  C   UNL     1       9.174  -2.200  22.547  0.00  0.00    +0.334 C 
ATOM     29  O   UNL     1       8.121  -2.784  22.338  0.00  0.00    -0.248 OA
BRANCH  28  30
ATOM     30  O   UNL     1       9.963  -1.730  21.551  0.00  0.00    -0.479 OA
ATOM     31  H   UNL     1       9.886  -2.276  20.743  0.00  0.00    +0.295 HD
ENDBRANCH  28  30
ENDBRANCH   4  28
TORSDOF 9
ENDMDL
MODEL 9
REMARK VINA RESULT:      -5.6      2.351      3.587
REMARK  Name = 
REMARK  10 active torsions:
REMARK  status: ('A' for Active; 'I' for Inactive)
REMARK    1  A    between atoms: C_1  and  C_2
REMARK    2  A    between atoms: N_4  and  C_5
REMARK    3  A    between atoms: C_7  and  N_23
REMARK    4  A    between atoms: C_10  and  C_20
REMARK    5  A    between atoms: C_12  and  C_14
REMARK    6  A    between atoms: C_14  and  C_16
REMARK    7  A    between atoms: C_16  and  C_17
REMARK    8  A    between atoms: C_16  and  O_19
REMARK    9  A    between atoms: C_17  and  O_18
REMARK   10  A    between atoms: C_20  and  O_22
REMARK                            x       y       z     vdW  Elec       q    Type
REMARK                         _______ _______ _______ _____ _____    ______ ____
ROOT
ATOM      1  C   UNL     1       6.145  -4.157  24.017  0.00  0.00    +0.149 C 
ATOM      2  C   UNL     1       5.364  -4.791  25.202  0.00  0.00    +0.211 C 
ATOM      3  O   UNL     1       5.540  -4.166  26.477  0.00  0.00    -0.353 OA
ATOM      4  C   UNL     1       6.884  -3.822  26.813  0.00  0.00    +0.231 C 
ATOM      5  C   UNL     1       7.440  -2.860  25.780  0.00  0.00    +0.089 C 
ATOM      6  C   UNL     1       7.506  -3.525  24.410  0.00  0.00    +0.214 C 
ENDROOT
BRANCH   6   7
ATOM      7  N   UNL     1       7.844  -2.486  23.424  0.00  0.00    -0.108 NA
ATOM      8  C   UNL     1       9.067  -2.190  23.201  0.00  0.00    +0.377 C 
ATOM      9  N   UNL     1       9.380  -1.210  22.322  0.00  0.00    -0.289 N 
ATOM     10  H   UNL     1      10.128  -0.615  22.652  0.00  0.00    +0.255 HD
ATOM     11  H   UNL     1       8.556  -0.665  22.090  0.00  0.00    +0.255 HD
ATOM     12  N   UNL     1      10.206  -2.668  23.751  0.00  0.00    -0.289 N 
ATOM     13  H   UNL     1      10.949  -2.778  23.070  0.00  0.00    +0.255 HD
ATOM     14  H   UNL     1      10.112  -3.510  24.306  0.00  0.00    +0.255 HD
ENDBRANCH   6   7
BRANCH   1  17
ATOM     15  C   UNL     1       6.275  -5.931  20.633  0.00  0.00    +0.109 C 
ATOM     16  C   UNL     1       5.963  -4.844  21.619  0.00  0.00    +0.210 C 
ATOM     17  N   UNL     1       6.298  -5.135  22.921  0.00  0.00    -0.306 N 
ATOM     18  H   UNL     1       6.887  -5.940  23.108  0.00  0.00    +0.149 HD
ATOM     19  O   UNL     1       5.456  -3.779  21.282  0.00  0.00    -0.276 OA
ENDBRANCH   1  17
BRANCH   2  20
ATOM     20  C   UNL     1       3.859  -4.801  24.845  0.00  0.00    +0.194 C 
ATOM     21  O   UNL     1       3.202  -3.771  24.648  0.00  0.00    -0.292 OA
BRANCH  20  22
ATOM     22  C   UNL     1       3.195  -6.152  24.629  0.00  0.00    +0.208 C 
BRANCH  22  23
ATOM     23  O   UNL     1       3.972  -6.939  23.715  0.00  0.00    -0.382 OA
ATOM     24  H   UNL     1       3.521  -7.808  23.649  0.00  0.00    +0.210 HD
ENDBRANCH  22  23
BRANCH  22  25
ATOM     25  C   UNL     1       1.801  -5.976  24.032  0.00  0.00    +0.195 C 
BRANCH  25  26
ATOM     26  O   UNL     1       1.906  -5.515  22.683  0.00  0.00    -0.392 OA
ATOM     27  H   UNL     1       1.342  -4.720  22.613  0.00  0.00    +0.210 HD
ENDBRANCH  25  26
ENDBRANCH  22  25
ENDBRANCH  20  22
ENDBRANCH   2  20
BRANCH   4  28
ATOM     28  C   UNL     1       7.855  -4.987  27.109  0.00  0.00    +0.334 C 
ATOM     29  O   UNL     1       7.517  -6.140  27.334  0.00  0.00    -0.248 OA
BRANCH  28  30
ATOM     30  O   UNL     1       9.153  -4.606  27.023  0.00  0.00    -0.479 OA
ATOM     31  H   UNL     1       9.750  -5.376  26.945  0.00  0.00    +0.295 HD
ENDBRANCH  28  30
ENDBRANCH   4  28
TORSDOF 9
ENDMDL
