MODEL 1
REMARK VINA RESULT:      -6.6      0.000      0.000
REMARK  Name = 
REMARK  11 active torsions:
REMARK  status: ('A' for Active; 'I' for Inactive)
REMARK    1  A    between atoms: C_1  and  C_2
REMARK    2  A    between atoms: C_2  and  C_3
REMARK    3  A    between atoms: C_2  and  C_4
REMARK    4  A    between atoms: C_4  and  C_5
REMARK    5  A    between atoms: C_4  and  N_23
REMARK    6  A    between atoms: C_5  and  O_7
REMARK    7  A    between atoms: O_7  and  C_8
REMARK    8  A    between atoms: C_8  and  C_9
REMARK    9  A    between atoms: C_9  and  O_10
REMARK   10  A    between atoms: O_10  and  C_11
REMARK   11  A    between atoms: C_11  and  N_12
REMARK                            x       y       z     vdW  Elec       q    Type
REMARK                         _______ _______ _______ _____ _____    ______ ____
ROOT
ATOM      1  C   UNL     1       5.224  -4.916  22.949  0.00  0.00    +0.287 C 
ENDROOT
BRANCH   1   2
ATOM      2  N   UNL     1       5.257  -5.116  24.382  0.00  0.00    -0.291 N 
ATOM      3  C   UNL     1       6.371  -5.281  25.154  0.00  0.00    +0.171 A 
ATOM      4  N   UNL     1       7.659  -5.302  24.732  0.00  0.00    -0.196 NA
ATOM      5  C   UNL     1       8.515  -5.467  25.706  0.00  0.00    +0.195 A 
ATOM      6  N   UNL     1       9.844  -5.521  25.439  0.00  0.00    -0.329 N 
ATOM      7  H   UNL     1      10.478  -5.174  26.146  0.00  0.00    +0.145 HD
ATOM      8  H   UNL     1      10.072  -5.203  24.504  0.00  0.00    +0.145 HD
ATOM      9  N   UNL     1       8.159  -5.591  27.033  0.00  0.00    -0.293 N 
ATOM     10  H   UNL     1       8.860  -5.744  27.737  0.00  0.00    +0.172 HD
ATOM     11  C   UNL     1       6.853  -5.591  27.503  0.00  0.00    +0.280 A 
ATOM     12  O   UNL     1       6.593  -5.723  28.696  0.00  0.00    -0.265 OA
ATOM     13  C   UNL     1       5.892  -5.421  26.439  0.00  0.00    +0.172 A 
ATOM     14  N   UNL     1       4.521  -5.379  26.476  0.00  0.00    -0.229 NA
ATOM     15  C   UNL     1       4.170  -5.198  25.219  0.00  0.00    +0.203 A 
ENDBRANCH   1   2
BRANCH   1  16
ATOM     16  O   UNL     1       5.067  -3.522  22.692  0.00  0.00    -0.356 OA
BRANCH  16  17
ATOM     17  C   UNL     1       6.137  -2.995  21.905  0.00  0.00    +0.203 C 
BRANCH  17  18
ATOM     18  C   UNL     1       7.057  -2.190  22.822  0.00  0.00    +0.260 C 
BRANCH  18  19
ATOM     19  O   UNL     1       8.400  -2.715  22.811  0.00  0.00    -0.461 OA
BRANCH  19  20
ATOM     20  C   UNL     1       9.267  -2.127  23.679  0.00  0.00    +0.324 C 
ATOM     21  O   UNL     1       9.287  -2.322  24.889  0.00  0.00    -0.249 OA
BRANCH  20  22
ATOM     22  C   UNL     1      10.216  -1.163  22.938  0.00  0.00    +0.163 C 
BRANCH  22  24
ATOM     23  C   UNL     1      10.790   1.004  24.160  0.00  0.00    +0.009 C 
ATOM     24  C   UNL     1       9.830   0.315  23.183  0.00  0.00    +0.010 C 
ATOM     25  C   UNL     1       9.801   1.121  21.877  0.00  0.00    +0.009 C 
ENDBRANCH  22  24
BRANCH  22  26
ATOM     26  N   UNL     1      10.154  -1.473  21.485  0.00  0.00    -0.318 NA
ATOM     27  H   UNL     1      11.025  -1.931  21.212  0.00  0.00    +0.119 HD
ATOM     28  H   UNL     1       9.435  -2.188  21.350  0.00  0.00    +0.119 HD
ENDBRANCH  22  26
ENDBRANCH  20  22
ENDBRANCH  19  20
ENDBRANCH  18  19
ENDBRANCH  17  18
ENDBRANCH  16  17
ENDBRANCH   1  16
TORSDOF 9
ENDMDL
MODEL 2
REMARK VINA RESULT:      -6.3      1.593      1.892
REMARK  Name = 
REMARK  11 active torsions:
REMARK  status: ('A' for Active; 'I' for Inactive)
REMARK    1  A    between atoms: C_1  and  C_2
REMARK    2  A    between atoms: C_2  and  C_3
REMARK    3  A    between atoms: C_2  and  C_4
REMARK    4  A    between atoms: C_4  and  C_5
REMARK    5  A    between atoms: C_4  and  N_23
REMARK    6  A    between atoms: C_5  and  O_7
REMARK    7  A    between atoms: O_7  and  C_8
REMARK    8  A    between atoms: C_8  and  C_9
REMARK    9  A    between atoms: C_9  and  O_10
REMARK   10  A    between atoms: O_10  and  C_11
REMARK   11  A    between atoms: C_11  and  N_12
REMARK                            x       y       z     vdW  Elec       q    Type
REMARK                         _______ _______ _______ _____ _____    ______ ____
ROOT
ATOM      1  C   UNL     1       6.574  -3.835  22.260  0.00  0.00    +0.287 C 
ENDROOT
BRANCH   1   2
ATOM      2  N   UNL     1       6.207  -4.362  23.558  0.00  0.00    -0.291 N 
ATOM      3  C   UNL     1       7.061  -4.825  24.517  0.00  0.00    +0.171 A 
ATOM      4  N   UNL     1       8.412  -4.895  24.441  0.00  0.00    -0.196 NA
ATOM      5  C   UNL     1       8.963  -5.376  25.525  0.00  0.00    +0.195 A 
ATOM      6  N   UNL     1      10.310  -5.518  25.596  0.00  0.00    -0.329 N 
ATOM      7  H   UNL     1      10.744  -5.417  26.504  0.00  0.00    +0.145 HD
ATOM      8  H   UNL     1      10.798  -5.021  24.859  0.00  0.00    +0.145 HD
ATOM      9  N   UNL     1       8.254  -5.761  26.645  0.00  0.00    -0.293 N 
ATOM     10  H   UNL     1       8.730  -6.150  27.440  0.00  0.00    +0.172 HD
ATOM     11  C   UNL     1       6.871  -5.720  26.756  0.00  0.00    +0.280 A 
ATOM     12  O   UNL     1       6.291  -6.093  27.772  0.00  0.00    -0.265 OA
ATOM     13  C   UNL     1       6.245  -5.201  25.563  0.00  0.00    +0.172 A 
ATOM     14  N   UNL     1       4.919  -5.014  25.263  0.00  0.00    -0.229 NA
ATOM     15  C   UNL     1       4.932  -4.510  24.046  0.00  0.00    +0.203 A 
ENDBRANCH   1   2
BRANCH   1  16
ATOM     16  O   UNL     1       6.216  -2.455  22.216  0.00  0.00    -0.356 OA
BRANCH  16  17
ATOM     17  C   UNL     1       7.235  -1.615  22.758  0.00  0.00    +0.203 C 
BRANCH  17  18
ATOM     18  C   UNL     1       8.542  -1.904  22.020  0.00  0.00    +0.260 C 
BRANCH  18  19
ATOM     19  O   UNL     1       9.182  -0.687  21.589  0.00  0.00    -0.461 OA
BRANCH  19  20
ATOM     20  C   UNL     1       9.953  -0.067  22.522  0.00  0.00    +0.324 C 
ATOM     21  O   UNL     1      10.462  -0.621  23.490  0.00  0.00    -0.249 OA
BRANCH  20  22
ATOM     22  C   UNL     1      10.089   1.437  22.211  0.00  0.00    +0.163 C 
BRANCH  22  24
ATOM     23  C   UNL     1      11.082   3.519  23.305  0.00  0.00    +0.009 C 
ATOM     24  C   UNL     1      10.206   2.277  23.505  0.00  0.00    +0.010 C 
ATOM     25  C   UNL     1       8.832   2.727  24.019  0.00  0.00    +0.009 C 
ENDBRANCH  22  24
BRANCH  22  26
ATOM     26  N   UNL     1       8.896   1.862  21.432  0.00  0.00    -0.318 NA
ATOM     27  H   UNL     1       8.184   1.132  21.500  0.00  0.00    +0.119 HD
ATOM     28  H   UNL     1       8.483   2.666  21.911  0.00  0.00    +0.119 HD
ENDBRANCH  22  26
ENDBRANCH  20  22
ENDBRANCH  19  20
ENDBRANCH  18  19
ENDBRANCH  17  18
ENDBRANCH  16  17
ENDBRANCH   1  16
TORSDOF 9
ENDMDL
MODEL 3
REMARK VINA RESULT:      -6.2      2.251      3.405
REMARK  Name = 
REMARK  11 active torsions:
REMARK  status: ('A' for Active; 'I' for Inactive)
REMARK    1  A    between atoms: C_1  and  C_2
REMARK    2  A    between atoms: C_2  and  C_3
REMARK    3  A    between atoms: C_2  and  C_4
REMARK    4  A    between atoms: C_4  and  C_5
REMARK    5  A    between atoms: C_4  and  N_23
REMARK    6  A    between atoms: C_5  and  O_7
REMARK    7  A    between atoms: O_7  and  C_8
REMARK    8  A    between atoms: C_8  and  C_9
REMARK    9  A    between atoms: C_9  and  O_10
REMARK   10  A    between atoms: O_10  and  C_11
REMARK   11  A    between atoms: C_11  and  N_12
REMARK                            x       y       z     vdW  Elec       q    Type
REMARK                         _______ _______ _______ _____ _____    ______ ____
ROOT
ATOM      1  C   UNL     1       7.826  -4.366  25.146  0.00  0.00    +0.287 C 
ENDROOT
BRANCH   1   2
ATOM      2  N   UNL     1       6.706  -5.140  24.653  0.00  0.00    -0.291 N 
ATOM      3  C   UNL     1       5.869  -5.922  25.396  0.00  0.00    +0.171 A 
ATOM      4  N   UNL     1       5.927  -6.137  26.733  0.00  0.00    -0.196 NA
ATOM      5  C   UNL     1       4.982  -6.928  27.167  0.00  0.00    +0.195 A 
ATOM      6  N   UNL     1       4.915  -7.248  28.483  0.00  0.00    -0.329 N 
ATOM      7  H   UNL     1       4.001  -7.422  28.877  0.00  0.00    +0.145 HD
ATOM      8  H   UNL     1       5.496  -6.652  29.064  0.00  0.00    +0.145 HD
ATOM      9  N   UNL     1       4.008  -7.481  26.360  0.00  0.00    -0.293 N 
ATOM     10  H   UNL     1       3.321  -8.105  26.746  0.00  0.00    +0.172 HD
ATOM     11  C   UNL     1       3.924  -7.298  24.987  0.00  0.00    +0.280 A 
ATOM     12  O   UNL     1       3.045  -7.830  24.316  0.00  0.00    -0.265 OA
ATOM     13  C   UNL     1       4.968  -6.435  24.488  0.00  0.00    +0.172 A 
ATOM     14  N   UNL     1       5.244  -6.020  23.210  0.00  0.00    -0.229 NA
ATOM     15  C   UNL     1       6.300  -5.244  23.345  0.00  0.00    +0.203 A 
ENDBRANCH   1   2
BRANCH   1  16
ATOM     16  O   UNL     1       8.828  -4.326  24.133  0.00  0.00    -0.356 OA
BRANCH  16  17
ATOM     17  C   UNL     1       9.339  -3.008  23.928  0.00  0.00    +0.203 C 
BRANCH  17  18
ATOM     18  C   UNL     1       8.628  -2.399  22.720  0.00  0.00    +0.260 C 
BRANCH  18  19
ATOM     19  O   UNL     1       9.387  -1.310  22.157  0.00  0.00    -0.461 OA
BRANCH  19  20
ATOM     20  C   UNL     1       8.936  -0.063  22.458  0.00  0.00    +0.324 C 
ATOM     21  O   UNL     1       7.774   0.213  22.736  0.00  0.00    -0.249 OA
BRANCH  20  22
ATOM     22  C   UNL     1      10.080   0.967  22.384  0.00  0.00    +0.163 C 
BRANCH  22  24
ATOM     23  C   UNL     1       9.394   2.515  24.296  0.00  0.00    +0.009 C 
ATOM     24  C   UNL     1      10.440   1.518  23.785  0.00  0.00    +0.010 C 
ATOM     25  C   UNL     1      10.590   0.394  24.819  0.00  0.00    +0.009 C 
ENDBRANCH  22  24
BRANCH  22  26
ATOM     26  N   UNL     1       9.652   2.078  21.493  0.00  0.00    -0.318 NA
ATOM     27  H   UNL     1       9.040   1.698  20.768  0.00  0.00    +0.119 HD
ATOM     28  H   UNL     1       9.047   2.698  22.038  0.00  0.00    +0.119 HD
ENDBRANCH  22  26
ENDBRANCH  20  22
ENDBRANCH  19  20
ENDBRANCH  18  19
ENDBRANCH  17  18
ENDBRANCH  16  17
ENDBRANCH   1  16
TORSDOF 9
ENDMDL
MODEL 4
REMARK VINA RESULT:      -6.1      1.803      3.373
REMARK  Name = 
REMARK  11 active torsions:
REMARK  status: ('A' for Active; 'I' for Inactive)
REMARK    1  A    between atoms: C_1  and  C_2
REMARK    2  A    between atoms: C_2  and  C_3
REMARK    3  A    between atoms: C_2  and  C_4
REMARK    4  A    between atoms: C_4  and  C_5
REMARK    5  A    between atoms: C_4  and  N_23
REMARK    6  A    between atoms: C_5  and  O_7
REMARK    7  A    between atoms: O_7  and  C_8
REMARK    8  A    between atoms: C_8  and  C_9
REMARK    9  A    between atoms: C_9  and  O_10
REMARK   10  A    between atoms: O_10  and  C_11
REMARK   11  A    between atoms: C_11  and  N_12
REMARK                            x       y       z     vdW  Elec       q    Type
REMARK                         _______ _______ _______ _____ _____    ______ ____
ROOT
ATOM      1  C   UNL     1       7.102  -4.579  27.061  0.00  0.00    +0.287 C 
ENDROOT
BRANCH   1   2
ATOM      2  N   UNL     1       6.046  -5.522  26.756  0.00  0.00    -0.291 N 
ATOM      3  C   UNL     1       5.574  -5.839  25.514  0.00  0.00    +0.171 A 
ATOM      4  N   UNL     1       5.989  -5.328  24.329  0.00  0.00    -0.196 NA
ATOM      5  C   UNL     1       5.356  -5.832  23.303  0.00  0.00    +0.195 A 
ATOM      6  N   UNL     1       5.652  -5.411  22.048  0.00  0.00    -0.329 N 
ATOM      7  H   UNL     1       5.550  -6.078  21.295  0.00  0.00    +0.145 HD
ATOM      8  H   UNL     1       6.516  -4.882  22.004  0.00  0.00    +0.145 HD
ATOM      9  N   UNL     1       4.376  -6.800  23.401  0.00  0.00    -0.293 N 
ATOM     10  H   UNL     1       3.903  -7.131  22.578  0.00  0.00    +0.172 HD
ATOM     11  C   UNL     1       3.912  -7.335  24.595  0.00  0.00    +0.280 A 
ATOM     12  O   UNL     1       3.024  -8.182  24.623  0.00  0.00    -0.265 OA
ATOM     13  C   UNL     1       4.594  -6.780  25.740  0.00  0.00    +0.172 A 
ATOM     14  N   UNL     1       4.427  -7.027  27.079  0.00  0.00    -0.229 NA
ATOM     15  C   UNL     1       5.316  -6.249  27.663  0.00  0.00    +0.203 A 
ENDBRANCH   1   2
BRANCH   1  16
ATOM     16  O   UNL     1       8.356  -5.238  26.898  0.00  0.00    -0.356 OA
BRANCH  16  17
ATOM     17  C   UNL     1       9.349  -4.379  26.337  0.00  0.00    +0.203 C 
BRANCH  17  18
ATOM     18  C   UNL     1       9.254  -4.465  24.813  0.00  0.00    +0.260 C 
BRANCH  18  19
ATOM     19  O   UNL     1      10.027  -3.427  24.179  0.00  0.00    -0.461 OA
BRANCH  19  20
ATOM     20  C   UNL     1       9.308  -2.407  23.638  0.00  0.00    +0.324 C 
ATOM     21  O   UNL     1       8.086  -2.318  23.669  0.00  0.00    -0.249 OA
BRANCH  20  22
ATOM     22  C   UNL     1      10.237  -1.379  22.961  0.00  0.00    +0.163 C 
BRANCH  22  24
ATOM     23  C   UNL     1      10.906   0.663  24.340  0.00  0.00    +0.009 C 
ATOM     24  C   UNL     1       9.878   0.069  23.371  0.00  0.00    +0.010 C 
ATOM     25  C   UNL     1       9.764   0.995  22.153  0.00  0.00    +0.009 C 
ENDBRANCH  22  24
BRANCH  22  26
ATOM     26  N   UNL     1      10.114  -1.538  21.488  0.00  0.00    -0.318 NA
ATOM     27  H   UNL     1       9.709  -2.455  21.291  0.00  0.00    +0.119 HD
ATOM     28  H   UNL     1       9.409  -0.872  21.162  0.00  0.00    +0.119 HD
ENDBRANCH  22  26
ENDBRANCH  20  22
ENDBRANCH  19  20
ENDBRANCH  18  19
ENDBRANCH  17  18
ENDBRANCH  16  17
ENDBRANCH   1  16
TORSDOF 9
ENDMDL
MODEL 5
REMARK VINA RESULT:      -6.0      2.254      3.553
REMARK  Name = 
REMARK  11 active torsions:
REMARK  status: ('A' for Active; 'I' for Inactive)
REMARK    1  A    between atoms: C_1  and  C_2
REMARK    2  A    between atoms: C_2  and  C_3
REMARK    3  A    between atoms: C_2  and  C_4
REMARK    4  A    between atoms: C_4  and  C_5
REMARK    5  A    between atoms: C_4  and  N_23
REMARK    6  A    between atoms: C_5  and  O_7
REMARK    7  A    between atoms: O_7  and  C_8
REMARK    8  A    between atoms: C_8  and  C_9
REMARK    9  A    between atoms: C_9  and  O_10
REMARK   10  A    between atoms: O_10  and  C_11
REMARK   11  A    between atoms: C_11  and  N_12
REMARK                            x       y       z     vdW  Elec       q    Type
REMARK                         _______ _______ _______ _____ _____    ______ ____
ROOT
ATOM      1  C   UNL     1       8.908  -3.888  25.017  0.00  0.00    +0.287 C 
ENDROOT
BRANCH   1   2
ATOM      2  N   UNL     1       7.750  -4.738  25.197  0.00  0.00    -0.291 N 
ATOM      3  C   UNL     1       6.959  -5.253  24.211  0.00  0.00    +0.171 A 
ATOM      4  N   UNL     1       7.092  -5.061  22.876  0.00  0.00    -0.196 NA
ATOM      5  C   UNL     1       6.187  -5.692  22.174  0.00  0.00    +0.195 A 
ATOM      6  N   UNL     1       6.182  -5.587  20.822  0.00  0.00    -0.329 N 
ATOM      7  H   UNL     1       5.849  -6.382  20.292  0.00  0.00    +0.145 HD
ATOM      8  H   UNL     1       7.039  -5.189  20.454  0.00  0.00    +0.145 HD
ATOM      9  N   UNL     1       5.203  -6.489  22.723  0.00  0.00    -0.293 N 
ATOM     10  H   UNL     1       4.516  -6.928  22.135  0.00  0.00    +0.172 HD
ATOM     11  C   UNL     1       5.024  -6.697  24.084  0.00  0.00    +0.280 A 
ATOM     12  O   UNL     1       4.118  -7.403  24.517  0.00  0.00    -0.265 OA
ATOM     13  C   UNL     1       6.008  -5.998  24.875  0.00  0.00    +0.172 A 
ATOM     14  N   UNL     1       6.171  -5.931  26.235  0.00  0.00    -0.229 NA
ATOM     15  C   UNL     1       7.228  -5.161  26.395  0.00  0.00    +0.203 A 
ENDBRANCH   1   2
BRANCH   1  16
ATOM     16  O   UNL     1       8.653  -2.638  25.652  0.00  0.00    -0.356 OA
BRANCH  16  17
ATOM     17  C   UNL     1       8.785  -1.537  24.751  0.00  0.00    +0.203 C 
BRANCH  17  18
ATOM     18  C   UNL     1       9.709  -1.959  23.608  0.00  0.00    +0.260 C 
BRANCH  18  19
ATOM     19  O   UNL     1      10.493  -0.848  23.129  0.00  0.00    -0.461 OA
BRANCH  19  20
ATOM     20  C   UNL     1       9.865  -0.023  22.248  0.00  0.00    +0.324 C 
ATOM     21  O   UNL     1       9.358  -0.383  21.192  0.00  0.00    -0.249 OA
BRANCH  20  22
ATOM     22  C   UNL     1       9.891   1.435  22.748  0.00  0.00    +0.163 C 
BRANCH  22  24
ATOM     23  C   UNL     1       8.646   2.408  24.754  0.00  0.00    +0.009 C 
ATOM     24  C   UNL     1       8.521   1.862  23.328  0.00  0.00    +0.010 C 
ATOM     25  C   UNL     1       7.839   2.925  22.456  0.00  0.00    +0.009 C 
ENDBRANCH  22  24
BRANCH  22  26
ATOM     26  N   UNL     1      10.257   2.313  21.606  0.00  0.00    -0.318 NA
ATOM     27  H   UNL     1      10.003   3.275  21.838  0.00  0.00    +0.119 HD
ATOM     28  H   UNL     1      11.279   2.327  21.540  0.00  0.00    +0.119 HD
ENDBRANCH  22  26
ENDBRANCH  20  22
ENDBRANCH  19  20
ENDBRANCH  18  19
ENDBRANCH  17  18
ENDBRANCH  16  17
ENDBRANCH   1  16
TORSDOF 9
ENDMDL
MODEL 6
REMARK VINA RESULT:      -6.0      2.082      3.467
REMARK  Name = 
REMARK  11 active torsions:
REMARK  status: ('A' for Active; 'I' for Inactive)
REMARK    1  A    between atoms: C_1  and  C_2
REMARK    2  A    between atoms: C_2  and  C_3
REMARK    3  A    between atoms: C_2  and  C_4
REMARK    4  A    between atoms: C_4  and  C_5
REMARK    5  A    between atoms: C_4  and  N_23
REMARK    6  A    between atoms: C_5  and  O_7
REMARK    7  A    between atoms: O_7  and  C_8
REMARK    8  A    between atoms: C_8  and  C_9
REMARK    9  A    between atoms: C_9  and  O_10
REMARK   10  A    between atoms: O_10  and  C_11
REMARK   11  A    between atoms: C_11  and  N_12
REMARK                            x       y       z     vdW  Elec       q    Type
REMARK                         _______ _______ _______ _____ _____    ______ ____
ROOT
ATOM      1  C   UNL     1       8.455  -3.775  23.880  0.00  0.00    +0.287 C 
ENDROOT
BRANCH   1   2
ATOM      2  N   UNL     1       7.914  -4.433  25.050  0.00  0.00    -0.291 N 
ATOM      3  C   UNL     1       6.794  -5.213  25.099  0.00  0.00    +0.171 A 
ATOM      4  N   UNL     1       5.966  -5.515  24.069  0.00  0.00    -0.196 NA
ATOM      5  C   UNL     1       4.977  -6.296  24.418  0.00  0.00    +0.195 A 
ATOM      6  N   UNL     1       4.056  -6.677  23.498  0.00  0.00    -0.329 N 
ATOM      7  H   UNL     1       3.626  -7.584  23.614  0.00  0.00    +0.145 HD
ATOM      8  H   UNL     1       4.348  -6.488  22.546  0.00  0.00    +0.145 HD
ATOM      9  N   UNL     1       4.794  -6.784  25.696  0.00  0.00    -0.293 N 
ATOM     10  H   UNL     1       3.999  -7.359  25.912  0.00  0.00    +0.172 HD
ATOM     11  C   UNL     1       5.609  -6.485  26.779  0.00  0.00    +0.280 A 
ATOM     12  O   UNL     1       5.388  -6.935  27.900  0.00  0.00    -0.265 OA
ATOM     13  C   UNL     1       6.701  -5.614  26.414  0.00  0.00    +0.172 A 
ATOM     14  N   UNL     1       7.707  -5.080  27.179  0.00  0.00    -0.229 NA
ATOM     15  C   UNL     1       8.417  -4.370  26.327  0.00  0.00    +0.203 A 
ENDBRANCH   1   2
BRANCH   1  16
ATOM     16  O   UNL     1       9.794  -3.377  24.165  0.00  0.00    -0.356 OA
BRANCH  16  17
ATOM     17  C   UNL     1      10.212  -2.273  23.362  0.00  0.00    +0.203 C 
BRANCH  17  18
ATOM     18  C   UNL     1       9.331  -1.070  23.700  0.00  0.00    +0.260 C 
BRANCH  18  19
ATOM     19  O   UNL     1       9.762   0.112  22.998  0.00  0.00    -0.461 OA
BRANCH  19  20
ATOM     20  C   UNL     1      10.356   1.066  23.765  0.00  0.00    +0.324 C 
ATOM     21  O   UNL     1      10.841   0.871  24.874  0.00  0.00    -0.249 OA
BRANCH  20  22
ATOM     22  C   UNL     1      10.323   2.436  23.059  0.00  0.00    +0.163 C 
BRANCH  22  24
ATOM     23  C   UNL     1       9.845   4.787  23.934  0.00  0.00    +0.009 C 
ATOM     24  C   UNL     1       9.280   3.382  23.700  0.00  0.00    +0.010 C 
ATOM     25  C   UNL     1       8.015   3.502  22.840  0.00  0.00    +0.009 C 
ENDBRANCH  22  24
BRANCH  22  26
ATOM     26  N   UNL     1       9.999   2.215  21.625  0.00  0.00    -0.318 NA
ATOM     27  H   UNL     1       9.056   2.564  21.446  0.00  0.00    +0.119 HD
ATOM     28  H   UNL     1      10.606   2.825  21.072  0.00  0.00    +0.119 HD
ENDBRANCH  22  26
ENDBRANCH  20  22
ENDBRANCH  19  20
ENDBRANCH  18  19
ENDBRANCH  17  18
ENDBRANCH  16  17
ENDBRANCH   1  16
TORSDOF 9
ENDMDL
MODEL 7
REMARK VINA RESULT:      -5.9      2.306      2.817
REMARK  Name = 
REMARK  11 active torsions:
REMARK  status: ('A' for Active; 'I' for Inactive)
REMARK    1  A    between atoms: C_1  and  C_2
REMARK    2  A    between atoms: C_2  and  C_3
REMARK    3  A    between atoms: C_2  and  C_4
REMARK    4  A    between atoms: C_4  and  C_5
REMARK    5  A    between atoms: C_4  and  N_23
REMARK    6  A    between atoms: C_5  and  O_7
REMARK    7  A    between atoms: O_7  and  C_8
REMARK    8  A    between atoms: C_8  and  C_9
REMARK    9  A    between atoms: C_9  and  O_10
REMARK   10  A    between atoms: O_10  and  C_11
REMARK   11  A    between atoms: C_11  and  N_12
REMARK                            x       y       z     vdW  Elec       q    Type
REMARK                         _______ _______ _______ _____ _____    ______ ____
ROOT
ATOM      1  C   UNL     1       7.699  -0.898  25.429  0.00  0.00    +0.287 C 
ENDROOT
BRANCH   1   2
ATOM      2  N   UNL     1       7.127  -2.039  26.112  0.00  0.00    -0.291 N 
ATOM      3  C   UNL     1       7.689  -3.277  26.235  0.00  0.00    +0.171 A 
ATOM      4  N   UNL     1       8.881  -3.685  25.735  0.00  0.00    -0.196 NA
ATOM      5  C   UNL     1       9.161  -4.929  26.024  0.00  0.00    +0.195 A 
ATOM      6  N   UNL     1      10.316  -5.485  25.583  0.00  0.00    -0.329 N 
ATOM      7  H   UNL     1      10.741  -6.200  26.158  0.00  0.00    +0.145 HD
ATOM      8  H   UNL     1      10.978  -4.799  25.239  0.00  0.00    +0.145 HD
ATOM      9  N   UNL     1       8.342  -5.748  26.775  0.00  0.00    -0.293 N 
ATOM     10  H   UNL     1       8.597  -6.706  26.942  0.00  0.00    +0.172 HD
ATOM     11  C   UNL     1       7.109  -5.374  27.290  0.00  0.00    +0.280 A 
ATOM     12  O   UNL     1       6.414  -6.152  27.937  0.00  0.00    -0.265 OA
ATOM     13  C   UNL     1       6.779  -4.005  26.971  0.00  0.00    +0.172 A 
ATOM     14  N   UNL     1       5.665  -3.265  27.274  0.00  0.00    -0.229 NA
ATOM     15  C   UNL     1       5.906  -2.086  26.739  0.00  0.00    +0.203 A 
ENDBRANCH   1   2
BRANCH   1  16
ATOM     16  O   UNL     1       6.840  -0.541  24.349  0.00  0.00    -0.356 OA
BRANCH  16  17
ATOM     17  C   UNL     1       6.985  -1.417  23.231  0.00  0.00    +0.203 C 
BRANCH  17  18
ATOM     18  C   UNL     1       8.450  -1.403  22.795  0.00  0.00    +0.260 C 
BRANCH  18  19
ATOM     19  O   UNL     1       8.828  -0.117  22.264  0.00  0.00    -0.461 OA
BRANCH  19  20
ATOM     20  C   UNL     1       9.954   0.430  22.798  0.00  0.00    +0.324 C 
ATOM     21  O   UNL     1      10.812  -0.195  23.412  0.00  0.00    -0.249 OA
BRANCH  20  22
ATOM     22  C   UNL     1      10.000   1.949  22.543  0.00  0.00    +0.163 C 
BRANCH  22  24
ATOM     23  C   UNL     1      10.223   4.205  23.718  0.00  0.00    +0.009 C 
ATOM     24  C   UNL     1       9.753   2.752  23.842  0.00  0.00    +0.010 C 
ATOM     25  C   UNL     1       8.270   2.751  24.239  0.00  0.00    +0.009 C 
ENDBRANCH  22  24
BRANCH  22  26
ATOM     26  N   UNL     1       8.964   2.284  21.531  0.00  0.00    -0.318 NA
ATOM     27  H   UNL     1       8.504   1.421  21.236  0.00  0.00    +0.119 HD
ATOM     28  H   UNL     1       8.230   2.817  22.003  0.00  0.00    +0.119 HD
ENDBRANCH  22  26
ENDBRANCH  20  22
ENDBRANCH  19  20
ENDBRANCH  18  19
ENDBRANCH  17  18
ENDBRANCH  16  17
ENDBRANCH   1  16
TORSDOF 9
ENDMDL
MODEL 8
REMARK VINA RESULT:      -5.8      2.240      3.293
REMARK  Name = 
REMARK  11 active torsions:
REMARK  status: ('A' for Active; 'I' for Inactive)
REMARK    1  A    between atoms: C_1  and  C_2
REMARK    2  A    between atoms: C_2  and  C_3
REMARK    3  A    between atoms: C_2  and  C_4
REMARK    4  A    between atoms: C_4  and  C_5
REMARK    5  A    between atoms: C_4  and  N_23
REMARK    6  A    between atoms: C_5  and  O_7
REMARK    7  A    between atoms: O_7  and  C_8
REMARK    8  A    between atoms: C_8  and  C_9
REMARK    9  A    between atoms: C_9  and  O_10
REMARK   10  A    between atoms: O_10  and  C_11
REMARK   11  A    between atoms: C_11  and  N_12
REMARK                            x       y       z     vdW  Elec       q    Type
REMARK                         _______ _______ _______ _____ _____    ______ ____
ROOT
ATOM      1  C   UNL     1       7.593  -2.961  23.891  0.00  0.00    +0.287 C 
ENDROOT
BRANCH   1   2
ATOM      2  N   UNL     1       6.652  -4.055  23.770  0.00  0.00    -0.291 N 
ATOM      3  C   UNL     1       6.288  -4.925  24.758  0.00  0.00    +0.171 A 
ATOM      4  N   UNL     1       6.742  -4.945  26.035  0.00  0.00    -0.196 NA
ATOM      5  C   UNL     1       6.202  -5.892  26.756  0.00  0.00    +0.195 A 
ATOM      6  N   UNL     1       6.565  -6.047  28.054  0.00  0.00    -0.329 N 
ATOM      7  H   UNL     1       5.868  -6.401  28.696  0.00  0.00    +0.145 HD
ATOM      8  H   UNL     1       7.080  -5.253  28.417  0.00  0.00    +0.145 HD
ATOM      9  N   UNL     1       5.253  -6.776  26.283  0.00  0.00    -0.293 N 
ATOM     10  H   UNL     1       4.893  -7.503  26.877  0.00  0.00    +0.172 HD
ATOM     11  C   UNL     1       4.776  -6.798  24.980  0.00  0.00    +0.280 A 
ATOM     12  O   UNL     1       3.943  -7.621  24.609  0.00  0.00    -0.265 OA
ATOM     13  C   UNL     1       5.370  -5.765  24.165  0.00  0.00    +0.172 A 
ATOM     14  N   UNL     1       5.184  -5.460  22.841  0.00  0.00    -0.229 NA
ATOM     15  C   UNL     1       5.974  -4.426  22.635  0.00  0.00    +0.203 A 
ENDBRANCH   1   2
BRANCH   1  16
ATOM     16  O   UNL     1       8.912  -3.501  23.919  0.00  0.00    -0.356 OA
BRANCH  16  17
ATOM     17  C   UNL     1       9.911  -2.498  23.732  0.00  0.00    +0.203 C 
BRANCH  17  18
ATOM     18  C   UNL     1       9.342  -1.158  24.201  0.00  0.00    +0.260 C 
BRANCH  18  19
ATOM     19  O   UNL     1       9.646  -0.102  23.268  0.00  0.00    -0.461 OA
BRANCH  19  20
ATOM     20  C   UNL     1      10.429   0.900  23.751  0.00  0.00    +0.324 C 
ATOM     21  O   UNL     1      11.339   0.750  24.558  0.00  0.00    -0.249 OA
BRANCH  20  22
ATOM     22  C   UNL     1      10.008   2.259  23.159  0.00  0.00    +0.163 C 
BRANCH  22  24
ATOM     23  C   UNL     1       8.573   3.553  24.829  0.00  0.00    +0.009 C 
ATOM     24  C   UNL     1       8.574   2.648  23.592  0.00  0.00    +0.010 C 
ATOM     25  C   UNL     1       7.812   3.361  22.465  0.00  0.00    +0.009 C 
ENDBRANCH  22  24
BRANCH  22  26
ATOM     26  N   UNL     1      10.087   2.168  21.677  0.00  0.00    -0.318 NA
ATOM     27  H   UNL     1       9.887   3.089  21.282  0.00  0.00    +0.119 HD
ATOM     28  H   UNL     1      11.063   1.990  21.429  0.00  0.00    +0.119 HD
ENDBRANCH  22  26
ENDBRANCH  20  22
ENDBRANCH  19  20
ENDBRANCH  18  19
ENDBRANCH  17  18
ENDBRANCH  16  17
ENDBRANCH   1  16
TORSDOF 9
ENDMDL
MODEL 9
REMARK VINA RESULT:      -5.7      2.078      3.447
REMARK  Name = 
REMARK  11 active torsions:
REMARK  status: ('A' for Active; 'I' for Inactive)
REMARK    1  A    between atoms: C_1  and  C_2
REMARK    2  A    between atoms: C_2  and  C_3
REMARK    3  A    between atoms: C_2  and  C_4
REMARK    4  A    between atoms: C_4  and  C_5
REMARK    5  A    between atoms: C_4  and  N_23
REMARK    6  A    between atoms: C_5  and  O_7
REMARK    7  A    between atoms: O_7  and  C_8
REMARK    8  A    between atoms: C_8  and  C_9
REMARK    9  A    between atoms: C_9  and  O_10
REMARK   10  A    between atoms: O_10  and  C_11
REMARK   11  A    between atoms: C_11  and  N_12
REMARK                            x       y       z     vdW  Elec       q    Type
REMARK                         _______ _______ _______ _____ _____    ______ ____
ROOT
ATOM      1  C   UNL     1       8.747  -3.943  25.503  0.00  0.00    +0.287 C 
ENDROOT
BRANCH   1   2
ATOM      2  N   UNL     1       7.597  -4.820  25.578  0.00  0.00    -0.291 N 
ATOM      3  C   UNL     1       6.857  -5.280  24.527  0.00  0.00    +0.171 A 
ATOM      4  N   UNL     1       7.042  -4.999  23.214  0.00  0.00    -0.196 NA
ATOM      5  C   UNL     1       6.179  -5.596  22.435  0.00  0.00    +0.195 A 
ATOM      6  N   UNL     1       6.229  -5.403  21.094  0.00  0.00    -0.329 N 
ATOM      7  H   UNL     1       5.932  -6.165  20.500  0.00  0.00    +0.145 HD
ATOM      8  H   UNL     1       7.094  -4.969  20.789  0.00  0.00    +0.145 HD
ATOM      9  N   UNL     1       5.186  -6.441  22.889  0.00  0.00    -0.293 N 
ATOM     10  H   UNL     1       4.532  -6.850  22.244  0.00  0.00    +0.172 HD
ATOM     11  C   UNL     1       4.954  -6.740  24.224  0.00  0.00    +0.280 A 
ATOM     12  O   UNL     1       4.043  -7.486  24.571  0.00  0.00    -0.265 OA
ATOM     13  C   UNL     1       5.892  -6.080  25.100  0.00  0.00    +0.172 A 
ATOM     14  N   UNL     1       5.997  -6.100  26.468  0.00  0.00    -0.229 NA
ATOM     15  C   UNL     1       7.033  -5.327  26.723  0.00  0.00    +0.203 A 
ENDBRANCH   1   2
BRANCH   1  16
ATOM     16  O   UNL     1       8.302  -2.648  25.106  0.00  0.00    -0.356 OA
BRANCH  16  17
ATOM     17  C   UNL     1       8.072  -1.789  26.223  0.00  0.00    +0.203 C 
BRANCH  17  18
ATOM     18  C   UNL     1       8.996  -0.577  26.096  0.00  0.00    +0.260 C 
BRANCH  18  19
ATOM     19  O   UNL     1       9.995  -0.782  25.077  0.00  0.00    -0.461 OA
BRANCH  19  20
ATOM     20  C   UNL     1      10.170   0.253  24.212  0.00  0.00    +0.324 C 
ATOM     21  O   UNL     1      10.308   1.425  24.541  0.00  0.00    -0.249 OA
BRANCH  20  22
ATOM     22  C   UNL     1      10.157  -0.244  22.753  0.00  0.00    +0.163 C 
BRANCH  22  24
ATOM     23  C   UNL     1       7.614  -0.019  22.784  0.00  0.00    +0.009 C 
ATOM     24  C   UNL     1       8.901   0.248  21.996  0.00  0.00    +0.010 C 
ATOM     25  C   UNL     1       8.977   1.748  21.679  0.00  0.00    +0.009 C 
ENDBRANCH  22  24
BRANCH  22  26
ATOM     26  N   UNL     1      10.196  -1.730  22.765  0.00  0.00    -0.318 NA
ATOM     27  H   UNL     1      11.128  -2.035  22.478  0.00  0.00    +0.119 HD
ATOM     28  H   UNL     1      10.117  -2.035  23.739  0.00  0.00    +0.119 HD
ENDBRANCH  22  26
ENDBRANCH  20  22
ENDBRANCH  19  20
ENDBRANCH  18  19
ENDBRANCH  17  18
ENDBRANCH  16  17
ENDBRANCH   1  16
TORSDOF 9
ENDMDL
