MODEL 1
REMARK VINA RESULT:      -6.5      0.000      0.000
REMARK  Name = 
REMARK  5 active torsions:
REMARK  status: ('A' for Active; 'I' for Inactive)
REMARK    1  A    between atoms: C_1  and  C_2
REMARK    2  A    between atoms: N_4  and  C_10
REMARK    3  A    between atoms: C_13  and  N_20
REMARK    4  A    between atoms: C_15  and  C_18
REMARK    5  A    between atoms: C_18  and  O_19
REMARK                            x       y       z     vdW  Elec       q    Type
REMARK                         _______ _______ _______ _____ _____    ______ ____
ROOT
ATOM      1  C   UNL     1       8.482  -3.168  23.860  0.00  0.00    +0.212 C 
ATOM      2  O   UNL     1       8.125  -2.012  24.629  0.00  0.00    -0.351 OA
ATOM      3  C   UNL     1       7.884  -0.925  23.713  0.00  0.00    +0.177 C 
ATOM      4  C   UNL     1       7.921  -1.506  22.291  0.00  0.00    +0.226 C 
ATOM      5  C   UNL     1       7.792  -3.000  22.517  0.00  0.00    +0.088 C 
ENDROOT
BRANCH   1  14
ATOM      6  C   UNL     1       6.506  -3.273  27.016  0.00  0.00    +0.019 C 
ATOM      7  C   UNL     1       6.414  -4.657  26.377  0.00  0.00    +0.090 C 
ATOM      8  C   UNL     1       7.397  -5.601  27.026  0.00  0.00    +0.225 C 
ATOM      9  O   UNL     1       7.166  -6.139  28.108  0.00  0.00    -0.275 OA
ATOM     10  N   UNL     1       8.610  -5.752  26.402  0.00  0.00    -0.240 N 
ATOM     11  H   UNL     1       9.316  -6.235  26.937  0.00  0.00    +0.159 HD
ATOM     12  C   UNL     1       9.077  -4.993  25.360  0.00  0.00    +0.310 C 
ATOM     13  O   UNL     1      10.283  -4.897  25.157  0.00  0.00    -0.252 OA
ATOM     14  N   UNL     1       8.106  -4.335  24.633  0.00  0.00    -0.259 N 
ATOM     15  C   UNL     1       6.710  -4.642  24.887  0.00  0.00    +0.124 C 
ENDBRANCH   1  14
BRANCH   4  16
ATOM     16  N   UNL     1       9.239  -1.251  21.673  0.00  0.00    +0.082 NA
ATOM     17  N   UNL     1       9.627  -0.068  21.684  0.00  0.00    -0.014 NA
ATOM     18  N   UNL     1       9.977   1.016  21.706  0.00  0.00    -0.328 NA
ENDBRANCH   4  16
BRANCH   3  19
ATOM     19  C   UNL     1       6.546  -0.276  24.077  0.00  0.00    +0.189 C 
BRANCH  19  20
ATOM     20  O   UNL     1       6.139   0.677  23.097  0.00  0.00    -0.392 OA
ATOM     21  H   UNL     1       5.801   0.154  22.347  0.00  0.00    +0.210 HD
ENDBRANCH  19  20
ENDBRANCH   3  19
TORSDOF 4
ENDMDL
MODEL 2
REMARK VINA RESULT:      -6.4      2.520      5.888
REMARK  Name = 
REMARK  5 active torsions:
REMARK  status: ('A' for Active; 'I' for Inactive)
REMARK    1  A    between atoms: C_1  and  C_2
REMARK    2  A    between atoms: N_4  and  C_10
REMARK    3  A    between atoms: C_13  and  N_20
REMARK    4  A    between atoms: C_15  and  C_18
REMARK    5  A    between atoms: C_18  and  O_19
REMARK                            x       y       z     vdW  Elec       q    Type
REMARK                         _______ _______ _______ _____ _____    ______ ____
ROOT
ATOM      1  C   UNL     1       8.335  -2.887  25.311  0.00  0.00    +0.212 C 
ATOM      2  O   UNL     1       8.623  -3.550  24.072  0.00  0.00    -0.351 OA
ATOM      3  C   UNL     1       8.062  -4.877  24.137  0.00  0.00    +0.177 C 
ATOM      4  C   UNL     1       7.226  -4.961  25.424  0.00  0.00    +0.226 C 
ATOM      5  C   UNL     1       7.047  -3.508  25.823  0.00  0.00    +0.088 C 
ENDROOT
BRANCH   1  14
ATOM      6  C   UNL     1      10.361  -0.983  22.832  0.00  0.00    +0.019 C 
ATOM      7  C   UNL     1       9.125  -0.143  23.149  0.00  0.00    +0.090 C 
ATOM      8  C   UNL     1       9.463   0.924  24.162  0.00  0.00    +0.225 C 
ATOM      9  O   UNL     1      10.031   1.969  23.844  0.00  0.00    -0.275 OA
ATOM     10  N   UNL     1       9.200   0.631  25.477  0.00  0.00    -0.240 N 
ATOM     11  H   UNL     1       9.595   1.269  26.152  0.00  0.00    +0.159 HD
ATOM     12  C   UNL     1       8.837  -0.597  25.970  0.00  0.00    +0.310 C 
ATOM     13  O   UNL     1       9.043  -0.876  27.146  0.00  0.00    -0.252 OA
ATOM     14  N   UNL     1       8.298  -1.464  25.041  0.00  0.00    -0.259 N 
ATOM     15  C   UNL     1       7.980  -0.965  23.715  0.00  0.00    +0.124 C 
ENDBRANCH   1  14
BRANCH   4  16
ATOM     16  N   UNL     1       8.001  -5.632  26.488  0.00  0.00    +0.082 NA
ATOM     17  N   UNL     1       7.386  -5.871  27.544  0.00  0.00    -0.014 NA
ATOM     18  N   UNL     1       6.812  -6.093  28.503  0.00  0.00    -0.328 NA
ENDBRANCH   4  16
BRANCH   3  19
ATOM     19  C   UNL     1       7.251  -5.120  22.862  0.00  0.00    +0.189 C 
BRANCH  19  20
ATOM     20  O   UNL     1       7.151  -3.939  22.067  0.00  0.00    -0.392 OA
ATOM     21  H   UNL     1       6.196  -3.766  21.975  0.00  0.00    +0.210 HD
ENDBRANCH  19  20
ENDBRANCH   3  19
TORSDOF 4
ENDMDL
MODEL 3
REMARK VINA RESULT:      -6.4      2.876      4.094
REMARK  Name = 
REMARK  5 active torsions:
REMARK  status: ('A' for Active; 'I' for Inactive)
REMARK    1  A    between atoms: C_1  and  C_2
REMARK    2  A    between atoms: N_4  and  C_10
REMARK    3  A    between atoms: C_13  and  N_20
REMARK    4  A    between atoms: C_15  and  C_18
REMARK    5  A    between atoms: C_18  and  O_19
REMARK                            x       y       z     vdW  Elec       q    Type
REMARK                         _______ _______ _______ _____ _____    ______ ____
ROOT
ATOM      1  C   UNL     1       7.590  -4.178  23.238  0.00  0.00    +0.212 C 
ATOM      2  O   UNL     1       7.991  -5.080  24.278  0.00  0.00    -0.351 OA
ATOM      3  C   UNL     1       8.990  -4.420  25.080  0.00  0.00    +0.177 C 
ATOM      4  C   UNL     1       9.069  -2.960  24.607  0.00  0.00    +0.226 C 
ATOM      5  C   UNL     1       7.796  -2.782  23.801  0.00  0.00    +0.088 C 
ENDROOT
BRANCH   1  14
ATOM      6  C   UNL     1       4.745  -5.022  25.489  0.00  0.00    +0.019 C 
ATOM      7  C   UNL     1       4.152  -4.584  24.152  0.00  0.00    +0.090 C 
ATOM      8  C   UNL     1       3.781  -5.789  23.322  0.00  0.00    +0.225 C 
ATOM      9  O   UNL     1       2.744  -6.422  23.519  0.00  0.00    -0.275 OA
ATOM     10  N   UNL     1       4.706  -6.211  22.402  0.00  0.00    -0.240 N 
ATOM     11  H   UNL     1       4.527  -7.115  21.989  0.00  0.00    +0.159 HD
ATOM     12  C   UNL     1       5.998  -5.761  22.295  0.00  0.00    +0.310 C 
ATOM     13  O   UNL     1       6.856  -6.462  21.770  0.00  0.00    -0.252 OA
ATOM     14  N   UNL     1       6.235  -4.525  22.863  0.00  0.00    -0.259 N 
ATOM     15  C   UNL     1       5.107  -3.738  23.328  0.00  0.00    +0.124 C 
ENDBRANCH   1  14
BRANCH   4  16
ATOM     16  N   UNL     1      10.215  -2.786  23.691  0.00  0.00    +0.082 NA
ATOM     17  N   UNL     1      10.267  -1.702  23.080  0.00  0.00    -0.014 NA
ATOM     18  N   UNL     1      10.310  -0.703  22.533  0.00  0.00    -0.328 NA
ENDBRANCH   4  16
BRANCH   3  19
ATOM     19  C   UNL     1       8.599  -4.567  26.553  0.00  0.00    +0.189 C 
BRANCH  19  20
ATOM     20  O   UNL     1       8.111  -5.876  26.841  0.00  0.00    -0.392 OA
ATOM     21  H   UNL     1       7.321  -5.745  27.398  0.00  0.00    +0.210 HD
ENDBRANCH  19  20
ENDBRANCH   3  19
TORSDOF 4
ENDMDL
MODEL 4
REMARK VINA RESULT:      -6.3      2.843      6.002
REMARK  Name = 
REMARK  5 active torsions:
REMARK  status: ('A' for Active; 'I' for Inactive)
REMARK    1  A    between atoms: C_1  and  C_2
REMARK    2  A    between atoms: N_4  and  C_10
REMARK    3  A    between atoms: C_13  and  N_20
REMARK    4  A    between atoms: C_15  and  C_18
REMARK    5  A    between atoms: C_18  and  O_19
REMARK                            x       y       z     vdW  Elec       q    Type
REMARK                         _______ _______ _______ _____ _____    ______ ____
ROOT
ATOM      1  C   UNL     1       8.947  -1.261  23.102  0.00  0.00    +0.212 C 
ATOM      2  O   UNL     1       7.583  -0.822  23.052  0.00  0.00    -0.351 OA
ATOM      3  C   UNL     1       6.782  -1.773  23.782  0.00  0.00    +0.177 C 
ATOM      4  C   UNL     1       7.745  -2.753  24.470  0.00  0.00    +0.226 C 
ATOM      5  C   UNL     1       9.083  -2.041  24.398  0.00  0.00    +0.088 C 
ENDROOT
BRANCH   1  14
ATOM      6  C   UNL     1       8.673   1.958  24.955  0.00  0.00    +0.019 C 
ATOM      7  C   UNL     1      10.100   1.862  24.420  0.00  0.00    +0.090 C 
ATOM      8  C   UNL     1      10.240   2.668  23.152  0.00  0.00    +0.225 C 
ATOM      9  O   UNL     1      10.379   3.891  23.168  0.00  0.00    -0.275 OA
ATOM     10  N   UNL     1      10.098   1.986  21.970  0.00  0.00    -0.240 N 
ATOM     11  H   UNL     1      10.010   2.561  21.144  0.00  0.00    +0.159 HD
ATOM     12  C   UNL     1       9.662   0.693  21.835  0.00  0.00    +0.310 C 
ATOM     13  O   UNL     1       9.161   0.315  20.781  0.00  0.00    -0.252 OA
ATOM     14  N   UNL     1       9.784  -0.086  22.968  0.00  0.00    -0.259 N 
ATOM     15  C   UNL     1      10.520   0.437  24.105  0.00  0.00    +0.124 C 
ENDBRANCH   1  14
BRANCH   4  16
ATOM     16  N   UNL     1       7.850  -3.999  23.682  0.00  0.00    +0.082 NA
ATOM     17  N   UNL     1       8.635  -4.859  24.120  0.00  0.00    -0.014 NA
ATOM     18  N   UNL     1       9.349  -5.644  24.536  0.00  0.00    -0.328 NA
ENDBRANCH   4  16
BRANCH   3  19
ATOM     19  C   UNL     1       5.890  -1.002  24.758  0.00  0.00    +0.189 C 
BRANCH  19  20
ATOM     20  O   UNL     1       5.546   0.287  24.253  0.00  0.00    -0.392 OA
ATOM     21  H   UNL     1       5.931   0.329  23.358  0.00  0.00    +0.210 HD
ENDBRANCH  19  20
ENDBRANCH   3  19
TORSDOF 4
ENDMDL
MODEL 5
REMARK VINA RESULT:      -6.3      2.902      6.254
REMARK  Name = 
REMARK  5 active torsions:
REMARK  status: ('A' for Active; 'I' for Inactive)
REMARK    1  A    between atoms: C_1  and  C_2
REMARK    2  A    between atoms: N_4  and  C_10
REMARK    3  A    between atoms: C_13  and  N_20
REMARK    4  A    between atoms: C_15  and  C_18
REMARK    5  A    between atoms: C_18  and  O_19
REMARK                            x       y       z     vdW  Elec       q    Type
REMARK                         _______ _______ _______ _____ _____    ______ ____
ROOT
ATOM      1  C   UNL     1       8.459  -0.959  22.883  0.00  0.00    +0.212 C 
ATOM      2  O   UNL     1       8.410  -1.384  24.252  0.00  0.00    -0.351 OA
ATOM      3  C   UNL     1       7.912  -2.737  24.280  0.00  0.00    +0.177 C 
ATOM      4  C   UNL     1       7.824  -3.226  22.826  0.00  0.00    +0.226 C 
ATOM      5  C   UNL     1       8.671  -2.222  22.066  0.00  0.00    +0.088 C 
ENDROOT
BRANCH   1  14
ATOM      6  C   UNL     1       8.891   2.079  24.994  0.00  0.00    +0.019 C 
ATOM      7  C   UNL     1      10.244   1.775  24.353  0.00  0.00    +0.090 C 
ATOM      8  C   UNL     1      10.460   2.653  23.144  0.00  0.00    +0.225 C 
ATOM      9  O   UNL     1      10.825   3.824  23.244  0.00  0.00    -0.275 OA
ATOM     10  N   UNL     1      10.128   2.115  21.926  0.00  0.00    -0.240 N 
ATOM     11  H   UNL     1      10.103   2.767  21.155  0.00  0.00    +0.159 HD
ATOM     12  C   UNL     1       9.453   0.938  21.723  0.00  0.00    +0.310 C 
ATOM     13  O   UNL     1       8.833   0.752  20.682  0.00  0.00    -0.252 OA
ATOM     14  N   UNL     1       9.491   0.052  22.781  0.00  0.00    -0.259 N 
ATOM     15  C   UNL     1      10.374   0.331  23.900  0.00  0.00    +0.124 C 
ENDBRANCH   1  14
BRANCH   4  16
ATOM     16  N   UNL     1       6.435  -3.113  22.336  0.00  0.00    +0.082 NA
ATOM     17  N   UNL     1       6.078  -3.967  21.504  0.00  0.00    -0.014 NA
ATOM     18  N   UNL     1       5.758  -4.759  20.749  0.00  0.00    -0.328 NA
ENDBRANCH   4  16
BRANCH   3  19
ATOM     19  C   UNL     1       8.847  -3.576  25.155  0.00  0.00    +0.189 C 
BRANCH  19  20
ATOM     20  O   UNL     1       9.318  -4.732  24.464  0.00  0.00    -0.392 OA
ATOM     21  H   UNL     1       9.686  -5.317  25.152  0.00  0.00    +0.210 HD
ENDBRANCH  19  20
ENDBRANCH   3  19
TORSDOF 4
ENDMDL
MODEL 6
REMARK VINA RESULT:      -6.3      2.199      6.313
REMARK  Name = 
REMARK  5 active torsions:
REMARK  status: ('A' for Active; 'I' for Inactive)
REMARK    1  A    between atoms: C_1  and  C_2
REMARK    2  A    between atoms: N_4  and  C_10
REMARK    3  A    between atoms: C_13  and  N_20
REMARK    4  A    between atoms: C_15  and  C_18
REMARK    5  A    between atoms: C_18  and  O_19
REMARK                            x       y       z     vdW  Elec       q    Type
REMARK                         _______ _______ _______ _____ _____    ______ ____
ROOT
ATOM      1  C   UNL     1       7.247  -3.046  25.446  0.00  0.00    +0.212 C 
ATOM      2  O   UNL     1       8.643  -3.113  25.767  0.00  0.00    -0.351 OA
ATOM      3  C   UNL     1       8.879  -4.351  26.469  0.00  0.00    +0.177 C 
ATOM      4  C   UNL     1       7.579  -5.168  26.410  0.00  0.00    +0.226 C 
ATOM      5  C   UNL     1       6.784  -4.486  25.312  0.00  0.00    +0.088 C 
ENDROOT
BRANCH   1  14
ATOM      6  C   UNL     1       9.454  -0.246  24.367  0.00  0.00    +0.019 C 
ATOM      7  C   UNL     1       8.703  -0.735  23.130  0.00  0.00    +0.090 C 
ATOM      8  C   UNL     1       7.521   0.161  22.846  0.00  0.00    +0.225 C 
ATOM      9  O   UNL     1       7.647   1.247  22.281  0.00  0.00    -0.275 OA
ATOM     10  N   UNL     1       6.308  -0.245  23.343  0.00  0.00    -0.240 N 
ATOM     11  H   UNL     1       5.571   0.444  23.306  0.00  0.00    +0.159 HD
ATOM     12  C   UNL     1       6.104  -1.279  24.220  0.00  0.00    +0.310 C 
ATOM     13  O   UNL     1       5.103  -1.300  24.929  0.00  0.00    -0.252 OA
ATOM     14  N   UNL     1       7.115  -2.217  24.265  0.00  0.00    -0.259 N 
ATOM     15  C   UNL     1       8.178  -2.152  23.277  0.00  0.00    +0.124 C 
ENDBRANCH   1  14
BRANCH   4  16
ATOM     16  N   UNL     1       6.829  -5.019  27.675  0.00  0.00    +0.082 NA
ATOM     17  N   UNL     1       6.803  -6.018  28.416  0.00  0.00    -0.014 NA
ATOM     18  N   UNL     1       6.793  -6.936  29.091  0.00  0.00    -0.328 NA
ENDBRANCH   4  16
BRANCH   3  19
ATOM     19  C   UNL     1      10.075  -5.052  25.819  0.00  0.00    +0.189 C 
BRANCH  19  20
ATOM     20  O   UNL     1       9.686  -5.796  24.665  0.00  0.00    -0.392 OA
ATOM     21  H   UNL     1      10.389  -6.459  24.532  0.00  0.00    +0.210 HD
ENDBRANCH  19  20
ENDBRANCH   3  19
TORSDOF 4
ENDMDL
MODEL 7
REMARK VINA RESULT:      -6.2      2.261      5.864
REMARK  Name = 
REMARK  5 active torsions:
REMARK  status: ('A' for Active; 'I' for Inactive)
REMARK    1  A    between atoms: C_1  and  C_2
REMARK    2  A    between atoms: N_4  and  C_10
REMARK    3  A    between atoms: C_13  and  N_20
REMARK    4  A    between atoms: C_15  and  C_18
REMARK    5  A    between atoms: C_18  and  O_19
REMARK                            x       y       z     vdW  Elec       q    Type
REMARK                         _______ _______ _______ _____ _____    ______ ____
ROOT
ATOM      1  C   UNL     1       8.278  -3.551  23.912  0.00  0.00    +0.212 C 
ATOM      2  O   UNL     1       7.607  -4.418  22.988  0.00  0.00    -0.351 OA
ATOM      3  C   UNL     1       6.741  -5.289  23.744  0.00  0.00    +0.177 C 
ATOM      4  C   UNL     1       6.752  -4.798  25.200  0.00  0.00    +0.226 C 
ATOM      5  C   UNL     1       7.339  -3.403  25.097  0.00  0.00    +0.088 C 
ENDROOT
BRANCH   1  14
ATOM      6  C   UNL     1       9.764  -0.429  25.298  0.00  0.00    +0.019 C 
ATOM      7  C   UNL     1      10.040  -0.435  23.796  0.00  0.00    +0.090 C 
ATOM      8  C   UNL     1       9.034   0.429  23.074  0.00  0.00    +0.225 C 
ATOM      9  O   UNL     1       9.135   1.655  23.039  0.00  0.00    -0.275 OA
ATOM     10  N   UNL     1       7.940  -0.208  22.546  0.00  0.00    -0.240 N 
ATOM     11  H   UNL     1       7.195   0.396  22.233  0.00  0.00    +0.159 HD
ATOM     12  C   UNL     1       7.585  -1.514  22.770  0.00  0.00    +0.310 C 
ATOM     13  O   UNL     1       6.419  -1.870  22.634  0.00  0.00    -0.252 OA
ATOM     14  N   UNL     1       8.609  -2.334  23.199  0.00  0.00    -0.259 N 
ATOM     15  C   UNL     1       9.969  -1.825  23.186  0.00  0.00    +0.124 C 
ENDBRANCH   1  14
BRANCH   4  16
ATOM     16  N   UNL     1       7.677  -5.622  26.005  0.00  0.00    +0.082 NA
ATOM     17  N   UNL     1       7.325  -5.853  27.177  0.00  0.00    -0.014 NA
ATOM     18  N   UNL     1       6.989  -6.066  28.245  0.00  0.00    -0.328 NA
ENDBRANCH   4  16
BRANCH   3  19
ATOM     19  C   UNL     1       5.352  -5.265  23.100  0.00  0.00    +0.189 C 
BRANCH  19  20
ATOM     20  O   UNL     1       5.329  -4.454  21.926  0.00  0.00    -0.392 OA
ATOM     21  H   UNL     1       6.089  -4.747  21.390  0.00  0.00    +0.210 HD
ENDBRANCH  19  20
ENDBRANCH   3  19
TORSDOF 4
ENDMDL
MODEL 8
REMARK VINA RESULT:      -6.2      2.385      5.721
REMARK  Name = 
REMARK  5 active torsions:
REMARK  status: ('A' for Active; 'I' for Inactive)
REMARK    1  A    between atoms: C_1  and  C_2
REMARK    2  A    between atoms: N_4  and  C_10
REMARK    3  A    between atoms: C_13  and  N_20
REMARK    4  A    between atoms: C_15  and  C_18
REMARK    5  A    between atoms: C_18  and  O_19
REMARK                            x       y       z     vdW  Elec       q    Type
REMARK                         _______ _______ _______ _____ _____    ______ ____
ROOT
ATOM      1  C   UNL     1       8.639  -2.644  24.289  0.00  0.00    +0.212 C 
ATOM      2  O   UNL     1       7.856  -2.946  23.126  0.00  0.00    -0.351 OA
ATOM      3  C   UNL     1       6.823  -3.874  23.515  0.00  0.00    +0.177 C 
ATOM      4  C   UNL     1       6.873  -4.004  25.046  0.00  0.00    +0.226 C 
ATOM      5  C   UNL     1       7.702  -2.808  25.473  0.00  0.00    +0.088 C 
ENDROOT
BRANCH   1  14
ATOM      6  C   UNL     1       6.944   0.397  22.966  0.00  0.00    +0.019 C 
ATOM      7  C   UNL     1       8.159   0.866  23.763  0.00  0.00    +0.090 C 
ATOM      8  C   UNL     1       9.310   1.171  22.834  0.00  0.00    +0.225 C 
ATOM      9  O   UNL     1       9.377   2.226  22.205  0.00  0.00    -0.275 OA
ATOM     10  N   UNL     1      10.229   0.170  22.643  0.00  0.00    -0.240 N 
ATOM     11  H   UNL     1      10.882   0.318  21.888  0.00  0.00    +0.159 HD
ATOM     12  C   UNL     1      10.102  -1.129  23.064  0.00  0.00    +0.310 C 
ATOM     13  O   UNL     1      10.722  -2.025  22.501  0.00  0.00    -0.252 OA
ATOM     14  N   UNL     1       9.207  -1.325  24.097  0.00  0.00    -0.259 N 
ATOM     15  C   UNL     1       8.643  -0.167  24.767  0.00  0.00    +0.124 C 
ENDBRANCH   1  14
BRANCH   4  16
ATOM     16  N   UNL     1       7.608  -5.227  25.427  0.00  0.00    +0.082 NA
ATOM     17  N   UNL     1       7.494  -5.586  26.613  0.00  0.00    -0.014 NA
ATOM     18  N   UNL     1       7.376  -5.910  27.700  0.00  0.00    -0.328 NA
ENDBRANCH   4  16
BRANCH   3  19
ATOM     19  C   UNL     1       5.484  -3.355  22.986  0.00  0.00    +0.189 C 
BRANCH  19  20
ATOM     20  O   UNL     1       5.399  -3.466  21.566  0.00  0.00    -0.392 OA
ATOM     21  H   UNL     1       6.315  -3.590  21.257  0.00  0.00    +0.210 HD
ENDBRANCH  19  20
ENDBRANCH   3  19
TORSDOF 4
ENDMDL
MODEL 9
REMARK VINA RESULT:      -6.1      2.764      5.584
REMARK  Name = 
REMARK  5 active torsions:
REMARK  status: ('A' for Active; 'I' for Inactive)
REMARK    1  A    between atoms: C_1  and  C_2
REMARK    2  A    between atoms: N_4  and  C_10
REMARK    3  A    between atoms: C_13  and  N_20
REMARK    4  A    between atoms: C_15  and  C_18
REMARK    5  A    between atoms: C_18  and  O_19
REMARK                            x       y       z     vdW  Elec       q    Type
REMARK                         _______ _______ _______ _____ _____    ______ ____
ROOT
ATOM      1  C   UNL     1       7.407  -1.863  23.813  0.00  0.00    +0.212 C 
ATOM      2  O   UNL     1       7.509  -3.063  24.591  0.00  0.00    -0.351 OA
ATOM      3  C   UNL     1       7.064  -4.164  23.772  0.00  0.00    +0.177 C 
ATOM      4  C   UNL     1       6.850  -3.621  22.349  0.00  0.00    +0.226 C 
ATOM      5  C   UNL     1       7.581  -2.292  22.366  0.00  0.00    +0.088 C 
ENDROOT
BRANCH   1  14
ATOM      6  C   UNL     1       8.086   1.608  22.646  0.00  0.00    +0.019 C 
ATOM      7  C   UNL     1       8.620   1.497  24.072  0.00  0.00    +0.090 C 
ATOM      8  C   UNL     1      10.110   1.259  24.057  0.00  0.00    +0.225 C 
ATOM      9  O   UNL     1      10.915   2.174  23.880  0.00  0.00    -0.275 OA
ATOM     10  N   UNL     1      10.528  -0.045  24.146  0.00  0.00    -0.240 N 
ATOM     11  H   UNL     1      11.505  -0.203  23.952  0.00  0.00    +0.159 HD
ATOM     12  C   UNL     1       9.724  -1.153  24.061  0.00  0.00    +0.310 C 
ATOM     13  O   UNL     1      10.195  -2.233  23.720  0.00  0.00    -0.252 OA
ATOM     14  N   UNL     1       8.388  -0.930  24.328  0.00  0.00    -0.259 N 
ATOM     15  C   UNL     1       7.984   0.361  24.856  0.00  0.00    +0.124 C 
ENDBRANCH   1  14
BRANCH   4  16
ATOM     16  N   UNL     1       5.416  -3.349  22.121  0.00  0.00    +0.082 NA
ATOM     17  N   UNL     1       4.628  -4.249  22.465  0.00  0.00    -0.014 NA
ATOM     18  N   UNL     1       3.914  -5.076  22.791  0.00  0.00    -0.328 NA
ENDBRANCH   4  16
BRANCH   3  19
ATOM     19  C   UNL     1       8.110  -5.278  23.852  0.00  0.00    +0.189 C 
BRANCH  19  20
ATOM     20  O   UNL     1       9.316  -4.826  24.467  0.00  0.00    -0.392 OA
ATOM     21  H   UNL     1       9.299  -3.854  24.394  0.00  0.00    +0.210 HD
ENDBRANCH  19  20
ENDBRANCH   3  19
TORSDOF 4
ENDMDL
