MODEL 1
REMARK VINA RESULT:      -7.6      0.000      0.000
REMARK  Name = 
REMARK  17 active torsions:
REMARK  status: ('A' for Active; 'I' for Inactive)
REMARK    1  A    between atoms: C_1  and  C_2
REMARK    2  A    between atoms: C_2  and  C_3
REMARK    3  A    between atoms: C_2  and  C_4
REMARK    4  A    between atoms: C_2  and  N_5
REMARK    5  A    between atoms: C_6  and  C_8
REMARK    6  A    between atoms: N_11  and  C_44
REMARK    7  A    between atoms: N_14  and  C_15
REMARK    8  A    between atoms: C_15  and  C_16
REMARK    9  A    between atoms: C_16  and  C_18
REMARK   10  A    between atoms: C_16  and  O_43
REMARK   11  A    between atoms: C_18  and  C_19
REMARK   12  A    between atoms: C_19  and  C_21
REMARK   13  A    between atoms: C_19  and  C_28
REMARK   14  A    between atoms: C_21  and  C_22
REMARK   15  A    between atoms: N_30  and  C_31
REMARK   16  A    between atoms: C_33  and  O_42
REMARK   17  A    between atoms: C_44  and  C_45
REMARK                            x       y       z     vdW  Elec       q    Type
REMARK                         _______ _______ _______ _____ _____    ______ ____
ROOT
ATOM      1  C   UNL     1       8.417  -0.688  26.623  0.00  0.00    +0.129 C 
ENDROOT
BRANCH   1   2
ATOM      2  O   UNL     1       9.333  -0.455  27.699  0.00  0.00    -0.391 OA
ATOM      3  H   UNL     1       8.797  -0.175  28.463  0.00  0.00    +0.210 HD
ENDBRANCH   1   2
BRANCH   1   4
ATOM      4  C   UNL     1       6.952  -0.331  27.051  0.00  0.00    +0.116 C 
BRANCH   4   6
ATOM      5  C   UNL     1       5.262   1.566  26.677  0.00  0.00    +0.157 C 
ATOM      6  N   UNL     1       6.679   1.129  26.953  0.00  0.00    -0.287 NA
ATOM      7  C   UNL     1       7.568   1.825  25.989  0.00  0.00    +0.100 C 
ATOM      8  C   UNL     1       7.113   1.769  24.515  0.00  0.00    +0.100 C 
ATOM      9  N   UNL     1       5.873   2.534  24.438  0.00  0.00    -0.295 NA
ATOM     10  C   UNL     1       4.842   1.788  25.184  0.00  0.00    +0.113 C 
BRANCH   5  13
ATOM     11  N   UNL     1       3.825  -0.441  26.745  0.00  0.00    -0.309 N 
ATOM     12  H   UNL     1       4.209  -0.575  25.813  0.00  0.00    +0.149 HD
ATOM     13  C   UNL     1       4.168   0.742  27.372  0.00  0.00    +0.232 C 
ATOM     14  O   UNL     1       3.694   1.078  28.455  0.00  0.00    -0.274 OA
BRANCH  11  16
ATOM     15  C   UNL     1       3.308  -1.861  28.708  0.00  0.00    +0.031 C 
ATOM     16  C   UNL     1       2.880  -1.416  27.303  0.00  0.00    +0.026 C 
ATOM     17  C   UNL     1       1.499  -0.750  27.430  0.00  0.00    +0.031 C 
ATOM     18  C   UNL     1       2.758  -2.644  26.389  0.00  0.00    +0.031 C 
ENDBRANCH  11  16
ENDBRANCH   5  13
BRANCH   9  19
ATOM     19  C   UNL     1       5.489   2.911  23.081  0.00  0.00    +0.119 C 
BRANCH  19  20
ATOM     20  C   UNL     1       5.898   4.335  22.753  0.00  0.00    -0.033 A 
ATOM     21  C   UNL     1       5.012   5.401  22.964  0.00  0.00    +0.005 A 
ATOM     22  C   UNL     1       5.405   6.712  22.688  0.00  0.00    +0.000 A 
ATOM     23  C   UNL     1       6.683   6.974  22.193  0.00  0.00    +0.000 A 
ATOM     24  C   UNL     1       7.568   5.922  21.963  0.00  0.00    +0.000 A 
ATOM     25  C   UNL     1       7.176   4.611  22.235  0.00  0.00    +0.005 A 
ENDBRANCH  19  20
ENDBRANCH   9  19
ENDBRANCH   4   6
ENDBRANCH   1   4
BRANCH   1  26
ATOM     26  C   UNL     1       8.693  -2.083  26.047  0.00  0.00    +0.045 C 
BRANCH  26  27
ATOM     27  C   UNL     1       8.838  -2.263  24.513  0.00  0.00    +0.082 C 
BRANCH  27  28
ATOM     28  C   UNL     1       8.529  -3.718  24.098  0.00  0.00    +0.217 C 
ATOM     29  N   UNL     1       7.280  -3.929  23.535  0.00  0.00    -0.306 N 
ATOM     30  H   UNL     1       6.621  -3.163  23.531  0.00  0.00    +0.149 HD
ATOM     31  O   UNL     1       9.295  -4.648  24.339  0.00  0.00    -0.275 OA
BRANCH  29  32
ATOM     32  C   UNL     1       6.706  -5.273  23.512  0.00  0.00    +0.132 C 
ATOM     33  C   UNL     1       5.886  -5.556  24.744  0.00  0.00    -0.022 A 
ATOM     34  C   UNL     1       4.543  -5.791  24.434  0.00  0.00    -0.040 A 
ATOM     35  C   UNL     1       3.629  -6.151  25.413  0.00  0.00    +0.004 A 
ATOM     36  C   UNL     1       4.075  -6.265  26.731  0.00  0.00    +0.000 A 
ATOM     37  C   UNL     1       5.414  -5.996  27.052  0.00  0.00    +0.000 A 
ATOM     38  C   UNL     1       4.270  -5.571  22.985  0.00  0.00    +0.069 C 
ATOM     39  C   UNL     1       6.329  -5.641  26.057  0.00  0.00    +0.006 A 
ATOM     40  C   UNL     1       5.680  -5.561  22.364  0.00  0.00    +0.143 C 
BRANCH  40  41
ATOM     41  O   UNL     1       5.713  -4.622  21.293  0.00  0.00    -0.389 OA
ATOM     42  H   UNL     1       5.104  -4.957  20.611  0.00  0.00    +0.210 HD
ENDBRANCH  40  41
ENDBRANCH  29  32
ENDBRANCH  27  28
BRANCH  27  43
ATOM     43  C   UNL     1      10.113  -1.701  23.856  0.00  0.00    +0.048 C 
BRANCH  43  44
ATOM     44  C   UNL     1      10.292  -0.240  23.481  0.00  0.00    -0.047 A 
ATOM     45  C   UNL     1       9.804   0.153  22.224  0.00  0.00    +0.003 A 
ATOM     46  C   UNL     1       9.745   1.496  21.852  0.00  0.00    +0.000 A 
ATOM     47  C   UNL     1      10.231   2.469  22.714  0.00  0.00    +0.000 A 
ATOM     48  C   UNL     1      10.817   2.086  23.918  0.00  0.00    +0.000 A 
ATOM     49  C   UNL     1      10.871   0.733  24.287  0.00  0.00    +0.003 A 
ENDBRANCH  43  44
ENDBRANCH  27  43
ENDBRANCH  26  27
ENDBRANCH   1  26
TORSDOF 14
ENDMDL
MODEL 2
REMARK VINA RESULT:      -7.4      2.395      4.545
REMARK  Name = 
REMARK  17 active torsions:
REMARK  status: ('A' for Active; 'I' for Inactive)
REMARK    1  A    between atoms: C_1  and  C_2
REMARK    2  A    between atoms: C_2  and  C_3
REMARK    3  A    between atoms: C_2  and  C_4
REMARK    4  A    between atoms: C_2  and  N_5
REMARK    5  A    between atoms: C_6  and  C_8
REMARK    6  A    between atoms: N_11  and  C_44
REMARK    7  A    between atoms: N_14  and  C_15
REMARK    8  A    between atoms: C_15  and  C_16
REMARK    9  A    between atoms: C_16  and  C_18
REMARK   10  A    between atoms: C_16  and  O_43
REMARK   11  A    between atoms: C_18  and  C_19
REMARK   12  A    between atoms: C_19  and  C_21
REMARK   13  A    between atoms: C_19  and  C_28
REMARK   14  A    between atoms: C_21  and  C_22
REMARK   15  A    between atoms: N_30  and  C_31
REMARK   16  A    between atoms: C_33  and  O_42
REMARK   17  A    between atoms: C_44  and  C_45
REMARK                            x       y       z     vdW  Elec       q    Type
REMARK                         _______ _______ _______ _____ _____    ______ ____
ROOT
ATOM      1  C   UNL     1       4.769   1.205  27.993  0.00  0.00    +0.129 C 
ENDROOT
BRANCH   1   2
ATOM      2  O   UNL     1       3.470   0.758  28.398  0.00  0.00    -0.391 OA
ATOM      3  H   UNL     1       3.547   0.496  29.333  0.00  0.00    +0.210 HD
ENDBRANCH   1   2
BRANCH   1   4
ATOM      4  C   UNL     1       4.680   2.070  26.688  0.00  0.00    +0.116 C 
BRANCH   4   6
ATOM      5  C   UNL     1       4.955   4.483  25.852  0.00  0.00    +0.157 C 
ATOM      6  N   UNL     1       5.287   3.417  26.868  0.00  0.00    -0.287 NA
ATOM      7  C   UNL     1       6.763   3.378  27.023  0.00  0.00    +0.100 C 
ATOM      8  C   UNL     1       7.563   3.333  25.703  0.00  0.00    +0.100 C 
ATOM      9  N   UNL     1       7.330   4.610  25.038  0.00  0.00    -0.295 NA
ATOM     10  C   UNL     1       5.916   4.649  24.625  0.00  0.00    +0.113 C 
BRANCH   5  13
ATOM     11  N   UNL     1       3.342   4.085  24.025  0.00  0.00    -0.309 N 
ATOM     12  H   UNL     1       4.196   3.989  23.481  0.00  0.00    +0.149 HD
ATOM     13  C   UNL     1       3.508   4.480  25.339  0.00  0.00    +0.232 C 
ATOM     14  O   UNL     1       2.558   4.733  26.078  0.00  0.00    -0.274 OA
BRANCH  11  16
ATOM     15  C   UNL     1       1.342   5.270  23.167  0.00  0.00    +0.031 C 
ATOM     16  C   UNL     1       2.033   3.916  23.383  0.00  0.00    +0.026 C 
ATOM     17  C   UNL     1       2.239   3.277  21.998  0.00  0.00    +0.031 C 
ATOM     18  C   UNL     1       1.127   3.003  24.222  0.00  0.00    +0.031 C 
ENDBRANCH  11  16
ENDBRANCH   5  13
BRANCH   9  19
ATOM     19  C   UNL     1       8.284   4.909  23.972  0.00  0.00    +0.119 C 
BRANCH  19  20
ATOM     20  C   UNL     1       8.763   3.649  23.275  0.00  0.00    -0.033 A 
ATOM     21  C   UNL     1       8.006   3.065  22.251  0.00  0.00    +0.005 A 
ATOM     22  C   UNL     1       8.467   1.922  21.593  0.00  0.00    +0.000 A 
ATOM     23  C   UNL     1       9.686   1.348  21.954  0.00  0.00    +0.000 A 
ATOM     24  C   UNL     1      10.442   1.909  22.981  0.00  0.00    +0.000 A 
ATOM     25  C   UNL     1       9.980   3.048  23.642  0.00  0.00    +0.005 A 
ENDBRANCH  19  20
ENDBRANCH   9  19
ENDBRANCH   4   6
ENDBRANCH   1   4
BRANCH   1  26
ATOM     26  C   UNL     1       5.721   0.001  28.010  0.00  0.00    +0.045 C 
BRANCH  26  27
ATOM     27  C   UNL     1       6.099  -0.695  26.676  0.00  0.00    +0.082 C 
BRANCH  27  28
ATOM     28  C   UNL     1       5.965  -2.229  26.798  0.00  0.00    +0.217 C 
ATOM     29  N   UNL     1       7.103  -2.957  26.488  0.00  0.00    -0.306 N 
ATOM     30  H   UNL     1       7.898  -2.463  26.104  0.00  0.00    +0.149 HD
ATOM     31  O   UNL     1       4.897  -2.778  27.055  0.00  0.00    -0.275 OA
BRANCH  29  32
ATOM     32  C   UNL     1       6.994  -4.371  26.139  0.00  0.00    +0.132 C 
ATOM     33  C   UNL     1       6.655  -4.569  24.684  0.00  0.00    -0.022 A 
ATOM     34  C   UNL     1       7.666  -5.251  24.001  0.00  0.00    -0.040 A 
ATOM     35  C   UNL     1       7.522  -5.609  22.669  0.00  0.00    +0.004 A 
ATOM     36  C   UNL     1       6.343  -5.261  22.010  0.00  0.00    +0.000 A 
ATOM     37  C   UNL     1       5.340  -4.545  22.680  0.00  0.00    +0.000 A 
ATOM     38  C   UNL     1       8.854  -5.484  24.872  0.00  0.00    +0.069 C 
ATOM     39  C   UNL     1       5.491  -4.196  24.025  0.00  0.00    +0.006 A 
ATOM     40  C   UNL     1       8.303  -5.218  26.287  0.00  0.00    +0.143 C 
BRANCH  40  41
ATOM     41  O   UNL     1       9.318  -4.604  27.076  0.00  0.00    -0.389 OA
ATOM     42  H   UNL     1       8.862  -4.075  27.753  0.00  0.00    +0.210 HD
ENDBRANCH  40  41
ENDBRANCH  29  32
ENDBRANCH  27  28
BRANCH  27  43
ATOM     43  C   UNL     1       7.409  -0.251  25.999  0.00  0.00    +0.048 C 
BRANCH  43  44
ATOM     44  C   UNL     1       7.906  -0.814  24.678  0.00  0.00    -0.047 A 
ATOM     45  C   UNL     1       9.233  -1.274  24.648  0.00  0.00    +0.003 A 
ATOM     46  C   UNL     1       9.736  -1.977  23.553  0.00  0.00    +0.000 A 
ATOM     47  C   UNL     1       8.933  -2.180  22.439  0.00  0.00    +0.000 A 
ATOM     48  C   UNL     1       7.652  -1.635  22.411  0.00  0.00    +0.000 A 
ATOM     49  C   UNL     1       7.151  -0.931  23.517  0.00  0.00    +0.003 A 
ENDBRANCH  43  44
ENDBRANCH  27  43
ENDBRANCH  26  27
ENDBRANCH   1  26
TORSDOF 14
ENDMDL
MODEL 3
REMARK VINA RESULT:      -7.4      2.344      5.368
REMARK  Name = 
REMARK  17 active torsions:
REMARK  status: ('A' for Active; 'I' for Inactive)
REMARK    1  A    between atoms: C_1  and  C_2
REMARK    2  A    between atoms: C_2  and  C_3
REMARK    3  A    between atoms: C_2  and  C_4
REMARK    4  A    between atoms: C_2  and  N_5
REMARK    5  A    between atoms: C_6  and  C_8
REMARK    6  A    between atoms: N_11  and  C_44
REMARK    7  A    between atoms: N_14  and  C_15
REMARK    8  A    between atoms: C_15  and  C_16
REMARK    9  A    between atoms: C_16  and  C_18
REMARK   10  A    between atoms: C_16  and  O_43
REMARK   11  A    between atoms: C_18  and  C_19
REMARK   12  A    between atoms: C_19  and  C_21
REMARK   13  A    between atoms: C_19  and  C_28
REMARK   14  A    between atoms: C_21  and  C_22
REMARK   15  A    between atoms: N_30  and  C_31
REMARK   16  A    between atoms: C_33  and  O_42
REMARK   17  A    between atoms: C_44  and  C_45
REMARK                            x       y       z     vdW  Elec       q    Type
REMARK                         _______ _______ _______ _____ _____    ______ ____
ROOT
ATOM      1  C   UNL     1       5.705   1.693  27.166  0.00  0.00    +0.129 C 
ENDROOT
BRANCH   1   2
ATOM      2  O   UNL     1       4.542   1.548  27.989  0.00  0.00    -0.391 OA
ATOM      3  H   UNL     1       4.805   0.988  28.743  0.00  0.00    +0.210 HD
ENDBRANCH   1   2
BRANCH   1   4
ATOM      4  C   UNL     1       5.335   2.339  25.786  0.00  0.00    +0.116 C 
BRANCH   4   6
ATOM      5  C   UNL     1       6.280   3.942  24.016  0.00  0.00    +0.157 C 
ATOM      6  N   UNL     1       6.214   3.494  25.455  0.00  0.00    -0.287 NA
ATOM      7  C   UNL     1       7.605   3.329  25.946  0.00  0.00    +0.100 C 
ATOM      8  C   UNL     1       8.537   2.516  25.022  0.00  0.00    +0.100 C 
ATOM      9  N   UNL     1       8.704   3.306  23.808  0.00  0.00    -0.295 NA
ATOM     10  C   UNL     1       7.405   3.333  23.110  0.00  0.00    +0.113 C 
BRANCH   5  13
ATOM     11  N   UNL     1       3.960   4.729  23.707  0.00  0.00    -0.309 N 
ATOM     12  H   UNL     1       4.144   5.181  24.599  0.00  0.00    +0.149 HD
ATOM     13  C   UNL     1       4.954   3.887  23.244  0.00  0.00    +0.232 C 
ATOM     14  O   UNL     1       4.820   3.200  22.234  0.00  0.00    -0.274 OA
BRANCH  11  16
ATOM     15  C   UNL     1       1.961   3.549  22.842  0.00  0.00    +0.031 C 
ATOM     16  C   UNL     1       2.661   4.899  23.045  0.00  0.00    +0.026 C 
ATOM     17  C   UNL     1       1.756   5.759  23.944  0.00  0.00    +0.031 C 
ATOM     18  C   UNL     1       2.827   5.603  21.690  0.00  0.00    +0.031 C 
ENDBRANCH  11  16
ENDBRANCH   5  13
BRANCH   9  19
ATOM     19  C   UNL     1       9.832   2.893  22.978  0.00  0.00    +0.119 C 
BRANCH  19  20
ATOM     20  C   UNL     1       9.843   1.392  22.747  0.00  0.00    -0.033 A 
ATOM     21  C   UNL     1       9.301   0.844  21.577  0.00  0.00    +0.005 A 
ATOM     22  C   UNL     1       9.341  -0.535  21.358  0.00  0.00    +0.000 A 
ATOM     23  C   UNL     1       9.916  -1.381  22.306  0.00  0.00    +0.000 A 
ATOM     24  C   UNL     1      10.444  -0.851  23.481  0.00  0.00    +0.000 A 
ATOM     25  C   UNL     1      10.402   0.527  23.703  0.00  0.00    +0.005 A 
ENDBRANCH  19  20
ENDBRANCH   9  19
ENDBRANCH   4   6
ENDBRANCH   1   4
BRANCH   1  26
ATOM     26  C   UNL     1       6.468   0.361  27.170  0.00  0.00    +0.045 C 
BRANCH  26  27
ATOM     27  C   UNL     1       6.138  -0.714  26.100  0.00  0.00    +0.082 C 
BRANCH  27  28
ATOM     28  C   UNL     1       5.021  -1.657  26.595  0.00  0.00    +0.217 C 
ATOM     29  N   UNL     1       5.432  -2.926  26.972  0.00  0.00    -0.306 N 
ATOM     30  H   UNL     1       6.394  -3.189  26.803  0.00  0.00    +0.149 HD
ATOM     31  O   UNL     1       3.834  -1.345  26.564  0.00  0.00    -0.275 OA
BRANCH  29  32
ATOM     32  C   UNL     1       4.466  -4.021  27.031  0.00  0.00    +0.132 C 
ATOM     33  C   UNL     1       4.276  -4.676  25.687  0.00  0.00    -0.022 A 
ATOM     34  C   UNL     1       4.665  -6.019  25.701  0.00  0.00    -0.040 A 
ATOM     35  C   UNL     1       4.497  -6.830  24.589  0.00  0.00    +0.004 A 
ATOM     36  C   UNL     1       3.938  -6.275  23.438  0.00  0.00    +0.000 A 
ATOM     37  C   UNL     1       3.578  -4.920  23.407  0.00  0.00    +0.000 A 
ATOM     38  C   UNL     1       5.279  -6.396  27.007  0.00  0.00    +0.069 C 
ATOM     39  C   UNL     1       3.743  -4.112  24.535  0.00  0.00    +0.006 A 
ATOM     40  C   UNL     1       4.860  -5.238  27.933  0.00  0.00    +0.143 C 
BRANCH  40  41
ATOM     41  O   UNL     1       5.914  -4.973  28.856  0.00  0.00    -0.389 OA
ATOM     42  H   UNL     1       6.691  -4.725  28.326  0.00  0.00    +0.210 HD
ENDBRANCH  40  41
ENDBRANCH  29  32
ENDBRANCH  27  28
BRANCH  27  43
ATOM     43  C   UNL     1       7.326  -1.459  25.463  0.00  0.00    +0.048 C 
BRANCH  43  44
ATOM     44  C   UNL     1       7.174  -2.526  24.393  0.00  0.00    -0.047 A 
ATOM     45  C   UNL     1       6.495  -2.152  23.222  0.00  0.00    +0.003 A 
ATOM     46  C   UNL     1       6.458  -2.985  22.103  0.00  0.00    +0.000 A 
ATOM     47  C   UNL     1       7.052  -4.238  22.160  0.00  0.00    +0.000 A 
ATOM     48  C   UNL     1       7.634  -4.666  23.351  0.00  0.00    +0.000 A 
ATOM     49  C   UNL     1       7.671  -3.822  24.471  0.00  0.00    +0.003 A 
ENDBRANCH  43  44
ENDBRANCH  27  43
ENDBRANCH  26  27
ENDBRANCH   1  26
TORSDOF 14
ENDMDL
MODEL 4
REMARK VINA RESULT:      -7.2      2.378      7.016
REMARK  Name = 
REMARK  17 active torsions:
REMARK  status: ('A' for Active; 'I' for Inactive)
REMARK    1  A    between atoms: C_1  and  C_2
REMARK    2  A    between atoms: C_2  and  C_3
REMARK    3  A    between atoms: C_2  and  C_4
REMARK    4  A    between atoms: C_2  and  N_5
REMARK    5  A    between atoms: C_6  and  C_8
REMARK    6  A    between atoms: N_11  and  C_44
REMARK    7  A    between atoms: N_14  and  C_15
REMARK    8  A    between atoms: C_15  and  C_16
REMARK    9  A    between atoms: C_16  and  C_18
REMARK   10  A    between atoms: C_16  and  O_43
REMARK   11  A    between atoms: C_18  and  C_19
REMARK   12  A    between atoms: C_19  and  C_21
REMARK   13  A    between atoms: C_19  and  C_28
REMARK   14  A    between atoms: C_21  and  C_22
REMARK   15  A    between atoms: N_30  and  C_31
REMARK   16  A    between atoms: C_33  and  O_42
REMARK   17  A    between atoms: C_44  and  C_45
REMARK                            x       y       z     vdW  Elec       q    Type
REMARK                         _______ _______ _______ _____ _____    ______ ____
ROOT
ATOM      1  C   UNL     1       8.018  -3.926  26.318  0.00  0.00    +0.129 C 
ENDROOT
BRANCH   1   2
ATOM      2  O   UNL     1       8.712  -4.927  27.072  0.00  0.00    -0.391 OA
ATOM      3  H   UNL     1       9.381  -4.458  27.603  0.00  0.00    +0.210 HD
ENDBRANCH   1   2
BRANCH   1   4
ATOM      4  C   UNL     1       9.016  -2.844  25.776  0.00  0.00    +0.116 C 
BRANCH   4   6
ATOM      5  C   UNL     1       8.045  -1.362  23.917  0.00  0.00    +0.157 C 
ATOM      6  N   UNL     1       8.322  -1.588  25.383  0.00  0.00    -0.287 NA
ATOM      7  C   UNL     1       8.975  -0.367  25.918  0.00  0.00    +0.100 C 
ATOM      8  C   UNL     1      10.153   0.171  25.078  0.00  0.00    +0.100 C 
ATOM      9  N   UNL     1       9.584   0.623  23.813  0.00  0.00    -0.295 NA
ATOM     10  C   UNL     1       9.110  -0.568  23.085  0.00  0.00    +0.113 C 
BRANCH   5  13
ATOM     11  N   UNL     1       6.370  -3.093  23.374  0.00  0.00    -0.309 N 
ATOM     12  H   UNL     1       5.889  -2.678  24.167  0.00  0.00    +0.149 HD
ATOM     13  C   UNL     1       7.640  -2.611  23.120  0.00  0.00    +0.232 C 
ATOM     14  O   UNL     1       8.371  -3.094  22.258  0.00  0.00    -0.274 OA
BRANCH  11  16
ATOM     15  C   UNL     1       6.439  -5.541  22.994  0.00  0.00    +0.031 C 
ATOM     16  C   UNL     1       5.760  -4.210  22.641  0.00  0.00    +0.026 C 
ATOM     17  C   UNL     1       4.281  -4.323  23.052  0.00  0.00    +0.031 C 
ATOM     18  C   UNL     1       5.839  -3.978  21.125  0.00  0.00    +0.031 C 
ENDBRANCH  11  16
ENDBRANCH   5  13
BRANCH   9  19
ATOM     19  C   UNL     1      10.464   1.497  23.042  0.00  0.00    +0.119 C 
BRANCH  19  20
ATOM     20  C   UNL     1      10.322   2.950  23.456  0.00  0.00    -0.033 A 
ATOM     21  C   UNL     1      11.401   3.836  23.342  0.00  0.00    +0.005 A 
ATOM     22  C   UNL     1      11.255   5.179  23.697  0.00  0.00    +0.000 A 
ATOM     23  C   UNL     1      10.032   5.650  24.176  0.00  0.00    +0.000 A 
ATOM     24  C   UNL     1       8.956   4.776  24.310  0.00  0.00    +0.000 A 
ATOM     25  C   UNL     1       9.101   3.433  23.959  0.00  0.00    +0.005 A 
ENDBRANCH  19  20
ENDBRANCH   9  19
ENDBRANCH   4   6
ENDBRANCH   1   4
BRANCH   1  26
ATOM     26  C   UNL     1       6.806  -3.460  27.135  0.00  0.00    +0.045 C 
BRANCH  26  27
ATOM     27  C   UNL     1       5.385  -3.549  26.516  0.00  0.00    +0.082 C 
BRANCH  27  28
ATOM     28  C   UNL     1       4.823  -2.141  26.224  0.00  0.00    +0.217 C 
ATOM     29  N   UNL     1       5.604  -1.081  26.659  0.00  0.00    -0.306 N 
ATOM     30  H   UNL     1       6.418  -1.285  27.224  0.00  0.00    +0.149 HD
ATOM     31  O   UNL     1       3.713  -1.965  25.729  0.00  0.00    -0.275 OA
BRANCH  29  32
ATOM     32  C   UNL     1       5.008   0.239  26.844  0.00  0.00    +0.132 C 
ATOM     33  C   UNL     1       5.744   1.050  27.879  0.00  0.00    -0.022 A 
ATOM     34  C   UNL     1       6.306   2.208  27.332  0.00  0.00    -0.040 A 
ATOM     35  C   UNL     1       6.958   3.138  28.127  0.00  0.00    +0.004 A 
ATOM     36  C   UNL     1       7.058   2.890  29.497  0.00  0.00    +0.000 A 
ATOM     37  C   UNL     1       6.527   1.713  30.045  0.00  0.00    +0.000 A 
ATOM     38  C   UNL     1       6.128   2.256  25.852  0.00  0.00    +0.069 C 
ATOM     39  C   UNL     1       5.864   0.786  29.236  0.00  0.00    +0.006 A 
ATOM     40  C   UNL     1       5.044   1.190  25.599  0.00  0.00    +0.143 C 
BRANCH  40  41
ATOM     41  O   UNL     1       5.313   0.534  24.363  0.00  0.00    -0.389 OA
ATOM     42  H   UNL     1       6.143   0.911  24.022  0.00  0.00    +0.210 HD
ENDBRANCH  40  41
ENDBRANCH  29  32
ENDBRANCH  27  28
BRANCH  27  43
ATOM     43  C   UNL     1       4.372  -4.476  27.213  0.00  0.00    +0.048 C 
BRANCH  43  44
ATOM     44  C   UNL     1       3.500  -5.476  26.475  0.00  0.00    -0.047 A 
ATOM     45  C   UNL     1       4.159  -6.544  25.846  0.00  0.00    +0.003 A 
ATOM     46  C   UNL     1       3.454  -7.617  25.300  0.00  0.00    +0.000 A 
ATOM     47  C   UNL     1       2.066  -7.609  25.323  0.00  0.00    +0.000 A 
ATOM     48  C   UNL     1       1.397  -6.505  25.845  0.00  0.00    +0.000 A 
ATOM     49  C   UNL     1       2.113  -5.430  26.396  0.00  0.00    +0.003 A 
ENDBRANCH  43  44
ENDBRANCH  27  43
ENDBRANCH  26  27
ENDBRANCH   1  26
TORSDOF 14
ENDMDL
MODEL 5
REMARK VINA RESULT:      -7.1      2.283      5.863
REMARK  Name = 
REMARK  17 active torsions:
REMARK  status: ('A' for Active; 'I' for Inactive)
REMARK    1  A    between atoms: C_1  and  C_2
REMARK    2  A    between atoms: C_2  and  C_3
REMARK    3  A    between atoms: C_2  and  C_4
REMARK    4  A    between atoms: C_2  and  N_5
REMARK    5  A    between atoms: C_6  and  C_8
REMARK    6  A    between atoms: N_11  and  C_44
REMARK    7  A    between atoms: N_14  and  C_15
REMARK    8  A    between atoms: C_15  and  C_16
REMARK    9  A    between atoms: C_16  and  C_18
REMARK   10  A    between atoms: C_16  and  O_43
REMARK   11  A    between atoms: C_18  and  C_19
REMARK   12  A    between atoms: C_19  and  C_21
REMARK   13  A    between atoms: C_19  and  C_28
REMARK   14  A    between atoms: C_21  and  C_22
REMARK   15  A    between atoms: N_30  and  C_31
REMARK   16  A    between atoms: C_33  and  O_42
REMARK   17  A    between atoms: C_44  and  C_45
REMARK                            x       y       z     vdW  Elec       q    Type
REMARK                         _______ _______ _______ _____ _____    ______ ____
ROOT
ATOM      1  C   UNL     1       4.995  -0.431  26.096  0.00  0.00    +0.129 C 
ENDROOT
BRANCH   1   2
ATOM      2  O   UNL     1       5.252  -1.149  24.884  0.00  0.00    -0.391 OA
ATOM      3  H   UNL     1       4.918  -0.592  24.156  0.00  0.00    +0.210 HD
ENDBRANCH   1   2
BRANCH   1   4
ATOM      4  C   UNL     1       5.357   1.086  25.934  0.00  0.00    +0.116 C 
BRANCH   4   6
ATOM      5  C   UNL     1       6.338   1.961  23.727  0.00  0.00    +0.157 C 
ATOM      6  N   UNL     1       5.132   1.569  24.545  0.00  0.00    -0.287 NA
ATOM      7  C   UNL     1       4.147   2.678  24.465  0.00  0.00    +0.100 C 
ATOM      8  C   UNL     1       4.720   4.087  24.728  0.00  0.00    +0.100 C 
ATOM      9  N   UNL     1       5.634   4.372  23.627  0.00  0.00    -0.295 NA
ATOM     10  C   UNL     1       6.787   3.462  23.756  0.00  0.00    +0.113 C 
BRANCH   5  13
ATOM     11  N   UNL     1       7.584  -0.108  23.213  0.00  0.00    -0.309 N 
ATOM     12  H   UNL     1       6.707  -0.358  22.764  0.00  0.00    +0.149 HD
ATOM     13  C   UNL     1       7.581   1.079  23.919  0.00  0.00    +0.232 C 
ATOM     14  O   UNL     1       8.540   1.451  24.592  0.00  0.00    -0.274 OA
BRANCH  11  16
ATOM     15  C   UNL     1       8.967  -1.660  24.561  0.00  0.00    +0.031 C 
ATOM     16  C   UNL     1       8.722  -1.036  23.181  0.00  0.00    +0.026 C 
ATOM     17  C   UNL     1       8.399  -2.182  22.206  0.00  0.00    +0.031 C 
ATOM     18  C   UNL     1       9.995  -0.322  22.704  0.00  0.00    +0.031 C 
ENDBRANCH  11  16
ENDBRANCH   5  13
BRANCH   9  19
ATOM     19  C   UNL     1       5.984   5.783  23.493  0.00  0.00    +0.119 C 
BRANCH  19  20
ATOM     20  C   UNL     1       7.378   6.071  24.020  0.00  0.00    -0.033 A 
ATOM     21  C   UNL     1       7.602   6.249  25.392  0.00  0.00    +0.005 A 
ATOM     22  C   UNL     1       8.892   6.485  25.873  0.00  0.00    +0.000 A 
ATOM     23  C   UNL     1       9.970   6.551  24.990  0.00  0.00    +0.000 A 
ATOM     24  C   UNL     1       9.759   6.392  23.623  0.00  0.00    +0.000 A 
ATOM     25  C   UNL     1       8.470   6.161  23.140  0.00  0.00    +0.005 A 
ENDBRANCH  19  20
ENDBRANCH   9  19
ENDBRANCH   4   6
ENDBRANCH   1   4
BRANCH   1  26
ATOM     26  C   UNL     1       5.617  -1.212  27.261  0.00  0.00    +0.045 C 
BRANCH  26  27
ATOM     27  C   UNL     1       4.846  -2.409  27.879  0.00  0.00    +0.082 C 
BRANCH  27  28
ATOM     28  C   UNL     1       5.620  -3.729  27.669  0.00  0.00    +0.217 C 
ATOM     29  N   UNL     1       6.336  -3.822  26.486  0.00  0.00    -0.306 N 
ATOM     30  H   UNL     1       6.225  -3.088  25.799  0.00  0.00    +0.149 HD
ATOM     31  O   UNL     1       5.530  -4.676  28.446  0.00  0.00    -0.275 OA
BRANCH  29  32
ATOM     32  C   UNL     1       6.732  -5.131  25.971  0.00  0.00    +0.132 C 
ATOM     33  C   UNL     1       6.449  -5.266  24.497  0.00  0.00    -0.022 A 
ATOM     34  C   UNL     1       7.619  -5.456  23.757  0.00  0.00    -0.040 A 
ATOM     35  C   UNL     1       7.579  -5.684  22.390  0.00  0.00    +0.004 A 
ATOM     36  C   UNL     1       6.336  -5.707  21.755  0.00  0.00    +0.000 A 
ATOM     37  C   UNL     1       5.161  -5.481  22.487  0.00  0.00    +0.000 A 
ATOM     38  C   UNL     1       8.833  -5.348  24.616  0.00  0.00    +0.069 C 
ATOM     39  C   UNL     1       5.212  -5.261  23.866  0.00  0.00    +0.006 A 
ATOM     40  C   UNL     1       8.260  -5.464  26.041  0.00  0.00    +0.143 C 
BRANCH  40  41
ATOM     41  O   UNL     1       9.008  -4.623  26.916  0.00  0.00    -0.389 OA
ATOM     42  H   UNL     1       8.537  -4.618  27.767  0.00  0.00    +0.210 HD
ENDBRANCH  40  41
ENDBRANCH  29  32
ENDBRANCH  27  28
BRANCH  27  43
ATOM     43  C   UNL     1       3.346  -2.525  27.549  0.00  0.00    +0.048 C 
BRANCH  43  44
ATOM     44  C   UNL     1       2.767  -3.580  26.623  0.00  0.00    -0.047 A 
ATOM     45  C   UNL     1       2.455  -4.822  27.199  0.00  0.00    +0.003 A 
ATOM     46  C   UNL     1       1.751  -5.798  26.493  0.00  0.00    +0.000 A 
ATOM     47  C   UNL     1       1.396  -5.567  25.171  0.00  0.00    +0.000 A 
ATOM     48  C   UNL     1       1.793  -4.383  24.553  0.00  0.00    +0.000 A 
ATOM     49  C   UNL     1       2.499  -3.405  25.270  0.00  0.00    +0.003 A 
ENDBRANCH  43  44
ENDBRANCH  27  43
ENDBRANCH  26  27
ENDBRANCH   1  26
TORSDOF 14
ENDMDL
MODEL 6
REMARK VINA RESULT:      -7.1      2.247      8.384
REMARK  Name = 
REMARK  17 active torsions:
REMARK  status: ('A' for Active; 'I' for Inactive)
REMARK    1  A    between atoms: C_1  and  C_2
REMARK    2  A    between atoms: C_2  and  C_3
REMARK    3  A    between atoms: C_2  and  C_4
REMARK    4  A    between atoms: C_2  and  N_5
REMARK    5  A    between atoms: C_6  and  C_8
REMARK    6  A    between atoms: N_11  and  C_44
REMARK    7  A    between atoms: N_14  and  C_15
REMARK    8  A    between atoms: C_15  and  C_16
REMARK    9  A    between atoms: C_16  and  C_18
REMARK   10  A    between atoms: C_16  and  O_43
REMARK   11  A    between atoms: C_18  and  C_19
REMARK   12  A    between atoms: C_19  and  C_21
REMARK   13  A    between atoms: C_19  and  C_28
REMARK   14  A    between atoms: C_21  and  C_22
REMARK   15  A    between atoms: N_30  and  C_31
REMARK   16  A    between atoms: C_33  and  O_42
REMARK   17  A    between atoms: C_44  and  C_45
REMARK                            x       y       z     vdW  Elec       q    Type
REMARK                         _______ _______ _______ _____ _____    ______ ____
ROOT
ATOM      1  C   UNL     1       5.398  -2.600  26.565  0.00  0.00    +0.129 C 
ENDROOT
BRANCH   1   2
ATOM      2  O   UNL     1       4.905  -1.746  27.604  0.00  0.00    -0.391 OA
ATOM      3  H   UNL     1       5.138  -0.835  27.347  0.00  0.00    +0.210 HD
ENDBRANCH   1   2
BRANCH   1   4
ATOM      4  C   UNL     1       6.781  -3.222  26.962  0.00  0.00    +0.116 C 
BRANCH   4   6
ATOM      5  C   UNL     1       6.397  -5.628  26.151  0.00  0.00    +0.157 C 
ATOM      6  N   UNL     1       6.672  -4.670  27.284  0.00  0.00    -0.287 NA
ATOM      7  C   UNL     1       5.699  -4.956  28.369  0.00  0.00    +0.100 C 
ATOM      8  C   UNL     1       4.227  -5.074  27.918  0.00  0.00    +0.100 C 
ATOM      9  N   UNL     1       4.148  -6.263  27.077  0.00  0.00    -0.295 NA
ATOM     10  C   UNL     1       4.903  -5.987  25.841  0.00  0.00    +0.113 C 
BRANCH   5  13
ATOM     11  N   UNL     1       6.277  -4.901  23.794  0.00  0.00    -0.309 N 
ATOM     12  H   UNL     1       5.280  -5.009  23.958  0.00  0.00    +0.149 HD
ATOM     13  C   UNL     1       7.103  -5.303  24.826  0.00  0.00    +0.232 C 
ATOM     14  O   UNL     1       8.328  -5.323  24.723  0.00  0.00    -0.274 OA
BRANCH  11  16
ATOM     15  C   UNL     1       7.037  -5.637  21.553  0.00  0.00    +0.031 C 
ATOM     16  C   UNL     1       6.767  -4.448  22.486  0.00  0.00    +0.026 C 
ATOM     17  C   UNL     1       5.683  -3.579  21.825  0.00  0.00    +0.031 C 
ATOM     18  C   UNL     1       8.047  -3.613  22.641  0.00  0.00    +0.031 C 
ENDBRANCH  11  16
ENDBRANCH   5  13
BRANCH   9  19
ATOM     19  C   UNL     1       2.789  -6.752  26.863  0.00  0.00    +0.119 C 
BRANCH  19  20
ATOM     20  C   UNL     1       2.358  -6.606  25.415  0.00  0.00    -0.033 A 
ATOM     21  C   UNL     1       2.309  -7.720  24.566  0.00  0.00    +0.005 A 
ATOM     22  C   UNL     1       1.883  -7.583  23.243  0.00  0.00    +0.000 A 
ATOM     23  C   UNL     1       1.507  -6.333  22.751  0.00  0.00    +0.000 A 
ATOM     24  C   UNL     1       1.567  -5.215  23.579  0.00  0.00    +0.000 A 
ATOM     25  C   UNL     1       1.995  -5.348  24.901  0.00  0.00    +0.005 A 
ENDBRANCH  19  20
ENDBRANCH   9  19
ENDBRANCH   4   6
ENDBRANCH   1   4
BRANCH   1  26
ATOM     26  C   UNL     1       5.289  -1.848  25.231  0.00  0.00    +0.045 C 
BRANCH  26  27
ATOM     27  C   UNL     1       6.273  -0.688  24.923  0.00  0.00    +0.082 C 
BRANCH  27  28
ATOM     28  C   UNL     1       5.666   0.671  25.334  0.00  0.00    +0.217 C 
ATOM     29  N   UNL     1       5.305   1.507  24.289  0.00  0.00    -0.306 N 
ATOM     30  H   UNL     1       5.554   1.233  23.348  0.00  0.00    +0.149 HD
ATOM     31  O   UNL     1       5.599   1.035  26.505  0.00  0.00    -0.275 OA
BRANCH  29  32
ATOM     32  C   UNL     1       5.144   2.940  24.521  0.00  0.00    +0.132 C 
ATOM     33  C   UNL     1       6.418   3.701  24.252  0.00  0.00    -0.022 A 
ATOM     34  C   UNL     1       6.268   4.616  23.205  0.00  0.00    -0.040 A 
ATOM     35  C   UNL     1       7.294   5.477  22.847  0.00  0.00    +0.004 A 
ATOM     36  C   UNL     1       8.499   5.405  23.548  0.00  0.00    +0.000 A 
ATOM     37  C   UNL     1       8.667   4.464  24.575  0.00  0.00    +0.000 A 
ATOM     38  C   UNL     1       4.927   4.497  22.563  0.00  0.00    +0.069 C 
ATOM     39  C   UNL     1       7.623   3.606  24.934  0.00  0.00    +0.006 A 
ATOM     40  C   UNL     1       4.123   3.677  23.590  0.00  0.00    +0.143 C 
BRANCH  40  41
ATOM     41  O   UNL     1       3.225   2.813  22.898  0.00  0.00    -0.389 OA
ATOM     42  H   UNL     1       2.593   2.481  23.559  0.00  0.00    +0.210 HD
ENDBRANCH  40  41
ENDBRANCH  29  32
ENDBRANCH  27  28
BRANCH  27  43
ATOM     43  C   UNL     1       6.920  -0.668  23.525  0.00  0.00    +0.048 C 
BRANCH  43  44
ATOM     44  C   UNL     1       8.160   0.139  23.184  0.00  0.00    -0.047 A 
ATOM     45  C   UNL     1       8.102   0.924  22.021  0.00  0.00    +0.003 A 
ATOM     46  C   UNL     1       9.103   1.844  21.710  0.00  0.00    +0.000 A 
ATOM     47  C   UNL     1      10.216   1.952  22.533  0.00  0.00    +0.000 A 
ATOM     48  C   UNL     1      10.339   1.103  23.631  0.00  0.00    +0.000 A 
ATOM     49  C   UNL     1       9.326   0.182  23.940  0.00  0.00    +0.003 A 
ENDBRANCH  43  44
ENDBRANCH  27  43
ENDBRANCH  26  27
ENDBRANCH   1  26
TORSDOF 14
ENDMDL
MODEL 7
REMARK VINA RESULT:      -7.0      2.918      7.033
REMARK  Name = 
REMARK  17 active torsions:
REMARK  status: ('A' for Active; 'I' for Inactive)
REMARK    1  A    between atoms: C_1  and  C_2
REMARK    2  A    between atoms: C_2  and  C_3
REMARK    3  A    between atoms: C_2  and  C_4
REMARK    4  A    between atoms: C_2  and  N_5
REMARK    5  A    between atoms: C_6  and  C_8
REMARK    6  A    between atoms: N_11  and  C_44
REMARK    7  A    between atoms: N_14  and  C_15
REMARK    8  A    between atoms: C_15  and  C_16
REMARK    9  A    between atoms: C_16  and  C_18
REMARK   10  A    between atoms: C_16  and  O_43
REMARK   11  A    between atoms: C_18  and  C_19
REMARK   12  A    between atoms: C_19  and  C_21
REMARK   13  A    between atoms: C_19  and  C_28
REMARK   14  A    between atoms: C_21  and  C_22
REMARK   15  A    between atoms: N_30  and  C_31
REMARK   16  A    between atoms: C_33  and  O_42
REMARK   17  A    between atoms: C_44  and  C_45
REMARK                            x       y       z     vdW  Elec       q    Type
REMARK                         _______ _______ _______ _____ _____    ______ ____
ROOT
ATOM      1  C   UNL     1       6.379   4.342  27.412  0.00  0.00    +0.129 C 
ENDROOT
BRANCH   1   2
ATOM      2  O   UNL     1       6.466   5.083  28.635  0.00  0.00    -0.391 OA
ATOM      3  H   UNL     1       6.788   4.461  29.313  0.00  0.00    +0.210 HD
ENDBRANCH   1   2
BRANCH   1   4
ATOM      4  C   UNL     1       6.093   2.828  27.697  0.00  0.00    +0.116 C 
BRANCH   4   6
ATOM      5  C   UNL     1       5.231   1.272  25.844  0.00  0.00    +0.157 C 
ATOM      6  N   UNL     1       6.388   1.971  26.516  0.00  0.00    -0.287 NA
ATOM      7  C   UNL     1       7.443   0.959  26.777  0.00  0.00    +0.100 C 
ATOM      8  C   UNL     1       6.954  -0.345  27.444  0.00  0.00    +0.100 C 
ATOM      9  N   UNL     1       6.091  -1.006  26.470  0.00  0.00    -0.295 NA
ATOM     10  C   UNL     1       4.879  -0.181  26.315  0.00  0.00    +0.113 C 
BRANCH   5  13
ATOM     11  N   UNL     1       3.981   3.205  24.952  0.00  0.00    -0.309 N 
ATOM     12  H   UNL     1       4.905   3.475  24.626  0.00  0.00    +0.149 HD
ATOM     13  C   UNL     1       3.930   2.083  25.756  0.00  0.00    +0.232 C 
ATOM     14  O   UNL     1       2.894   1.706  26.300  0.00  0.00    -0.274 OA
BRANCH  11  16
ATOM     15  C   UNL     1       3.236   5.336  23.930  0.00  0.00    +0.031 C 
ATOM     16  C   UNL     1       2.817   4.050  24.656  0.00  0.00    +0.026 C 
ATOM     17  C   UNL     1       1.870   3.279  23.720  0.00  0.00    +0.031 C 
ATOM     18  C   UNL     1       2.060   4.408  25.944  0.00  0.00    +0.031 C 
ENDBRANCH  11  16
ENDBRANCH   5  13
BRANCH   9  19
ATOM     19  C   UNL     1       5.835  -2.414  26.761  0.00  0.00    +0.119 C 
BRANCH  19  20
ATOM     20  C   UNL     1       6.599  -3.332  25.824  0.00  0.00    -0.033 A 
ATOM     21  C   UNL     1       6.204  -3.480  24.488  0.00  0.00    +0.005 A 
ATOM     22  C   UNL     1       6.929  -4.304  23.623  0.00  0.00    +0.000 A 
ATOM     23  C   UNL     1       8.051  -4.993  24.085  0.00  0.00    +0.000 A 
ATOM     24  C   UNL     1       8.445  -4.867  25.415  0.00  0.00    +0.000 A 
ATOM     25  C   UNL     1       7.720  -4.047  26.281  0.00  0.00    +0.005 A 
ENDBRANCH  19  20
ENDBRANCH   9  19
ENDBRANCH   4   6
ENDBRANCH   1   4
BRANCH   1  26
ATOM     26  C   UNL     1       7.587   4.708  26.539  0.00  0.00    +0.045 C 
BRANCH  26  27
ATOM     27  C   UNL     1       7.372   5.520  25.234  0.00  0.00    +0.082 C 
BRANCH  27  28
ATOM     28  C   UNL     1       7.232   4.579  24.018  0.00  0.00    +0.217 C 
ATOM     29  N   UNL     1       7.621   3.265  24.228  0.00  0.00    -0.306 N 
ATOM     30  H   UNL     1       8.065   3.031  25.107  0.00  0.00    +0.149 HD
ATOM     31  O   UNL     1       6.894   4.983  22.909  0.00  0.00    -0.275 OA
BRANCH  29  32
ATOM     32  C   UNL     1       7.953   2.410  23.091  0.00  0.00    +0.132 C 
ATOM     33  C   UNL     1       8.822   1.247  23.496  0.00  0.00    -0.022 A 
ATOM     34  C   UNL     1       8.189   0.020  23.273  0.00  0.00    -0.040 A 
ATOM     35  C   UNL     1       8.844  -1.181  23.501  0.00  0.00    +0.004 A 
ATOM     36  C   UNL     1      10.156  -1.145  23.975  0.00  0.00    +0.000 A 
ATOM     37  C   UNL     1      10.783   0.083  24.234  0.00  0.00    +0.000 A 
ATOM     38  C   UNL     1       6.783   0.206  22.815  0.00  0.00    +0.069 C 
ATOM     39  C   UNL     1      10.118   1.289  23.993  0.00  0.00    +0.006 A 
ATOM     40  C   UNL     1       6.747   1.689  22.399  0.00  0.00    +0.143 C 
BRANCH  40  41
ATOM     41  O   UNL     1       5.469   2.234  22.720  0.00  0.00    -0.389 OA
ATOM     42  H   UNL     1       4.951   1.513  23.117  0.00  0.00    +0.210 HD
ENDBRANCH  40  41
ENDBRANCH  29  32
ENDBRANCH  27  28
BRANCH  27  43
ATOM     43  C   UNL     1       8.320   6.706  24.980  0.00  0.00    +0.048 C 
BRANCH  43  44
ATOM     44  C   UNL     1       9.787   6.548  24.619  0.00  0.00    -0.047 A 
ATOM     45  C   UNL     1      10.719   7.105  25.510  0.00  0.00    +0.003 A 
ATOM     46  C   UNL     1      12.087   6.863  25.382  0.00  0.00    +0.000 A 
ATOM     47  C   UNL     1      12.552   6.102  24.318  0.00  0.00    +0.000 A 
ATOM     48  C   UNL     1      11.650   5.633  23.366  0.00  0.00    +0.000 A 
ATOM     49  C   UNL     1      10.275   5.879  23.503  0.00  0.00    +0.003 A 
ENDBRANCH  43  44
ENDBRANCH  27  43
ENDBRANCH  26  27
ENDBRANCH   1  26
TORSDOF 14
ENDMDL
MODEL 8
REMARK VINA RESULT:      -7.0      2.330      8.414
REMARK  Name = 
REMARK  17 active torsions:
REMARK  status: ('A' for Active; 'I' for Inactive)
REMARK    1  A    between atoms: C_1  and  C_2
REMARK    2  A    between atoms: C_2  and  C_3
REMARK    3  A    between atoms: C_2  and  C_4
REMARK    4  A    between atoms: C_2  and  N_5
REMARK    5  A    between atoms: C_6  and  C_8
REMARK    6  A    between atoms: N_11  and  C_44
REMARK    7  A    between atoms: N_14  and  C_15
REMARK    8  A    between atoms: C_15  and  C_16
REMARK    9  A    between atoms: C_16  and  C_18
REMARK   10  A    between atoms: C_16  and  O_43
REMARK   11  A    between atoms: C_18  and  C_19
REMARK   12  A    between atoms: C_19  and  C_21
REMARK   13  A    between atoms: C_19  and  C_28
REMARK   14  A    between atoms: C_21  and  C_22
REMARK   15  A    between atoms: N_30  and  C_31
REMARK   16  A    between atoms: C_33  and  O_42
REMARK   17  A    between atoms: C_44  and  C_45
REMARK                            x       y       z     vdW  Elec       q    Type
REMARK                         _______ _______ _______ _____ _____    ______ ____
ROOT
ATOM      1  C   UNL     1       8.676  -1.406  25.346  0.00  0.00    +0.129 C 
ENDROOT
BRANCH   1   2
ATOM      2  O   UNL     1       9.439  -0.367  25.971  0.00  0.00    -0.391 OA
ATOM      3  H   UNL     1      10.306  -0.755  26.190  0.00  0.00    +0.210 HD
ENDBRANCH   1   2
BRANCH   1   4
ATOM      4  C   UNL     1       8.247  -2.490  26.394  0.00  0.00    +0.116 C 
BRANCH   4   6
ATOM      5  C   UNL     1       5.776  -3.160  26.195  0.00  0.00    +0.157 C 
ATOM      6  N   UNL     1       7.221  -3.421  25.850  0.00  0.00    -0.287 NA
ATOM      7  C   UNL     1       7.511  -4.847  26.144  0.00  0.00    +0.100 C 
ATOM      8  C   UNL     1       7.042  -5.342  27.529  0.00  0.00    +0.100 C 
ATOM      9  N   UNL     1       5.584  -5.294  27.511  0.00  0.00    -0.295 NA
ATOM     10  C   UNL     1       5.184  -3.875  27.458  0.00  0.00    +0.113 C 
BRANCH   5  13
ATOM     11  N   UNL     1       5.440  -1.076  27.476  0.00  0.00    -0.309 N 
ATOM     12  H   UNL     1       5.608  -1.697  28.263  0.00  0.00    +0.149 HD
ATOM     13  C   UNL     1       5.362  -1.681  26.237  0.00  0.00    +0.232 C 
ATOM     14  O   UNL     1       5.062  -1.064  25.217  0.00  0.00    -0.274 OA
BRANCH  11  16
ATOM     15  C   UNL     1       6.001   1.220  26.731  0.00  0.00    +0.031 C 
ATOM     16  C   UNL     1       5.189   0.353  27.703  0.00  0.00    +0.026 C 
ATOM     17  C   UNL     1       3.700   0.641  27.446  0.00  0.00    +0.031 C 
ATOM     18  C   UNL     1       5.528   0.744  29.149  0.00  0.00    +0.031 C 
ENDBRANCH  11  16
ENDBRANCH   5  13
BRANCH   9  19
ATOM     19  C   UNL     1       4.949  -6.065  28.576  0.00  0.00    +0.119 C 
BRANCH  19  20
ATOM     20  C   UNL     1       3.607  -6.628  28.144  0.00  0.00    -0.033 A 
ATOM     21  C   UNL     1       3.287  -6.751  26.785  0.00  0.00    +0.005 A 
ATOM     22  C   UNL     1       2.062  -7.297  26.394  0.00  0.00    +0.000 A 
ATOM     23  C   UNL     1       1.142  -7.719  27.354  0.00  0.00    +0.000 A 
ATOM     24  C   UNL     1       1.441  -7.587  28.708  0.00  0.00    +0.000 A 
ATOM     25  C   UNL     1       2.663  -7.038  29.101  0.00  0.00    +0.005 A 
ENDBRANCH  19  20
ENDBRANCH   9  19
ENDBRANCH   4   6
ENDBRANCH   1   4
BRANCH   1  26
ATOM     26  C   UNL     1       9.422  -1.861  24.085  0.00  0.00    +0.045 C 
BRANCH  26  27
ATOM     27  C   UNL     1       8.755  -1.683  22.695  0.00  0.00    +0.082 C 
BRANCH  27  28
ATOM     28  C   UNL     1       9.192  -0.353  22.042  0.00  0.00    +0.217 C 
ATOM     29  N   UNL     1       9.417   0.698  22.916  0.00  0.00    -0.306 N 
ATOM     30  H   UNL     1       9.183   0.570  23.892  0.00  0.00    +0.149 HD
ATOM     31  O   UNL     1       9.241  -0.203  20.824  0.00  0.00    -0.275 OA
BRANCH  29  32
ATOM     32  C   UNL     1       9.398   2.074  22.425  0.00  0.00    +0.132 C 
ATOM     33  C   UNL     1       8.061   2.734  22.650  0.00  0.00    -0.022 A 
ATOM     34  C   UNL     1       8.160   3.835  23.506  0.00  0.00    -0.040 A 
ATOM     35  C   UNL     1       7.061   4.634  23.782  0.00  0.00    +0.004 A 
ATOM     36  C   UNL     1       5.837   4.310  23.195  0.00  0.00    +0.000 A 
ATOM     37  C   UNL     1       5.725   3.186  22.363  0.00  0.00    +0.000 A 
ATOM     38  C   UNL     1       9.537   3.976  24.059  0.00  0.00    +0.069 C 
ATOM     39  C   UNL     1       6.840   2.391  22.085  0.00  0.00    +0.006 A 
ATOM     40  C   UNL     1      10.376   3.071  23.136  0.00  0.00    +0.143 C 
BRANCH  40  41
ATOM     41  O   UNL     1      11.403   2.446  23.900  0.00  0.00    -0.389 OA
ATOM     42  H   UNL     1      11.646   3.072  24.604  0.00  0.00    +0.210 HD
ENDBRANCH  40  41
ENDBRANCH  29  32
ENDBRANCH  27  28
BRANCH  27  43
ATOM     43  C   UNL     1       7.239  -1.936  22.604  0.00  0.00    +0.048 C 
BRANCH  43  44
ATOM     44  C   UNL     1       6.620  -3.321  22.533  0.00  0.00    -0.047 A 
ATOM     45  C   UNL     1       7.496  -4.392  22.293  0.00  0.00    +0.003 A 
ATOM     46  C   UNL     1       7.073  -5.717  22.392  0.00  0.00    +0.000 A 
ATOM     47  C   UNL     1       5.742  -5.993  22.675  0.00  0.00    +0.000 A 
ATOM     48  C   UNL     1       4.838  -4.942  22.808  0.00  0.00    +0.000 A 
ATOM     49  C   UNL     1       5.272  -3.611  22.711  0.00  0.00    +0.003 A 
ENDBRANCH  43  44
ENDBRANCH  27  43
ENDBRANCH  26  27
ENDBRANCH   1  26
TORSDOF 14
ENDMDL
MODEL 9
REMARK VINA RESULT:      -6.9      2.642      5.876
REMARK  Name = 
REMARK  17 active torsions:
REMARK  status: ('A' for Active; 'I' for Inactive)
REMARK    1  A    between atoms: C_1  and  C_2
REMARK    2  A    between atoms: C_2  and  C_3
REMARK    3  A    between atoms: C_2  and  C_4
REMARK    4  A    between atoms: C_2  and  N_5
REMARK    5  A    between atoms: C_6  and  C_8
REMARK    6  A    between atoms: N_11  and  C_44
REMARK    7  A    between atoms: N_14  and  C_15
REMARK    8  A    between atoms: C_15  and  C_16
REMARK    9  A    between atoms: C_16  and  C_18
REMARK   10  A    between atoms: C_16  and  O_43
REMARK   11  A    between atoms: C_18  and  C_19
REMARK   12  A    between atoms: C_19  and  C_21
REMARK   13  A    between atoms: C_19  and  C_28
REMARK   14  A    between atoms: C_21  and  C_22
REMARK   15  A    between atoms: N_30  and  C_31
REMARK   16  A    between atoms: C_33  and  O_42
REMARK   17  A    between atoms: C_44  and  C_45
REMARK                            x       y       z     vdW  Elec       q    Type
REMARK                         _______ _______ _______ _____ _____    ______ ____
ROOT
ATOM      1  C   UNL     1       6.912   2.392  27.391  0.00  0.00    +0.129 C 
ENDROOT
BRANCH   1   2
ATOM      2  O   UNL     1       7.529   3.076  28.488  0.00  0.00    -0.391 OA
ATOM      3  H   UNL     1       7.686   3.991  28.190  0.00  0.00    +0.210 HD
ENDBRANCH   1   2
BRANCH   1   4
ATOM      4  C   UNL     1       6.428   3.410  26.301  0.00  0.00    +0.116 C 
BRANCH   4   6
ATOM      5  C   UNL     1       6.046   3.102  23.780  0.00  0.00    +0.157 C 
ATOM      6  N   UNL     1       5.685   2.739  25.199  0.00  0.00    -0.287 NA
ATOM      7  C   UNL     1       4.211   2.849  25.337  0.00  0.00    +0.100 C 
ATOM      8  C   UNL     1       3.593   4.153  24.789  0.00  0.00    +0.100 C 
ATOM      9  N   UNL     1       3.793   4.127  23.344  0.00  0.00    -0.295 NA
ATOM     10  C   UNL     1       5.239   4.255  23.090  0.00  0.00    +0.113 C 
BRANCH   5  13
ATOM     11  N   UNL     1       8.366   2.255  23.782  0.00  0.00    -0.309 N 
ATOM     12  H   UNL     1       7.932   1.477  24.272  0.00  0.00    +0.149 HD
ATOM     13  C   UNL     1       7.542   3.332  23.516  0.00  0.00    +0.232 C 
ATOM     14  O   UNL     1       7.959   4.378  23.023  0.00  0.00    -0.274 OA
BRANCH  11  16
ATOM     15  C   UNL     1      10.541   1.246  24.408  0.00  0.00    +0.031 C 
ATOM     16  C   UNL     1       9.806   2.240  23.498  0.00  0.00    +0.026 C 
ATOM     17  C   UNL     1      10.019   1.781  22.045  0.00  0.00    +0.031 C 
ATOM     18  C   UNL     1      10.412   3.641  23.671  0.00  0.00    +0.031 C 
ENDBRANCH  11  16
ENDBRANCH   5  13
BRANCH   9  19
ATOM     19  C   UNL     1       2.960   5.077  22.611  0.00  0.00    +0.119 C 
BRANCH  19  20
ATOM     20  C   UNL     1       2.361   4.457  21.363  0.00  0.00    -0.033 A 
ATOM     21  C   UNL     1       2.035   5.250  20.255  0.00  0.00    +0.005 A 
ATOM     22  C   UNL     1       1.510   4.669  19.098  0.00  0.00    +0.000 A 
ATOM     23  C   UNL     1       1.300   3.291  19.037  0.00  0.00    +0.000 A 
ATOM     24  C   UNL     1       1.604   2.493  20.137  0.00  0.00    +0.000 A 
ATOM     25  C   UNL     1       2.125   3.072  21.295  0.00  0.00    +0.005 A 
ENDBRANCH  19  20
ENDBRANCH   9  19
ENDBRANCH   4   6
ENDBRANCH   1   4
BRANCH   1  26
ATOM     26  C   UNL     1       5.899   1.387  27.956  0.00  0.00    +0.045 C 
BRANCH  26  27
ATOM     27  C   UNL     1       6.037  -0.118  27.607  0.00  0.00    +0.082 C 
BRANCH  27  28
ATOM     28  C   UNL     1       7.357  -0.389  26.852  0.00  0.00    +0.217 C 
ATOM     29  N   UNL     1       7.225  -0.700  25.507  0.00  0.00    -0.306 N 
ATOM     30  H   UNL     1       6.294  -0.837  25.136  0.00  0.00    +0.149 HD
ATOM     31  O   UNL     1       8.445  -0.426  27.420  0.00  0.00    -0.275 OA
BRANCH  29  32
ATOM     32  C   UNL     1       8.305  -1.390  24.807  0.00  0.00    +0.132 C 
ATOM     33  C   UNL     1       8.311  -2.869  25.098  0.00  0.00    -0.022 A 
ATOM     34  C   UNL     1       8.090  -3.629  23.946  0.00  0.00    -0.040 A 
ATOM     35  C   UNL     1       8.137  -5.015  23.976  0.00  0.00    +0.004 A 
ATOM     36  C   UNL     1       8.397  -5.646  25.192  0.00  0.00    +0.000 A 
ATOM     37  C   UNL     1       8.585  -4.889  26.359  0.00  0.00    +0.000 A 
ATOM     38  C   UNL     1       7.785  -2.764  22.771  0.00  0.00    +0.069 C 
ATOM     39  C   UNL     1       8.544  -3.493  26.317  0.00  0.00    +0.006 A 
ATOM     40  C   UNL     1       8.234  -1.368  23.242  0.00  0.00    +0.143 C 
BRANCH  40  41
ATOM     41  O   UNL     1       7.352  -0.386  22.705  0.00  0.00    -0.389 OA
ATOM     42  H   UNL     1       6.949   0.071  23.464  0.00  0.00    +0.210 HD
ENDBRANCH  40  41
ENDBRANCH  29  32
ENDBRANCH  27  28
BRANCH  27  43
ATOM     43  C   UNL     1       4.817  -0.806  26.966  0.00  0.00    +0.048 C 
BRANCH  43  44
ATOM     44  C   UNL     1       4.735  -2.300  26.705  0.00  0.00    -0.047 A 
ATOM     45  C   UNL     1       4.440  -2.695  25.390  0.00  0.00    +0.003 A 
ATOM     46  C   UNL     1       4.522  -4.030  24.994  0.00  0.00    +0.000 A 
ATOM     47  C   UNL     1       4.844  -5.005  25.928  0.00  0.00    +0.000 A 
ATOM     48  C   UNL     1       5.033  -4.641  27.259  0.00  0.00    +0.000 A 
ATOM     49  C   UNL     1       4.952  -3.296  27.651  0.00  0.00    +0.003 A 
ENDBRANCH  43  44
ENDBRANCH  27  43
ENDBRANCH  26  27
ENDBRANCH   1  26
TORSDOF 14
ENDMDL
