MODEL 1
REMARK VINA RESULT:      -6.2      0.000      0.000
REMARK  Name = 
REMARK  5 active torsions:
REMARK  status: ('A' for Active; 'I' for Inactive)
REMARK    1  A    between atoms: C_1  and  C_2
REMARK    2  A    between atoms: N_4  and  C_10
REMARK    3  A    between atoms: C_14  and  O_21
REMARK    4  A    between atoms: C_16  and  C_19
REMARK    5  A    between atoms: C_19  and  O_20
REMARK                            x       y       z     vdW  Elec       q    Type
REMARK                         _______ _______ _______ _____ _____    ______ ____
ROOT
ATOM      1  C   UNL     1       8.198  -3.935  24.281  0.00  0.00    +0.260 C 
ATOM      2  O   UNL     1       6.809  -3.873  24.672  0.00  0.00    -0.345 OA
ATOM      3  C   UNL     1       6.639  -4.731  25.826  0.00  0.00    +0.178 C 
ATOM      4  C   UNL     1       7.978  -5.418  26.091  0.00  0.00    +0.184 C 
ATOM      5  C   UNL     1       8.965  -4.428  25.506  0.00  0.00    +0.246 C 
ATOM      6  F   UNL     1      10.116  -5.054  25.169  0.00  0.00    -0.238 F 
ENDROOT
BRANCH   1  15
ATOM      7  C   UNL     1      10.718   0.346  24.840  0.00  0.00    +0.051 C 
ATOM      8  C   UNL     1       9.886  -0.622  24.063  0.00  0.00    +0.030 A 
ATOM      9  C   UNL     1       9.558  -0.255  22.665  0.00  0.00    +0.257 A 
ATOM     10  O   UNL     1       9.951   0.790  22.157  0.00  0.00    -0.267 OA
ATOM     11  N   UNL     1       8.802  -1.156  21.977  0.00  0.00    -0.275 N 
ATOM     12  H   UNL     1       8.574  -0.931  21.022  0.00  0.00    +0.173 HD
ATOM     13  C   UNL     1       8.344  -2.355  22.449  0.00  0.00    +0.331 A 
ATOM     14  O   UNL     1       7.696  -3.097  21.716  0.00  0.00    -0.246 OA
ATOM     15  N   UNL     1       8.656  -2.645  23.770  0.00  0.00    -0.271 N 
ATOM     16  C   UNL     1       9.422  -1.786  24.537  0.00  0.00    +0.102 A 
ENDBRANCH   1  15
BRANCH   4  17
ATOM     17  O   UNL     1       8.167  -5.678  27.481  0.00  0.00    -0.386 OA
ATOM     18  H   UNL     1       8.182  -4.841  27.974  0.00  0.00    +0.210 HD
ENDBRANCH   4  17
BRANCH   3  19
ATOM     19  C   UNL     1       5.508  -5.720  25.546  0.00  0.00    +0.190 C 
BRANCH  19  20
ATOM     20  O   UNL     1       5.500  -6.757  26.526  0.00  0.00    -0.392 OA
ATOM     21  H   UNL     1       4.674  -6.650  27.034  0.00  0.00    +0.210 HD
ENDBRANCH  19  20
ENDBRANCH   3  19
TORSDOF 4
ENDMDL
MODEL 2
REMARK VINA RESULT:      -6.2      4.039      6.040
REMARK  Name = 
REMARK  5 active torsions:
REMARK  status: ('A' for Active; 'I' for Inactive)
REMARK    1  A    between atoms: C_1  and  C_2
REMARK    2  A    between atoms: N_4  and  C_10
REMARK    3  A    between atoms: C_14  and  O_21
REMARK    4  A    between atoms: C_16  and  C_19
REMARK    5  A    between atoms: C_19  and  O_20
REMARK                            x       y       z     vdW  Elec       q    Type
REMARK                         _______ _______ _______ _____ _____    ______ ____
ROOT
ATOM      1  C   UNL     1       9.250   1.299  23.420  0.00  0.00    +0.260 C 
ATOM      2  O   UNL     1       9.781   0.419  24.435  0.00  0.00    -0.345 OA
ATOM      3  C   UNL     1      10.082  -0.849  23.803  0.00  0.00    +0.178 C 
ATOM      4  C   UNL     1       9.625  -0.759  22.347  0.00  0.00    +0.184 C 
ATOM      5  C   UNL     1       9.708   0.731  22.079  0.00  0.00    +0.246 C 
ATOM      6  F   UNL     1       8.877   1.075  21.069  0.00  0.00    -0.238 F 
ENDROOT
BRANCH   1  15
ATOM      7  C   UNL     1      12.653   4.950  23.152  0.00  0.00    +0.051 C 
ATOM      8  C   UNL     1      11.304   4.405  23.493  0.00  0.00    +0.030 A 
ATOM      9  C   UNL     1      10.317   5.356  24.059  0.00  0.00    +0.257 A 
ATOM     10  O   UNL     1      10.582   6.539  24.238  0.00  0.00    -0.267 OA
ATOM     11  N   UNL     1       9.095   4.833  24.357  0.00  0.00    -0.275 N 
ATOM     12  H   UNL     1       8.405   5.464  24.734  0.00  0.00    +0.173 HD
ATOM     13  C   UNL     1       8.699   3.538  24.166  0.00  0.00    +0.331 A 
ATOM     14  O   UNL     1       7.553   3.197  24.447  0.00  0.00    -0.246 OA
ATOM     15  N   UNL     1       9.664   2.680  23.656  0.00  0.00    -0.271 N 
ATOM     16  C   UNL     1      10.929   3.129  23.324  0.00  0.00    +0.102 A 
ENDBRANCH   1  15
BRANCH   4  17
ATOM     17  O   UNL     1      10.444  -1.552  21.490  0.00  0.00    -0.386 OA
ATOM     18  H   UNL     1      11.344  -1.605  21.851  0.00  0.00    +0.210 HD
ENDBRANCH   4  17
BRANCH   3  19
ATOM     19  C   UNL     1       9.386  -1.967  24.577  0.00  0.00    +0.190 C 
BRANCH  19  20
ATOM     20  O   UNL     1       9.807  -3.243  24.096  0.00  0.00    -0.392 OA
ATOM     21  H   UNL     1       9.064  -3.602  23.577  0.00  0.00    +0.210 HD
ENDBRANCH  19  20
ENDBRANCH   3  19
TORSDOF 4
ENDMDL
MODEL 3
REMARK VINA RESULT:      -6.2      2.887      6.199
REMARK  Name = 
REMARK  5 active torsions:
REMARK  status: ('A' for Active; 'I' for Inactive)
REMARK    1  A    between atoms: C_1  and  C_2
REMARK    2  A    between atoms: N_4  and  C_10
REMARK    3  A    between atoms: C_14  and  O_21
REMARK    4  A    between atoms: C_16  and  C_19
REMARK    5  A    between atoms: C_19  and  O_20
REMARK                            x       y       z     vdW  Elec       q    Type
REMARK                         _______ _______ _______ _____ _____    ______ ____
ROOT
ATOM      1  C   UNL     1       7.151  -3.894  22.842  0.00  0.00    +0.260 C 
ATOM      2  O   UNL     1       8.368  -3.733  23.602  0.00  0.00    -0.345 OA
ATOM      3  C   UNL     1       8.706  -2.325  23.597  0.00  0.00    +0.178 C 
ATOM      4  C   UNL     1       7.687  -1.609  22.711  0.00  0.00    +0.184 C 
ATOM      5  C   UNL     1       6.482  -2.522  22.812  0.00  0.00    +0.246 C 
ATOM      6  F   UNL     1       5.682  -2.369  21.731  0.00  0.00    -0.238 F 
ENDROOT
BRANCH   1  15
ATOM      7  C   UNL     1       5.198  -6.297  26.766  0.00  0.00    +0.051 C 
ATOM      8  C   UNL     1       5.386  -6.063  25.302  0.00  0.00    +0.030 A 
ATOM      9  C   UNL     1       4.626  -6.939  24.378  0.00  0.00    +0.257 A 
ATOM     10  O   UNL     1       3.872  -7.816  24.785  0.00  0.00    -0.267 OA
ATOM     11  N   UNL     1       4.813  -6.702  23.050  0.00  0.00    -0.275 N 
ATOM     12  H   UNL     1       4.300  -7.280  22.403  0.00  0.00    +0.173 HD
ATOM     13  C   UNL     1       5.609  -5.733  22.504  0.00  0.00    +0.331 A 
ATOM     14  O   UNL     1       5.667  -5.599  21.285  0.00  0.00    -0.246 OA
ATOM     15  N   UNL     1       6.317  -4.953  23.407  0.00  0.00    -0.271 N 
ATOM     16  C   UNL     1       6.184  -5.125  24.773  0.00  0.00    +0.102 A 
ENDBRANCH   1  15
BRANCH   4  17
ATOM     17  O   UNL     1       7.447  -0.276  23.159  0.00  0.00    -0.386 OA
ATOM     18  H   UNL     1       6.669   0.089  22.706  0.00  0.00    +0.210 HD
ENDBRANCH   4  17
BRANCH   3  19
ATOM     19  C   UNL     1      10.142  -2.161  23.102  0.00  0.00    +0.190 C 
BRANCH  19  20
ATOM     20  O   UNL     1      10.155  -1.662  21.765  0.00  0.00    -0.392 OA
ATOM     21  H   UNL     1      10.838  -2.169  21.288  0.00  0.00    +0.210 HD
ENDBRANCH  19  20
ENDBRANCH   3  19
TORSDOF 4
ENDMDL
MODEL 4
REMARK VINA RESULT:      -6.1      2.447      5.913
REMARK  Name = 
REMARK  5 active torsions:
REMARK  status: ('A' for Active; 'I' for Inactive)
REMARK    1  A    between atoms: C_1  and  C_2
REMARK    2  A    between atoms: N_4  and  C_10
REMARK    3  A    between atoms: C_14  and  O_21
REMARK    4  A    between atoms: C_16  and  C_19
REMARK    5  A    between atoms: C_19  and  O_20
REMARK                            x       y       z     vdW  Elec       q    Type
REMARK                         _______ _______ _______ _____ _____    ______ ____
ROOT
ATOM      1  C   UNL     1       7.979  -3.041  24.014  0.00  0.00    +0.260 C 
ATOM      2  O   UNL     1       9.080  -2.133  24.232  0.00  0.00    -0.345 OA
ATOM      3  C   UNL     1       8.790  -0.910  23.513  0.00  0.00    +0.178 C 
ATOM      4  C   UNL     1       7.485  -1.125  22.746  0.00  0.00    +0.184 C 
ATOM      5  C   UNL     1       6.794  -2.180  23.585  0.00  0.00    +0.246 C 
ATOM      6  F   UNL     1       5.906  -2.872  22.834  0.00  0.00    -0.238 F 
ENDROOT
BRANCH   1  15
ATOM      7  C   UNL     1       5.285  -4.120  28.085  0.00  0.00    +0.051 C 
ATOM      8  C   UNL     1       6.408  -4.354  27.126  0.00  0.00    +0.030 A 
ATOM      9  C   UNL     1       7.281  -5.523  27.385  0.00  0.00    +0.257 A 
ATOM     10  O   UNL     1       7.098  -6.274  28.336  0.00  0.00    -0.267 OA
ATOM     11  N   UNL     1       8.293  -5.715  26.493  0.00  0.00    -0.275 N 
ATOM     12  H   UNL     1       8.894  -6.510  26.645  0.00  0.00    +0.173 HD
ATOM     13  C   UNL     1       8.557  -4.950  25.391  0.00  0.00    +0.331 A 
ATOM     14  O   UNL     1       9.485  -5.248  24.643  0.00  0.00    -0.246 OA
ATOM     15  N   UNL     1       7.728  -3.853  25.203  0.00  0.00    -0.271 N 
ATOM     16  C   UNL     1       6.675  -3.588  26.059  0.00  0.00    +0.102 A 
ENDBRANCH   1  15
BRANCH   4  17
ATOM     17  O   UNL     1       6.749   0.090  22.614  0.00  0.00    -0.386 OA
ATOM     18  H   UNL     1       5.798  -0.104  22.565  0.00  0.00    +0.210 HD
ENDBRANCH   4  17
BRANCH   3  19
ATOM     19  C   UNL     1       9.969  -0.580  22.599  0.00  0.00    +0.190 C 
BRANCH  19  20
ATOM     20  O   UNL     1      10.085  -1.555  21.564  0.00  0.00    -0.392 OA
ATOM     21  H   UNL     1      10.519  -1.110  20.812  0.00  0.00    +0.210 HD
ENDBRANCH  19  20
ENDBRANCH   3  19
TORSDOF 4
ENDMDL
MODEL 5
REMARK VINA RESULT:      -6.0      2.302      2.797
REMARK  Name = 
REMARK  5 active torsions:
REMARK  status: ('A' for Active; 'I' for Inactive)
REMARK    1  A    between atoms: C_1  and  C_2
REMARK    2  A    between atoms: N_4  and  C_10
REMARK    3  A    between atoms: C_14  and  O_21
REMARK    4  A    between atoms: C_16  and  C_19
REMARK    5  A    between atoms: C_19  and  O_20
REMARK                            x       y       z     vdW  Elec       q    Type
REMARK                         _______ _______ _______ _____ _____    ______ ____
ROOT
ATOM      1  C   UNL     1       7.233  -2.780  24.291  0.00  0.00    +0.260 C 
ATOM      2  O   UNL     1       7.541  -2.811  25.702  0.00  0.00    -0.345 OA
ATOM      3  C   UNL     1       8.267  -4.035  25.965  0.00  0.00    +0.178 C 
ATOM      4  C   UNL     1       8.322  -4.829  24.660  0.00  0.00    +0.184 C 
ATOM      5  C   UNL     1       8.216  -3.735  23.618  0.00  0.00    +0.246 C 
ATOM      6  F   UNL     1       7.728  -4.234  22.459  0.00  0.00    -0.238 F 
ENDROOT
BRANCH   1  15
ATOM      7  C   UNL     1       9.420   0.790  21.559  0.00  0.00    +0.051 C 
ATOM      8  C   UNL     1       8.339   0.260  22.445  0.00  0.00    +0.030 A 
ATOM      9  C   UNL     1       7.223   1.181  22.767  0.00  0.00    +0.257 A 
ATOM     10  O   UNL     1       7.175   2.325  22.329  0.00  0.00    -0.267 OA
ATOM     11  N   UNL     1       6.249   0.672  23.573  0.00  0.00    -0.275 N 
ATOM     12  H   UNL     1       5.476   1.277  23.798  0.00  0.00    +0.173 HD
ATOM     13  C   UNL     1       6.203  -0.595  24.085  0.00  0.00    +0.331 A 
ATOM     14  O   UNL     1       5.249  -0.945  24.776  0.00  0.00    -0.246 OA
ATOM     15  N   UNL     1       7.281  -1.413  23.775  0.00  0.00    -0.271 N 
ATOM     16  C   UNL     1       8.310  -0.976  22.961  0.00  0.00    +0.102 A 
ENDBRANCH   1  15
BRANCH   4  17
ATOM     17  O   UNL     1       9.515  -5.607  24.570  0.00  0.00    -0.386 OA
ATOM     18  H   UNL     1       9.895  -5.732  25.455  0.00  0.00    +0.210 HD
ENDBRANCH   4  17
BRANCH   3  19
ATOM     19  C   UNL     1       7.568  -4.793  27.093  0.00  0.00    +0.190 C 
BRANCH  19  20
ATOM     20  O   UNL     1       8.071  -6.125  27.185  0.00  0.00    -0.392 OA
ATOM     21  H   UNL     1       8.419  -6.351  26.302  0.00  0.00    +0.210 HD
ENDBRANCH  19  20
ENDBRANCH   3  19
TORSDOF 4
ENDMDL
MODEL 6
REMARK VINA RESULT:      -5.9      2.618      6.443
REMARK  Name = 
REMARK  5 active torsions:
REMARK  status: ('A' for Active; 'I' for Inactive)
REMARK    1  A    between atoms: C_1  and  C_2
REMARK    2  A    between atoms: N_4  and  C_10
REMARK    3  A    between atoms: C_14  and  O_21
REMARK    4  A    between atoms: C_16  and  C_19
REMARK    5  A    between atoms: C_19  and  O_20
REMARK                            x       y       z     vdW  Elec       q    Type
REMARK                         _______ _______ _______ _____ _____    ______ ____
ROOT
ATOM      1  C   UNL     1       8.383   0.160  23.775  0.00  0.00    +0.260 C 
ATOM      2  O   UNL     1       7.375   0.631  22.855  0.00  0.00    -0.345 OA
ATOM      3  C   UNL     1       7.978   1.658  22.031  0.00  0.00    +0.178 C 
ATOM      4  C   UNL     1       9.401   1.883  22.542  0.00  0.00    +0.184 C 
ATOM      5  C   UNL     1       9.730   0.541  23.165  0.00  0.00    +0.246 C 
ATOM      6  F   UNL     1      10.693   0.682  24.104  0.00  0.00    -0.238 F 
ENDROOT
BRANCH   1  15
ATOM      7  C   UNL     1       7.262  -4.465  22.245  0.00  0.00    +0.051 C 
ATOM      8  C   UNL     1       7.707  -3.467  23.265  0.00  0.00    +0.030 A 
ATOM      9  C   UNL     1       8.061  -3.989  24.606  0.00  0.00    +0.257 A 
ATOM     10  O   UNL     1       8.001  -5.183  24.877  0.00  0.00    -0.267 OA
ATOM     11  N   UNL     1       8.468  -3.059  25.515  0.00  0.00    -0.275 N 
ATOM     12  H   UNL     1       8.722  -3.392  26.431  0.00  0.00    +0.173 HD
ATOM     13  C   UNL     1       8.594  -1.715  25.297  0.00  0.00    +0.331 A 
ATOM     14  O   UNL     1       9.004  -0.982  26.193  0.00  0.00    -0.246 OA
ATOM     15  N   UNL     1       8.228  -1.270  24.034  0.00  0.00    -0.271 N 
ATOM     16  C   UNL     1       7.808  -2.148  23.051  0.00  0.00    +0.102 A 
ENDBRANCH   1  15
BRANCH   4  17
ATOM     17  O   UNL     1      10.281   2.267  21.487  0.00  0.00    -0.386 OA
ATOM     18  H   UNL     1       9.831   2.173  20.631  0.00  0.00    +0.210 HD
ENDBRANCH   4  17
BRANCH   3  19
ATOM     19  C   UNL     1       7.116   2.918  22.100  0.00  0.00    +0.190 C 
BRANCH  19  20
ATOM     20  O   UNL     1       7.937   4.085  22.078  0.00  0.00    -0.392 OA
ATOM     21  H   UNL     1       8.385   4.124  22.944  0.00  0.00    +0.210 HD
ENDBRANCH  19  20
ENDBRANCH   3  19
TORSDOF 4
ENDMDL
MODEL 7
REMARK VINA RESULT:      -5.8      2.178      2.910
REMARK  Name = 
REMARK  5 active torsions:
REMARK  status: ('A' for Active; 'I' for Inactive)
REMARK    1  A    between atoms: C_1  and  C_2
REMARK    2  A    between atoms: N_4  and  C_10
REMARK    3  A    between atoms: C_14  and  O_21
REMARK    4  A    between atoms: C_16  and  C_19
REMARK    5  A    between atoms: C_19  and  O_20
REMARK                            x       y       z     vdW  Elec       q    Type
REMARK                         _______ _______ _______ _____ _____    ______ ____
ROOT
ATOM      1  C   UNL     1       8.214  -2.856  22.500  0.00  0.00    +0.260 C 
ATOM      2  O   UNL     1       6.949  -3.179  21.883  0.00  0.00    -0.345 OA
ATOM      3  C   UNL     1       6.415  -4.342  22.558  0.00  0.00    +0.178 C 
ATOM      4  C   UNL     1       7.456  -4.801  23.580  0.00  0.00    +0.184 C 
ATOM      5  C   UNL     1       8.197  -3.514  23.878  0.00  0.00    +0.246 C 
ATOM      6  F   UNL     1       9.444  -3.782  24.329  0.00  0.00    -0.238 F 
ENDROOT
BRANCH   1  15
ATOM      7  C   UNL     1       6.515   1.803  23.122  0.00  0.00    +0.051 C 
ATOM      8  C   UNL     1       7.588   0.798  22.855  0.00  0.00    +0.030 A 
ATOM      9  C   UNL     1       8.964   1.318  22.666  0.00  0.00    +0.257 A 
ATOM     10  O   UNL     1       9.222   2.514  22.727  0.00  0.00    -0.267 OA
ATOM     11  N   UNL     1       9.923   0.380  22.429  0.00  0.00    -0.275 N 
ATOM     12  H   UNL     1      10.867   0.709  22.305  0.00  0.00    +0.173 HD
ATOM     13  C   UNL     1       9.736  -0.974  22.371  0.00  0.00    +0.331 A 
ATOM     14  O   UNL     1      10.693  -1.720  22.182  0.00  0.00    -0.246 OA
ATOM     15  N   UNL     1       8.428  -1.411  22.531  0.00  0.00    -0.271 N 
ATOM     16  C   UNL     1       7.395  -0.526  22.779  0.00  0.00    +0.102 A 
ENDBRANCH   1  15
BRANCH   4  17
ATOM     17  O   UNL     1       6.843  -5.399  24.721  0.00  0.00    -0.386 OA
ATOM     18  H   UNL     1       7.005  -6.356  24.719  0.00  0.00    +0.210 HD
ENDBRANCH   4  17
BRANCH   3  19
ATOM     19  C   UNL     1       6.089  -5.414  21.519  0.00  0.00    +0.190 C 
BRANCH  19  20
ATOM     20  O   UNL     1       6.210  -6.716  22.090  0.00  0.00    -0.392 OA
ATOM     21  H   UNL     1       6.112  -7.350  21.356  0.00  0.00    +0.210 HD
ENDBRANCH  19  20
ENDBRANCH   3  19
TORSDOF 4
ENDMDL
MODEL 8
REMARK VINA RESULT:      -5.8      2.704      3.427
REMARK  Name = 
REMARK  5 active torsions:
REMARK  status: ('A' for Active; 'I' for Inactive)
REMARK    1  A    between atoms: C_1  and  C_2
REMARK    2  A    between atoms: N_4  and  C_10
REMARK    3  A    between atoms: C_14  and  O_21
REMARK    4  A    between atoms: C_16  and  C_19
REMARK    5  A    between atoms: C_19  and  O_20
REMARK                            x       y       z     vdW  Elec       q    Type
REMARK                         _______ _______ _______ _____ _____    ______ ____
ROOT
ATOM      1  C   UNL     1       7.412  -3.383  23.445  0.00  0.00    +0.260 C 
ATOM      2  O   UNL     1       7.420  -3.736  22.044  0.00  0.00    -0.345 OA
ATOM      3  C   UNL     1       6.168  -4.401  21.752  0.00  0.00    +0.178 C 
ATOM      4  C   UNL     1       5.399  -4.537  23.066  0.00  0.00    +0.184 C 
ATOM      5  C   UNL     1       5.947  -3.379  23.875  0.00  0.00    +0.246 C 
ATOM      6  F   UNL     1       5.805  -3.620  25.199  0.00  0.00    -0.238 F 
ENDROOT
BRANCH   1  15
ATOM      7  C   UNL     1       7.379   1.594  23.911  0.00  0.00    +0.051 C 
ATOM      8  C   UNL     1       8.048   0.258  23.907  0.00  0.00    +0.030 A 
ATOM      9  C   UNL     1       9.500   0.232  24.205  0.00  0.00    +0.257 A 
ATOM     10  O   UNL     1      10.133   1.254  24.449  0.00  0.00    -0.267 OA
ATOM     11  N   UNL     1      10.084  -0.999  24.199  0.00  0.00    -0.275 N 
ATOM     12  H   UNL     1      11.069  -1.041  24.407  0.00  0.00    +0.173 HD
ATOM     13  C   UNL     1       9.457  -2.191  23.966  0.00  0.00    +0.331 A 
ATOM     14  O   UNL     1      10.092  -3.242  24.021  0.00  0.00    -0.246 OA
ATOM     15  N   UNL     1       8.103  -2.115  23.669  0.00  0.00    -0.271 N 
ATOM     16  C   UNL     1       7.432  -0.906  23.657  0.00  0.00    +0.102 A 
ENDBRANCH   1  15
BRANCH   4  17
ATOM     17  O   UNL     1       3.989  -4.487  22.857  0.00  0.00    -0.386 OA
ATOM     18  H   UNL     1       3.784  -3.858  22.145  0.00  0.00    +0.210 HD
ENDBRANCH   4  17
BRANCH   3  19
ATOM     19  C   UNL     1       6.463  -5.748  21.094  0.00  0.00    +0.190 C 
BRANCH  19  20
ATOM     20  O   UNL     1       6.088  -6.818  21.959  0.00  0.00    -0.392 OA
ATOM     21  H   UNL     1       6.804  -6.907  22.615  0.00  0.00    +0.210 HD
ENDBRANCH  19  20
ENDBRANCH   3  19
TORSDOF 4
ENDMDL
MODEL 9
REMARK VINA RESULT:      -5.7      2.021      6.025
REMARK  Name = 
REMARK  5 active torsions:
REMARK  status: ('A' for Active; 'I' for Inactive)
REMARK    1  A    between atoms: C_1  and  C_2
REMARK    2  A    between atoms: N_4  and  C_10
REMARK    3  A    between atoms: C_14  and  O_21
REMARK    4  A    between atoms: C_16  and  C_19
REMARK    5  A    between atoms: C_19  and  O_20
REMARK                            x       y       z     vdW  Elec       q    Type
REMARK                         _______ _______ _______ _____ _____    ______ ____
ROOT
ATOM      1  C   UNL     1       8.136  -2.433  24.538  0.00  0.00    +0.260 C 
ATOM      2  O   UNL     1       7.248  -1.526  23.849  0.00  0.00    -0.345 OA
ATOM      3  C   UNL     1       7.970  -0.977  22.721  0.00  0.00    +0.178 C 
ATOM      4  C   UNL     1       9.400  -1.512  22.784  0.00  0.00    +0.184 C 
ATOM      5  C   UNL     1       9.219  -2.817  23.533  0.00  0.00    +0.246 C 
ATOM      6  F   UNL     1      10.373  -3.176  24.140  0.00  0.00    -0.238 F 
ENDROOT
BRANCH   1  15
ATOM      7  C   UNL     1       4.650  -5.992  24.135  0.00  0.00    +0.051 C 
ATOM      8  C   UNL     1       5.744  -5.270  24.853  0.00  0.00    +0.030 A 
ATOM      9  C   UNL     1       6.130  -5.789  26.187  0.00  0.00    +0.257 A 
ATOM     10  O   UNL     1       5.588  -6.769  26.686  0.00  0.00    -0.267 OA
ATOM     11  N   UNL     1       7.133  -5.115  26.817  0.00  0.00    -0.275 N 
ATOM     12  H   UNL     1       7.418  -5.456  27.721  0.00  0.00    +0.173 HD
ATOM     13  C   UNL     1       7.813  -4.034  26.329  0.00  0.00    +0.331 A 
ATOM     14  O   UNL     1       8.724  -3.533  26.983  0.00  0.00    -0.246 OA
ATOM     15  N   UNL     1       7.401  -3.570  25.087  0.00  0.00    -0.271 N 
ATOM     16  C   UNL     1       6.393  -4.198  24.378  0.00  0.00    +0.102 A 
ENDBRANCH   1  15
BRANCH   4  17
ATOM     17  O   UNL     1       9.962  -1.661  21.481  0.00  0.00    -0.386 OA
ATOM     18  H   UNL     1      10.107  -0.787  21.082  0.00  0.00    +0.210 HD
ENDBRANCH   4  17
BRANCH   3  19
ATOM     19  C   UNL     1       7.902   0.548  22.783  0.00  0.00    +0.190 C 
BRANCH  19  20
ATOM     20  O   UNL     1       8.645   1.124  21.710  0.00  0.00    -0.392 OA
ATOM     21  H   UNL     1       9.574   0.857  21.842  0.00  0.00    +0.210 HD
ENDBRANCH  19  20
ENDBRANCH   3  19
TORSDOF 4
ENDMDL
