MODEL 1
REMARK VINA RESULT:      -6.2      0.000      0.000
REMARK  Name = 
REMARK  6 active torsions:
REMARK  status: ('A' for Active; 'I' for Inactive)
REMARK    1  A    between atoms: C_3  and  C_18
REMARK    2  A    between atoms: N_5  and  C1*_6
REMARK    3  A    between atoms: C2*_8  and  O2*_17
REMARK    4  A    between atoms: C3*_9  and  O3*_16
REMARK    5  A    between atoms: C4*_11  and  C5*_14
REMARK    6  A    between atoms: C5*_14  and  O5*_15
REMARK                            x       y       z     vdW  Elec       q    Type
REMARK                         _______ _______ _______ _____ _____    ______ ____
ROOT
ATOM      1  C1* UNL     1       9.036  -1.727  23.811  0.00  0.00    +0.270 C 
ATOM      2  O4* UNL     1       8.064  -0.665  23.677  0.00  0.00    -0.344 OA
ATOM      3  C4* UNL     1       8.798   0.538  23.333  0.00  0.00    +0.177 C 
ATOM      4  C3* UNL     1      10.267   0.136  23.100  0.00  0.00    +0.178 C 
ATOM      5  C2* UNL     1      10.191  -1.370  22.876  0.00  0.00    +0.196 C 
ENDROOT
BRANCH   1   7
ATOM      6  C   UNL     1       8.641  -4.185  24.233  0.00  0.00    +0.223 A 
ATOM      7  N   UNL     1       8.422  -3.016  23.575  0.00  0.00    -0.220 N 
ATOM      8  N   UNL     1       7.573  -3.191  22.541  0.00  0.00    -0.142 NA
ATOM      9  C   UNL     1       7.310  -4.509  22.611  0.00  0.00    +0.236 A 
ATOM     10  N   UNL     1       7.961  -5.151  23.659  0.00  0.00    -0.211 NA
BRANCH   9  11
ATOM     11  C   UNL     1       6.435  -5.236  21.666  0.00  0.00    +0.281 C 
ATOM     12  N   UNL     1       6.283  -6.566  21.962  0.00  0.00    -0.323 N 
ATOM     13  H   UNL     1       5.705  -7.138  21.367  0.00  0.00    +0.145 HD
ATOM     14  H   UNL     1       6.748  -6.954  22.775  0.00  0.00    +0.145 HD
ATOM     15  O   UNL     1       5.881  -4.745  20.687  0.00  0.00    -0.267 OA
ENDBRANCH   9  11
ENDBRANCH   1   7
BRANCH   4  16
ATOM     16  O3* UNL     1      11.015   0.412  24.290  0.00  0.00    -0.386 OA
ATOM     17  H3* UNL     1      11.585  -0.360  24.466  0.00  0.00    +0.210 HD
ENDBRANCH   4  16
BRANCH   5  18
ATOM     18  O2* UNL     1       9.940  -1.648  21.495  0.00  0.00    -0.385 OA
ATOM     19  H2* UNL     1      10.073  -0.820  20.979  0.00  0.00    +0.210 HD
ENDBRANCH   5  18
BRANCH   3  20
ATOM     20  C5* UNL     1       8.129   1.160  22.105  0.00  0.00    +0.190 C 
BRANCH  20  21
ATOM     21  O5* UNL     1       9.071   1.308  21.039  0.00  0.00    -0.392 OA
ATOM     22  H5* UNL     1       9.684   2.018  21.313  0.00  0.00    +0.210 HD
ENDBRANCH  20  21
ENDBRANCH   3  20
TORSDOF 6
ENDMDL
MODEL 2
REMARK VINA RESULT:      -6.0      2.082      3.464
REMARK  Name = 
REMARK  6 active torsions:
REMARK  status: ('A' for Active; 'I' for Inactive)
REMARK    1  A    between atoms: C_3  and  C_18
REMARK    2  A    between atoms: N_5  and  C1*_6
REMARK    3  A    between atoms: C2*_8  and  O2*_17
REMARK    4  A    between atoms: C3*_9  and  O3*_16
REMARK    5  A    between atoms: C4*_11  and  C5*_14
REMARK    6  A    between atoms: C5*_14  and  O5*_15
REMARK                            x       y       z     vdW  Elec       q    Type
REMARK                         _______ _______ _______ _____ _____    ______ ____
ROOT
ATOM      1  C1* UNL     1       9.059  -1.118  22.537  0.00  0.00    +0.270 C 
ATOM      2  O4* UNL     1      10.322  -0.562  22.969  0.00  0.00    -0.344 OA
ATOM      3  C4* UNL     1      10.228   0.876  22.803  0.00  0.00    +0.177 C 
ATOM      4  C3* UNL     1       8.780   1.204  22.396  0.00  0.00    +0.178 C 
ATOM      5  C2* UNL     1       8.005  -0.043  22.804  0.00  0.00    +0.196 C 
ENDROOT
BRANCH   1   7
ATOM      6  C   UNL     1       7.935  -3.363  22.811  0.00  0.00    +0.223 A 
ATOM      7  N   UNL     1       8.818  -2.396  23.174  0.00  0.00    -0.220 N 
ATOM      8  N   UNL     1       9.447  -2.718  24.323  0.00  0.00    -0.142 NA
ATOM      9  C   UNL     1       8.892  -3.905  24.627  0.00  0.00    +0.236 A 
ATOM     10  N   UNL     1       7.948  -4.331  23.698  0.00  0.00    -0.211 NA
BRANCH   9  11
ATOM     11  C   UNL     1       9.217  -4.694  25.835  0.00  0.00    +0.281 C 
ATOM     12  N   UNL     1      10.208  -5.621  25.641  0.00  0.00    -0.323 N 
ATOM     13  H   UNL     1      10.490  -6.205  26.412  0.00  0.00    +0.145 HD
ATOM     14  H   UNL     1      10.645  -5.704  24.730  0.00  0.00    +0.145 HD
ATOM     15  O   UNL     1       8.674  -4.576  26.929  0.00  0.00    -0.267 OA
ENDBRANCH   9  11
ENDBRANCH   1   7
BRANCH   4  16
ATOM     16  O3* UNL     1       8.725   1.364  20.974  0.00  0.00    -0.386 OA
ATOM     17  H3* UNL     1       7.969   1.945  20.770  0.00  0.00    +0.210 HD
ENDBRANCH   4  16
BRANCH   5  18
ATOM     18  O2* UNL     1       7.598   0.058  24.172  0.00  0.00    -0.385 OA
ATOM     19  H2* UNL     1       7.131   0.916  24.298  0.00  0.00    +0.210 HD
ENDBRANCH   5  18
BRANCH   3  20
ATOM     20  C5* UNL     1      10.660   1.529  24.119  0.00  0.00    +0.190 C 
BRANCH  20  21
ATOM     21  O5* UNL     1      10.444   0.637  25.217  0.00  0.00    -0.392 OA
ATOM     22  H5* UNL     1      11.246   0.081  25.279  0.00  0.00    +0.210 HD
ENDBRANCH  20  21
ENDBRANCH   3  20
TORSDOF 6
ENDMDL
MODEL 3
REMARK VINA RESULT:      -5.7      4.801      7.683
REMARK  Name = 
REMARK  6 active torsions:
REMARK  status: ('A' for Active; 'I' for Inactive)
REMARK    1  A    between atoms: C_3  and  C_18
REMARK    2  A    between atoms: N_5  and  C1*_6
REMARK    3  A    between atoms: C2*_8  and  O2*_17
REMARK    4  A    between atoms: C3*_9  and  O3*_16
REMARK    5  A    between atoms: C4*_11  and  C5*_14
REMARK    6  A    between atoms: C5*_14  and  O5*_15
REMARK                            x       y       z     vdW  Elec       q    Type
REMARK                         _______ _______ _______ _____ _____    ______ ____
ROOT
ATOM      1  C1* UNL     1       8.718   2.158  23.673  0.00  0.00    +0.270 C 
ATOM      2  O4* UNL     1       9.482   1.031  24.157  0.00  0.00    -0.344 OA
ATOM      3  C4* UNL     1       9.008  -0.139  23.441  0.00  0.00    +0.177 C 
ATOM      4  C3* UNL     1       8.017   0.345  22.366  0.00  0.00    +0.178 C 
ATOM      5  C2* UNL     1       8.336   1.829  22.230  0.00  0.00    +0.196 C 
ENDROOT
BRANCH   1   7
ATOM      6  C   UNL     1       8.986   4.597  24.272  0.00  0.00    +0.223 A 
ATOM      7  N   UNL     1       9.454   3.392  23.855  0.00  0.00    -0.220 N 
ATOM      8  N   UNL     1      10.758   3.467  23.516  0.00  0.00    -0.142 NA
ATOM      9  C   UNL     1      11.034   4.765  23.740  0.00  0.00    +0.236 A 
ATOM     10  N   UNL     1       9.947   5.490  24.215  0.00  0.00    -0.211 NA
BRANCH   9  11
ATOM     11  C   UNL     1      12.350   5.392  23.493  0.00  0.00    +0.281 C 
ATOM     12  N   UNL     1      12.649   6.413  24.358  0.00  0.00    -0.323 N 
ATOM     13  H   UNL     1      13.526   6.899  24.259  0.00  0.00    +0.145 HD
ATOM     14  H   UNL     1      11.988   6.662  25.085  0.00  0.00    +0.145 HD
ATOM     15  O   UNL     1      13.136   5.073  22.606  0.00  0.00    -0.267 OA
ENDBRANCH   9  11
ENDBRANCH   1   7
BRANCH   4  16
ATOM     16  O3* UNL     1       6.683   0.180  22.860  0.00  0.00    -0.386 OA
ATOM     17  H3* UNL     1       6.333   1.066  23.068  0.00  0.00    +0.210 HD
ENDBRANCH   4  16
BRANCH   5  18
ATOM     18  O2* UNL     1       9.392   2.019  21.282  0.00  0.00    -0.385 OA
ATOM     19  H2* UNL     1       8.993   2.167  20.394  0.00  0.00    +0.210 HD
ENDBRANCH   5  18
BRANCH   3  20
ATOM     20  C5* UNL     1      10.229  -0.865  22.870  0.00  0.00    +0.190 C 
BRANCH  20  21
ATOM     21  O5* UNL     1      10.079  -1.070  21.462  0.00  0.00    -0.392 OA
ATOM     22  H5* UNL     1      10.131  -0.185  21.050  0.00  0.00    +0.210 HD
ENDBRANCH  20  21
ENDBRANCH   3  20
TORSDOF 6
ENDMDL
MODEL 4
REMARK VINA RESULT:      -5.7      2.781      5.716
REMARK  Name = 
REMARK  6 active torsions:
REMARK  status: ('A' for Active; 'I' for Inactive)
REMARK    1  A    between atoms: C_3  and  C_18
REMARK    2  A    between atoms: N_5  and  C1*_6
REMARK    3  A    between atoms: C2*_8  and  O2*_17
REMARK    4  A    between atoms: C3*_9  and  O3*_16
REMARK    5  A    between atoms: C4*_11  and  C5*_14
REMARK    6  A    between atoms: C5*_14  and  O5*_15
REMARK                            x       y       z     vdW  Elec       q    Type
REMARK                         _______ _______ _______ _____ _____    ______ ____
ROOT
ATOM      1  C1* UNL     1       9.411  -3.088  24.280  0.00  0.00    +0.270 C 
ATOM      2  O4* UNL     1       8.664  -4.135  23.620  0.00  0.00    -0.344 OA
ATOM      3  C4* UNL     1       8.135  -4.996  24.661  0.00  0.00    +0.177 C 
ATOM      4  C3* UNL     1       8.457  -4.339  26.016  0.00  0.00    +0.178 C 
ATOM      5  C2* UNL     1       8.755  -2.891  25.647  0.00  0.00    +0.196 C 
ENDROOT
BRANCH   1   7
ATOM      6  C   UNL     1       9.317  -1.814  22.102  0.00  0.00    +0.223 A 
ATOM      7  N   UNL     1       9.480  -1.906  23.448  0.00  0.00    -0.220 N 
ATOM      8  N   UNL     1       9.824  -0.714  23.978  0.00  0.00    -0.142 NA
ATOM      9  C   UNL     1       9.867   0.078  22.891  0.00  0.00    +0.236 A 
ATOM     10  N   UNL     1       9.551  -0.583  21.709  0.00  0.00    -0.211 NA
BRANCH   9  11
ATOM     11  C   UNL     1      10.231   1.511  22.917  0.00  0.00    +0.281 C 
ATOM     12  N   UNL     1      10.092   2.141  21.707  0.00  0.00    -0.323 N 
ATOM     13  H   UNL     1      10.322   3.119  21.634  0.00  0.00    +0.145 HD
ATOM     14  H   UNL     1       9.756   1.617  20.906  0.00  0.00    +0.145 HD
ATOM     15  O   UNL     1      10.636   2.125  23.900  0.00  0.00    -0.267 OA
ENDBRANCH   9  11
ENDBRANCH   1   7
BRANCH   4  16
ATOM     16  O3* UNL     1       9.632  -4.952  26.559  0.00  0.00    -0.386 OA
ATOM     17  H3* UNL     1       9.499  -5.918  26.538  0.00  0.00    +0.210 HD
ENDBRANCH   4  16
BRANCH   5  18
ATOM     18  O2* UNL     1       7.542  -2.133  25.615  0.00  0.00    -0.385 OA
ATOM     19  H2* UNL     1       6.783  -2.757  25.558  0.00  0.00    +0.210 HD
ENDBRANCH   5  18
BRANCH   3  20
ATOM     20  C5* UNL     1       6.636  -5.175  24.404  0.00  0.00    +0.190 C 
BRANCH  20  21
ATOM     21  O5* UNL     1       6.108  -4.045  23.704  0.00  0.00    -0.392 OA
ATOM     22  H5* UNL     1       6.800  -3.769  23.070  0.00  0.00    +0.210 HD
ENDBRANCH  20  21
ENDBRANCH   3  20
TORSDOF 6
ENDMDL
MODEL 5
REMARK VINA RESULT:      -5.6      2.989      5.970
REMARK  Name = 
REMARK  6 active torsions:
REMARK  status: ('A' for Active; 'I' for Inactive)
REMARK    1  A    between atoms: C_3  and  C_18
REMARK    2  A    between atoms: N_5  and  C1*_6
REMARK    3  A    between atoms: C2*_8  and  O2*_17
REMARK    4  A    between atoms: C3*_9  and  O3*_16
REMARK    5  A    between atoms: C4*_11  and  C5*_14
REMARK    6  A    between atoms: C5*_14  and  O5*_15
REMARK                            x       y       z     vdW  Elec       q    Type
REMARK                         _______ _______ _______ _____ _____    ______ ____
ROOT
ATOM      1  C1* UNL     1       8.030  -2.088  24.367  0.00  0.00    +0.270 C 
ATOM      2  O4* UNL     1       7.954  -2.662  25.692  0.00  0.00    -0.344 OA
ATOM      3  C4* UNL     1       8.039  -4.102  25.534  0.00  0.00    +0.177 C 
ATOM      4  C3* UNL     1       8.335  -4.390  24.050  0.00  0.00    +0.178 C 
ATOM      5  C2* UNL     1       8.862  -3.058  23.528  0.00  0.00    +0.196 C 
ENDROOT
BRANCH   1   7
ATOM      6  C   UNL     1       8.305   0.208  25.380  0.00  0.00    +0.223 A 
ATOM      7  N   UNL     1       8.530  -0.731  24.424  0.00  0.00    -0.220 N 
ATOM      8  N   UNL     1       9.252  -0.223  23.404  0.00  0.00    -0.142 NA
ATOM      9  C   UNL     1       9.433   1.053  23.792  0.00  0.00    +0.236 A 
ATOM     10  N   UNL     1       8.855   1.346  25.023  0.00  0.00    -0.211 NA
BRANCH   9  11
ATOM     11  C   UNL     1      10.153   2.072  22.999  0.00  0.00    +0.281 C 
ATOM     12  N   UNL     1       9.892   2.015  21.655  0.00  0.00    -0.323 N 
ATOM     13  H   UNL     1      10.344   2.672  21.039  0.00  0.00    +0.145 HD
ATOM     14  H   UNL     1       9.247   1.318  21.299  0.00  0.00    +0.145 HD
ATOM     15  O   UNL     1      10.930   2.907  23.452  0.00  0.00    -0.267 OA
ENDBRANCH   9  11
ENDBRANCH   1   7
BRANCH   4  16
ATOM     16  O3* UNL     1       7.107  -4.717  23.389  0.00  0.00    -0.386 OA
ATOM     17  H3* UNL     1       7.322  -5.296  22.635  0.00  0.00    +0.210 HD
ENDBRANCH   4  16
BRANCH   5  18
ATOM     18  O2* UNL     1      10.273  -2.970  23.749  0.00  0.00    -0.385 OA
ATOM     19  H2* UNL     1      10.520  -2.020  23.828  0.00  0.00    +0.210 HD
ENDBRANCH   5  18
BRANCH   3  20
ATOM     20  C5* UNL     1       9.121  -4.615  26.488  0.00  0.00    +0.190 C 
BRANCH  20  21
ATOM     21  O5* UNL     1      10.099  -5.377  25.775  0.00  0.00    -0.392 OA
ATOM     22  H5* UNL     1      10.956  -4.929  25.924  0.00  0.00    +0.210 HD
ENDBRANCH  20  21
ENDBRANCH   3  20
TORSDOF 6
ENDMDL
MODEL 6
REMARK VINA RESULT:      -5.6      2.274      2.902
REMARK  Name = 
REMARK  6 active torsions:
REMARK  status: ('A' for Active; 'I' for Inactive)
REMARK    1  A    between atoms: C_3  and  C_18
REMARK    2  A    between atoms: N_5  and  C1*_6
REMARK    3  A    between atoms: C2*_8  and  O2*_17
REMARK    4  A    between atoms: C3*_9  and  O3*_16
REMARK    5  A    between atoms: C4*_11  and  C5*_14
REMARK    6  A    between atoms: C5*_14  and  O5*_15
REMARK                            x       y       z     vdW  Elec       q    Type
REMARK                         _______ _______ _______ _____ _____    ______ ____
ROOT
ATOM      1  C1* UNL     1       8.374  -0.505  24.409  0.00  0.00    +0.270 C 
ATOM      2  O4* UNL     1       7.644   0.061  23.297  0.00  0.00    -0.344 OA
ATOM      3  C4* UNL     1       8.109   1.426  23.138  0.00  0.00    +0.177 C 
ATOM      4  C3* UNL     1       9.287   1.632  24.109  0.00  0.00    +0.178 C 
ATOM      5  C2* UNL     1       9.725   0.211  24.443  0.00  0.00    +0.196 C 
ENDROOT
BRANCH   1   7
ATOM      6  C   UNL     1       8.116  -2.724  23.231  0.00  0.00    +0.223 A 
ATOM      7  N   UNL     1       8.438  -1.947  24.298  0.00  0.00    -0.220 N 
ATOM      8  N   UNL     1       8.773  -2.702  25.366  0.00  0.00    -0.142 NA
ATOM      9  C   UNL     1       8.624  -3.951  24.887  0.00  0.00    +0.236 A 
ATOM     10  N   UNL     1       8.219  -3.992  23.558  0.00  0.00    -0.211 NA
BRANCH   9  11
ATOM     11  C   UNL     1       8.842  -5.179  25.681  0.00  0.00    +0.281 C 
ATOM     12  N   UNL     1      10.110  -5.690  25.575  0.00  0.00    -0.323 N 
ATOM     13  H   UNL     1      10.344  -6.529  26.081  0.00  0.00    +0.145 HD
ATOM     14  H   UNL     1      10.793  -5.217  24.995  0.00  0.00    +0.145 HD
ATOM     15  O   UNL     1       7.999  -5.736  26.377  0.00  0.00    -0.267 OA
ENDBRANCH   9  11
ENDBRANCH   1   7
BRANCH   4  16
ATOM     16  O3* UNL     1       8.803   2.280  25.291  0.00  0.00    -0.386 OA
ATOM     17  H3* UNL     1       9.540   2.793  25.671  0.00  0.00    +0.210 HD
ENDBRANCH   4  16
BRANCH   5  18
ATOM     18  O2* UNL     1      10.664  -0.254  23.469  0.00  0.00    -0.385 OA
ATOM     19  H2* UNL     1      10.382  -1.145  23.160  0.00  0.00    +0.210 HD
ENDBRANCH   5  18
BRANCH   3  20
ATOM     20  C5* UNL     1       8.483   1.626  21.667  0.00  0.00    +0.190 C 
BRANCH  20  21
ATOM     21  O5* UNL     1       9.846   2.046  21.547  0.00  0.00    -0.392 OA
ATOM     22  H5* UNL     1       9.822   2.935  21.142  0.00  0.00    +0.210 HD
ENDBRANCH  20  21
ENDBRANCH   3  20
TORSDOF 6
ENDMDL
MODEL 7
REMARK VINA RESULT:      -5.4      2.556      5.722
REMARK  Name = 
REMARK  6 active torsions:
REMARK  status: ('A' for Active; 'I' for Inactive)
REMARK    1  A    between atoms: C_3  and  C_18
REMARK    2  A    between atoms: N_5  and  C1*_6
REMARK    3  A    between atoms: C2*_8  and  O2*_17
REMARK    4  A    between atoms: C3*_9  and  O3*_16
REMARK    5  A    between atoms: C4*_11  and  C5*_14
REMARK    6  A    between atoms: C5*_14  and  O5*_15
REMARK                            x       y       z     vdW  Elec       q    Type
REMARK                         _______ _______ _______ _____ _____    ______ ____
ROOT
ATOM      1  C1* UNL     1       7.891  -2.977  23.670  0.00  0.00    +0.270 C 
ATOM      2  O4* UNL     1       8.408  -4.243  23.200  0.00  0.00    -0.344 OA
ATOM      3  C4* UNL     1       7.352  -5.222  23.374  0.00  0.00    +0.177 C 
ATOM      4  C3* UNL     1       6.088  -4.466  23.827  0.00  0.00    +0.178 C 
ATOM      5  C2* UNL     1       6.380  -3.022  23.439  0.00  0.00    +0.196 C 
ENDROOT
BRANCH   1   7
ATOM      6  C   UNL     1       9.915  -1.742  22.802  0.00  0.00    +0.223 A 
ATOM      7  N   UNL     1       8.584  -1.875  23.038  0.00  0.00    -0.220 N 
ATOM      8  N   UNL     1       7.913  -0.761  22.677  0.00  0.00    -0.142 NA
ATOM      9  C   UNL     1       8.902   0.034  22.232  0.00  0.00    +0.236 A 
ATOM     10  N   UNL     1      10.160  -0.556  22.295  0.00  0.00    -0.211 NA
BRANCH   9  11
ATOM     11  C   UNL     1       8.705   1.414  21.736  0.00  0.00    +0.281 C 
ATOM     12  N   UNL     1       9.872   2.114  21.568  0.00  0.00    -0.323 N 
ATOM     13  H   UNL     1       9.830   3.064  21.236  0.00  0.00    +0.145 HD
ATOM     14  H   UNL     1      10.758   1.668  21.774  0.00  0.00    +0.145 HD
ATOM     15  O   UNL     1       7.621   1.934  21.492  0.00  0.00    -0.267 OA
ENDBRANCH   9  11
ENDBRANCH   1   7
BRANCH   4  16
ATOM     16  O3* UNL     1       5.974  -4.572  25.251  0.00  0.00    -0.386 OA
ATOM     17  H3* UNL     1       6.361  -3.765  25.639  0.00  0.00    +0.210 HD
ENDBRANCH   4  16
BRANCH   5  18
ATOM     18  O2* UNL     1       5.982  -2.788  22.085  0.00  0.00    -0.385 OA
ATOM     19  H2* UNL     1       5.740  -1.839  21.988  0.00  0.00    +0.210 HD
ENDBRANCH   5  18
BRANCH   3  20
ATOM     20  C5* UNL     1       7.180  -5.966  22.047  0.00  0.00    +0.190 C 
BRANCH  20  21
ATOM     21  O5* UNL     1       5.915  -6.631  22.003  0.00  0.00    -0.392 OA
ATOM     22  H5* UNL     1       5.670  -6.690  21.058  0.00  0.00    +0.210 HD
ENDBRANCH  20  21
ENDBRANCH   3  20
TORSDOF 6
ENDMDL
MODEL 8
REMARK VINA RESULT:      -5.4      2.039      2.781
REMARK  Name = 
REMARK  6 active torsions:
REMARK  status: ('A' for Active; 'I' for Inactive)
REMARK    1  A    between atoms: C_3  and  C_18
REMARK    2  A    between atoms: N_5  and  C1*_6
REMARK    3  A    between atoms: C2*_8  and  O2*_17
REMARK    4  A    between atoms: C3*_9  and  O3*_16
REMARK    5  A    between atoms: C4*_11  and  C5*_14
REMARK    6  A    between atoms: C5*_14  and  O5*_15
REMARK                            x       y       z     vdW  Elec       q    Type
REMARK                         _______ _______ _______ _____ _____    ______ ____
ROOT
ATOM      1  C1* UNL     1       8.610  -3.215  23.504  0.00  0.00    +0.270 C 
ATOM      2  O4* UNL     1       9.297  -2.479  24.541  0.00  0.00    -0.344 OA
ATOM      3  C4* UNL     1       9.787  -1.255  23.935  0.00  0.00    +0.177 C 
ATOM      4  C3* UNL     1       9.229  -1.190  22.501  0.00  0.00    +0.178 C 
ATOM      5  C2* UNL     1       8.064  -2.172  22.529  0.00  0.00    +0.196 C 
ENDROOT
BRANCH   1   7
ATOM      6  C   UNL     1       7.521  -4.533  25.363  0.00  0.00    +0.223 A 
ATOM      7  N   UNL     1       7.623  -4.106  24.077  0.00  0.00    -0.220 N 
ATOM      8  N   UNL     1       6.699  -4.699  23.293  0.00  0.00    -0.142 NA
ATOM      9  C   UNL     1       6.057  -5.497  24.165  0.00  0.00    +0.236 A 
ATOM     10  N   UNL     1       6.548  -5.409  25.464  0.00  0.00    -0.211 NA
BRANCH   9  11
ATOM     11  C   UNL     1       4.948  -6.407  23.805  0.00  0.00    +0.281 C 
ATOM     12  N   UNL     1       4.368  -6.122  22.596  0.00  0.00    -0.323 N 
ATOM     13  H   UNL     1       3.602  -6.691  22.273  0.00  0.00    +0.145 HD
ATOM     14  H   UNL     1       4.720  -5.349  22.042  0.00  0.00    +0.145 HD
ATOM     15  O   UNL     1       4.540  -7.338  24.491  0.00  0.00    -0.267 OA
ENDBRANCH   9  11
ENDBRANCH   1   7
BRANCH   4  16
ATOM     16  O3* UNL     1      10.235  -1.657  21.594  0.00  0.00    -0.386 OA
ATOM     17  H3* UNL     1      10.957  -2.041  22.125  0.00  0.00    +0.210 HD
ENDBRANCH   4  16
BRANCH   5  18
ATOM     18  O2* UNL     1       6.876  -1.511  22.975  0.00  0.00    -0.385 OA
ATOM     19  H2* UNL     1       6.582  -0.887  22.273  0.00  0.00    +0.210 HD
ENDBRANCH   5  18
BRANCH   3  20
ATOM     20  C5* UNL     1       9.346  -0.085  24.820  0.00  0.00    +0.190 C 
BRANCH  20  21
ATOM     21  O5* UNL     1      10.475   0.510  25.466  0.00  0.00    -0.392 OA
ATOM     22  H5* UNL     1      10.343   0.375  26.426  0.00  0.00    +0.210 HD
ENDBRANCH  20  21
ENDBRANCH   3  20
TORSDOF 6
ENDMDL
MODEL 9
REMARK VINA RESULT:      -5.3      1.662      2.531
REMARK  Name = 
REMARK  6 active torsions:
REMARK  status: ('A' for Active; 'I' for Inactive)
REMARK    1  A    between atoms: C_3  and  C_18
REMARK    2  A    between atoms: N_5  and  C1*_6
REMARK    3  A    between atoms: C2*_8  and  O2*_17
REMARK    4  A    between atoms: C3*_9  and  O3*_16
REMARK    5  A    between atoms: C4*_11  and  C5*_14
REMARK    6  A    between atoms: C5*_14  and  O5*_15
REMARK                            x       y       z     vdW  Elec       q    Type
REMARK                         _______ _______ _______ _____ _____    ______ ____
ROOT
ATOM      1  C1* UNL     1       9.585  -0.245  22.871  0.00  0.00    +0.270 C 
ATOM      2  O4* UNL     1       9.843   0.457  24.108  0.00  0.00    -0.344 OA
ATOM      3  C4* UNL     1       9.703   1.874  23.827  0.00  0.00    +0.177 C 
ATOM      4  C3* UNL     1       9.184   2.012  22.383  0.00  0.00    +0.178 C 
ATOM      5  C2* UNL     1       8.616   0.631  22.076  0.00  0.00    +0.196 C 
ENDROOT
BRANCH   1   7
ATOM      6  C   UNL     1       9.631  -2.493  24.020  0.00  0.00    +0.223 A 
ATOM      7  N   UNL     1       9.130  -1.594  23.132  0.00  0.00    -0.220 N 
ATOM      8  N   UNL     1       8.143  -2.140  22.392  0.00  0.00    -0.142 NA
ATOM      9  C   UNL     1       8.089  -3.395  22.873  0.00  0.00    +0.236 A 
ATOM     10  N   UNL     1       9.005  -3.640  23.891  0.00  0.00    -0.211 NA
BRANCH   9  11
ATOM     11  C   UNL     1       7.173  -4.442  22.372  0.00  0.00    +0.281 C 
ATOM     12  N   UNL     1       5.940  -3.969  22.003  0.00  0.00    -0.323 N 
ATOM     13  H   UNL     1       5.252  -4.616  21.653  0.00  0.00    +0.145 HD
ATOM     14  H   UNL     1       5.740  -2.979  22.082  0.00  0.00    +0.145 HD
ATOM     15  O   UNL     1       7.437  -5.637  22.284  0.00  0.00    -0.267 OA
ENDBRANCH   9  11
ENDBRANCH   1   7
BRANCH   4  16
ATOM     16  O3* UNL     1      10.293   2.282  21.518  0.00  0.00    -0.386 OA
ATOM     17  H3* UNL     1      10.172   3.178  21.153  0.00  0.00    +0.210 HD
ENDBRANCH   4  16
BRANCH   5  18
ATOM     18  O2* UNL     1       7.256   0.553  22.512  0.00  0.00    -0.385 OA
ATOM     19  H2* UNL     1       7.240   0.207  23.434  0.00  0.00    +0.210 HD
ENDBRANCH   5  18
BRANCH   3  20
ATOM     20  C5* UNL     1       8.762   2.469  24.878  0.00  0.00    +0.190 C 
BRANCH  20  21
ATOM     21  O5* UNL     1       8.374   1.473  25.828  0.00  0.00    -0.392 OA
ATOM     22  H5* UNL     1       9.181   0.958  26.028  0.00  0.00    +0.210 HD
ENDBRANCH  20  21
ENDBRANCH   3  20
TORSDOF 6
ENDMDL
