MODEL 1
REMARK VINA RESULT:      -6.1      0.000      0.000
REMARK  Name = 
REMARK  4 active torsions:
REMARK  status: ('A' for Active; 'I' for Inactive)
REMARK    1  A    between atoms: C3*_2  and  O3*_17
REMARK    2  A    between atoms: C4*_3  and  C5*_15
REMARK    3  A    between atoms: C1*_5  and  N_6
REMARK    4  A    between atoms: C5*_15  and  O5*_16
REMARK                            x       y       z     vdW  Elec       q    Type
REMARK                         _______ _______ _______ _____ _____    ______ ____
ROOT
ATOM      1  C2* UNL     1       9.875  -1.881  23.876  0.00  0.00    +0.086 C 
ATOM      2  C1* UNL     1       8.927  -3.067  23.781  0.00  0.00    +0.212 C 
ATOM      3  O4* UNL     1       7.747  -2.630  23.089  0.00  0.00    -0.350 OA
ATOM      4  C4* UNL     1       7.967  -1.294  22.586  0.00  0.00    +0.174 C 
ATOM      5  C3* UNL     1       9.474  -1.069  22.663  0.00  0.00    +0.150 C 
ENDROOT
BRANCH   2   6
ATOM      6  N   UNL     1       8.540  -3.658  25.045  0.00  0.00    -0.258 N 
ATOM      7  C   UNL     1       9.290  -4.685  25.579  0.00  0.00    +0.310 C 
ATOM      8  O   UNL     1      10.356  -5.069  25.119  0.00  0.00    -0.252 OA
ATOM      9  N   UNL     1       8.712  -5.314  26.656  0.00  0.00    -0.239 N 
ATOM     10  H   UNL     1       9.230  -6.100  27.020  0.00  0.00    +0.159 HD
ATOM     11  C   UNL     1       7.366  -5.314  26.958  0.00  0.00    +0.235 C 
ATOM     12  O   UNL     1       6.908  -6.197  27.682  0.00  0.00    -0.274 OA
ATOM     13  C   UNL     1       6.524  -4.266  26.247  0.00  0.00    +0.155 C 
ATOM     14  I   UNL     1       4.984  -3.557  27.530  0.00  0.00    -0.070 I 
ATOM     15  C   UNL     1       7.440  -3.125  25.832  0.00  0.00    +0.135 C 
ENDBRANCH   2   6
BRANCH   5  16
ATOM     16  O3* UNL     1      10.123  -1.592  21.501  0.00  0.00    -0.389 OA
ATOM     17  H3* UNL     1       9.718  -2.446  21.263  0.00  0.00    +0.210 HD
ENDBRANCH   5  16
BRANCH   4  18
ATOM     18  C5* UNL     1       7.189  -0.278  23.435  0.00  0.00    +0.190 C 
BRANCH  18  19
ATOM     19  O5* UNL     1       6.413   0.607  22.629  0.00  0.00    -0.392 OA
ATOM     20  H5* UNL     1       7.019   1.206  22.160  0.00  0.00    +0.210 HD
ENDBRANCH  18  19
ENDBRANCH   4  18
TORSDOF 4
ENDMDL
MODEL 2
REMARK VINA RESULT:      -5.8      2.656      3.532
REMARK  Name = 
REMARK  4 active torsions:
REMARK  status: ('A' for Active; 'I' for Inactive)
REMARK    1  A    between atoms: C3*_2  and  O3*_17
REMARK    2  A    between atoms: C4*_3  and  C5*_15
REMARK    3  A    between atoms: C1*_5  and  N_6
REMARK    4  A    between atoms: C5*_15  and  O5*_16
REMARK                            x       y       z     vdW  Elec       q    Type
REMARK                         _______ _______ _______ _____ _____    ______ ____
ROOT
ATOM      1  C2* UNL     1       9.485  -0.101  21.762  0.00  0.00    +0.086 C 
ATOM      2  C1* UNL     1       8.296  -0.235  22.702  0.00  0.00    +0.212 C 
ATOM      3  O4* UNL     1       8.496   0.678  23.793  0.00  0.00    -0.350 OA
ATOM      4  C4* UNL     1       9.647   1.504  23.508  0.00  0.00    +0.174 C 
ATOM      5  C3* UNL     1       9.921   1.327  22.018  0.00  0.00    +0.150 C 
ENDROOT
BRANCH   2   6
ATOM      6  N   UNL     1       8.068  -1.562  23.232  0.00  0.00    -0.258 N 
ATOM      7  C   UNL     1       9.142  -2.361  23.564  0.00  0.00    +0.310 C 
ATOM      8  O   UNL     1      10.306  -1.985  23.561  0.00  0.00    -0.252 OA
ATOM      9  N   UNL     1       8.818  -3.667  23.843  0.00  0.00    -0.239 N 
ATOM     10  H   UNL     1       9.603  -4.271  24.035  0.00  0.00    +0.159 HD
ATOM     11  C   UNL     1       7.674  -4.317  23.427  0.00  0.00    +0.235 C 
ATOM     12  O   UNL     1       7.657  -5.546  23.384  0.00  0.00    -0.274 OA
ATOM     13  C   UNL     1       6.548  -3.426  22.923  0.00  0.00    +0.155 C 
ATOM     14  I   UNL     1       4.661  -4.239  23.467  0.00  0.00    -0.070 I 
ATOM     15  C   UNL     1       6.730  -2.044  23.533  0.00  0.00    +0.135 C 
ENDBRANCH   2   6
BRANCH   5  16
ATOM     16  O3* UNL     1       9.113   2.220  21.246  0.00  0.00    -0.389 OA
ATOM     17  H3* UNL     1       9.408   2.199  20.317  0.00  0.00    +0.210 HD
ENDBRANCH   5  16
BRANCH   4  18
ATOM     18  C5* UNL     1      10.838   1.061  24.370  0.00  0.00    +0.190 C 
BRANCH  18  19
ATOM     19  O5* UNL     1      10.420   0.339  25.527  0.00  0.00    -0.392 OA
ATOM     20  H5* UNL     1      10.911  -0.500  25.560  0.00  0.00    +0.210 HD
ENDBRANCH  18  19
ENDBRANCH   4  18
TORSDOF 4
ENDMDL
MODEL 3
REMARK VINA RESULT:      -5.7      2.934      3.362
REMARK  Name = 
REMARK  4 active torsions:
REMARK  status: ('A' for Active; 'I' for Inactive)
REMARK    1  A    between atoms: C3*_2  and  O3*_17
REMARK    2  A    between atoms: C4*_3  and  C5*_15
REMARK    3  A    between atoms: C1*_5  and  N_6
REMARK    4  A    between atoms: C5*_15  and  O5*_16
REMARK                            x       y       z     vdW  Elec       q    Type
REMARK                         _______ _______ _______ _____ _____    ______ ____
ROOT
ATOM      1  C2* UNL     1       8.696  -3.499  24.221  0.00  0.00    +0.086 C 
ATOM      2  C1* UNL     1       7.902  -3.845  22.970  0.00  0.00    +0.212 C 
ATOM      3  O4* UNL     1       7.638  -2.621  22.267  0.00  0.00    -0.350 OA
ATOM      4  C4* UNL     1       8.367  -1.548  22.903  0.00  0.00    +0.174 C 
ATOM      5  C3* UNL     1       9.400  -2.228  23.797  0.00  0.00    +0.150 C 
ENDROOT
BRANCH   2   6
ATOM      6  N   UNL     1       6.652  -4.538  23.198  0.00  0.00    -0.258 N 
ATOM      7  C   UNL     1       6.297  -5.596  22.387  0.00  0.00    +0.310 C 
ATOM      8  O   UNL     1       7.030  -6.089  21.541  0.00  0.00    -0.252 OA
ATOM      9  N   UNL     1       5.004  -6.031  22.548  0.00  0.00    -0.239 N 
ATOM     10  H   UNL     1       4.720  -6.770  21.922  0.00  0.00    +0.159 HD
ATOM     11  C   UNL     1       3.968  -5.290  23.081  0.00  0.00    +0.235 C 
ATOM     12  O   UNL     1       2.807  -5.605  22.828  0.00  0.00    -0.274 OA
ATOM     13  C   UNL     1       4.370  -4.041  23.850  0.00  0.00    +0.155 C 
ATOM     14  I   UNL     1       3.061  -3.733  25.496  0.00  0.00    -0.070 I 
ATOM     15  C   UNL     1       5.801  -4.223  24.334  0.00  0.00    +0.135 C 
ENDBRANCH   2   6
BRANCH   5  16
ATOM     16  O3* UNL     1      10.575  -2.556  23.051  0.00  0.00    -0.389 OA
ATOM     17  H3* UNL     1      11.043  -1.736  22.809  0.00  0.00    +0.210 HD
ENDBRANCH   5  16
BRANCH   4  18
ATOM     18  C5* UNL     1       7.403  -0.662  23.706  0.00  0.00    +0.190 C 
BRANCH  18  19
ATOM     19  O5* UNL     1       6.047  -0.853  23.309  0.00  0.00    -0.392 OA
ATOM     20  H5* UNL     1       5.527  -1.091  24.096  0.00  0.00    +0.210 HD
ENDBRANCH  18  19
ENDBRANCH   4  18
TORSDOF 4
ENDMDL
MODEL 4
REMARK VINA RESULT:      -5.6      2.625      3.073
REMARK  Name = 
REMARK  4 active torsions:
REMARK  status: ('A' for Active; 'I' for Inactive)
REMARK    1  A    between atoms: C3*_2  and  O3*_17
REMARK    2  A    between atoms: C4*_3  and  C5*_15
REMARK    3  A    between atoms: C1*_5  and  N_6
REMARK    4  A    between atoms: C5*_15  and  O5*_16
REMARK                            x       y       z     vdW  Elec       q    Type
REMARK                         _______ _______ _______ _____ _____    ______ ____
ROOT
ATOM      1  C2* UNL     1       9.031  -0.086  24.563  0.00  0.00    +0.086 C 
ATOM      2  C1* UNL     1       9.375  -1.563  24.445  0.00  0.00    +0.212 C 
ATOM      3  O4* UNL     1      10.074  -1.752  23.205  0.00  0.00    -0.350 OA
ATOM      4  C4* UNL     1      10.347  -0.459  22.620  0.00  0.00    +0.174 C 
ATOM      5  C3* UNL     1      10.129   0.553  23.740  0.00  0.00    +0.150 C 
ENDROOT
BRANCH   2   6
ATOM      6  N   UNL     1       8.249  -2.471  24.495  0.00  0.00    -0.258 N 
ATOM      7  C   UNL     1       7.591  -2.682  25.688  0.00  0.00    +0.310 C 
ATOM      8  O   UNL     1       7.811  -2.054  26.715  0.00  0.00    -0.252 OA
ATOM      9  N   UNL     1       6.691  -3.720  25.669  0.00  0.00    -0.239 N 
ATOM     10  H   UNL     1       6.244  -3.915  26.553  0.00  0.00    +0.159 HD
ATOM     11  C   UNL     1       6.699  -4.773  24.778  0.00  0.00    +0.235 C 
ATOM     12  O   UNL     1       6.123  -5.820  25.071  0.00  0.00    -0.274 OA
ATOM     13  C   UNL     1       7.549  -4.584  23.531  0.00  0.00    +0.155 C 
ATOM     14  I   UNL     1       6.624  -5.508  21.855  0.00  0.00    -0.070 I 
ATOM     15  C   UNL     1       7.714  -3.090  23.293  0.00  0.00    +0.135 C 
ENDBRANCH   2   6
BRANCH   5  16
ATOM     16  O3* UNL     1      11.309   0.686  24.537  0.00  0.00    -0.389 OA
ATOM     17  H3* UNL     1      11.111   0.419  25.453  0.00  0.00    +0.210 HD
ENDBRANCH   5  16
BRANCH   4  18
ATOM     18  C5* UNL     1       9.409  -0.213  21.429  0.00  0.00    +0.190 C 
BRANCH  18  19
ATOM     19  O5* UNL     1       9.245   1.178  21.159  0.00  0.00    -0.392 OA
ATOM     20  H5* UNL     1       8.984   1.281  20.228  0.00  0.00    +0.210 HD
ENDBRANCH  18  19
ENDBRANCH   4  18
TORSDOF 4
ENDMDL
MODEL 5
REMARK VINA RESULT:      -5.6      2.585      3.409
REMARK  Name = 
REMARK  4 active torsions:
REMARK  status: ('A' for Active; 'I' for Inactive)
REMARK    1  A    between atoms: C3*_2  and  O3*_17
REMARK    2  A    between atoms: C4*_3  and  C5*_15
REMARK    3  A    between atoms: C1*_5  and  N_6
REMARK    4  A    between atoms: C5*_15  and  O5*_16
REMARK                            x       y       z     vdW  Elec       q    Type
REMARK                         _______ _______ _______ _____ _____    ______ ____
ROOT
ATOM      1  C2* UNL     1       9.267  -1.135  21.585  0.00  0.00    +0.086 C 
ATOM      2  C1* UNL     1       8.001  -1.203  22.425  0.00  0.00    +0.212 C 
ATOM      3  O4* UNL     1       8.153  -0.287  23.521  0.00  0.00    -0.350 OA
ATOM      4  C4* UNL     1       9.360   0.482  23.324  0.00  0.00    +0.174 C 
ATOM      5  C3* UNL     1       9.746   0.274  21.863  0.00  0.00    +0.150 C 
ENDROOT
BRANCH   2   6
ATOM      6  N   UNL     1       7.670  -2.512  22.947  0.00  0.00    -0.258 N 
ATOM      7  C   UNL     1       6.507  -3.135  22.546  0.00  0.00    +0.310 C 
ATOM      8  O   UNL     1       5.768  -2.712  21.667  0.00  0.00    -0.252 OA
ATOM      9  N   UNL     1       6.184  -4.260  23.266  0.00  0.00    -0.239 N 
ATOM     10  H   UNL     1       5.307  -4.693  23.013  0.00  0.00    +0.159 HD
ATOM     11  C   UNL     1       6.634  -4.558  24.535  0.00  0.00    +0.235 C 
ATOM     12  O   UNL     1       6.005  -5.354  25.230  0.00  0.00    -0.274 OA
ATOM     13  C   UNL     1       7.832  -3.757  25.022  0.00  0.00    +0.155 C 
ATOM     14  I   UNL     1       9.095  -4.970  26.227  0.00  0.00    -0.070 I 
ATOM     15  C   UNL     1       8.587  -3.247  23.803  0.00  0.00    +0.135 C 
ENDBRANCH   2   6
BRANCH   5  16
ATOM     16  O3* UNL     1       9.046   1.193  21.021  0.00  0.00    -0.389 OA
ATOM     17  H3* UNL     1       8.093   0.991  21.044  0.00  0.00    +0.210 HD
ENDBRANCH   5  16
BRANCH   4  18
ATOM     18  C5* UNL     1      10.455  -0.004  24.285  0.00  0.00    +0.190 C 
BRANCH  18  19
ATOM     19  O5* UNL     1      10.171   0.346  25.638  0.00  0.00    -0.392 OA
ATOM     20  H5* UNL     1      10.784  -0.139  26.216  0.00  0.00    +0.210 HD
ENDBRANCH  18  19
ENDBRANCH   4  18
TORSDOF 4
ENDMDL
MODEL 6
REMARK VINA RESULT:      -5.5      2.836      3.899
REMARK  Name = 
REMARK  4 active torsions:
REMARK  status: ('A' for Active; 'I' for Inactive)
REMARK    1  A    between atoms: C3*_2  and  O3*_17
REMARK    2  A    between atoms: C4*_3  and  C5*_15
REMARK    3  A    between atoms: C1*_5  and  N_6
REMARK    4  A    between atoms: C5*_15  and  O5*_16
REMARK                            x       y       z     vdW  Elec       q    Type
REMARK                         _______ _______ _______ _____ _____    ______ ____
ROOT
ATOM      1  C2* UNL     1       9.034  -0.270  22.109  0.00  0.00    +0.086 C 
ATOM      2  C1* UNL     1       7.974   0.082  23.143  0.00  0.00    +0.212 C 
ATOM      3  O4* UNL     1       8.539   1.055  24.035  0.00  0.00    -0.350 OA
ATOM      4  C4* UNL     1       9.825   1.470  23.522  0.00  0.00    +0.174 C 
ATOM      5  C3* UNL     1       9.860   0.998  22.072  0.00  0.00    +0.150 C 
ENDROOT
BRANCH   2   6
ATOM      6  N   UNL     1       7.468  -1.030  23.918  0.00  0.00    -0.258 N 
ATOM      7  C   UNL     1       6.282  -0.900  24.610  0.00  0.00    +0.310 C 
ATOM      8  O   UNL     1       5.539   0.068  24.524  0.00  0.00    -0.252 OA
ATOM      9  N   UNL     1       6.013  -1.928  25.482  0.00  0.00    -0.239 N 
ATOM     10  H   UNL     1       5.174  -1.814  26.031  0.00  0.00    +0.159 HD
ATOM     11  C   UNL     1       6.947  -2.790  26.020  0.00  0.00    +0.235 C 
ATOM     12  O   UNL     1       6.684  -3.397  27.056  0.00  0.00    -0.274 OA
ATOM     13  C   UNL     1       8.303  -2.815  25.332  0.00  0.00    +0.155 C 
ATOM     14  I   UNL     1       9.110  -4.782  25.355  0.00  0.00    -0.070 I 
ATOM     15  C   UNL     1       8.118  -2.331  23.902  0.00  0.00    +0.135 C 
ENDBRANCH   2   6
BRANCH   5  16
ATOM     16  O3* UNL     1       9.232   1.955  21.214  0.00  0.00    -0.389 OA
ATOM     17  H3* UNL     1       9.521   1.802  20.296  0.00  0.00    +0.210 HD
ENDBRANCH   5  16
BRANCH   4  18
ATOM     18  C5* UNL     1      10.950   0.845  24.359  0.00  0.00    +0.190 C 
BRANCH  18  19
ATOM     19  O5* UNL     1      10.482   0.389  25.626  0.00  0.00    -0.392 OA
ATOM     20  H5* UNL     1      10.934  -0.445  25.839  0.00  0.00    +0.210 HD
ENDBRANCH  18  19
ENDBRANCH   4  18
TORSDOF 4
ENDMDL
MODEL 7
REMARK VINA RESULT:      -5.5      2.595      3.400
REMARK  Name = 
REMARK  4 active torsions:
REMARK  status: ('A' for Active; 'I' for Inactive)
REMARK    1  A    between atoms: C3*_2  and  O3*_17
REMARK    2  A    between atoms: C4*_3  and  C5*_15
REMARK    3  A    between atoms: C1*_5  and  N_6
REMARK    4  A    between atoms: C5*_15  and  O5*_16
REMARK                            x       y       z     vdW  Elec       q    Type
REMARK                         _______ _______ _______ _____ _____    ______ ____
ROOT
ATOM      1  C2* UNL     1       6.435  -3.356  23.744  0.00  0.00    +0.086 C 
ATOM      2  C1* UNL     1       7.347  -4.198  24.623  0.00  0.00    +0.212 C 
ATOM      3  O4* UNL     1       7.877  -5.260  23.814  0.00  0.00    -0.350 OA
ATOM      4  C4* UNL     1       7.496  -5.035  22.439  0.00  0.00    +0.174 C 
ATOM      5  C3* UNL     1       7.034  -3.582  22.373  0.00  0.00    +0.150 C 
ENDROOT
BRANCH   2   6
ATOM      6  N   UNL     1       6.725  -4.767  25.800  0.00  0.00    -0.258 N 
ATOM      7  C   UNL     1       7.496  -5.077  26.901  0.00  0.00    +0.310 C 
ATOM      8  O   UNL     1       8.680  -4.790  27.013  0.00  0.00    -0.252 OA
ATOM      9  N   UNL     1       6.848  -5.810  27.865  0.00  0.00    -0.239 N 
ATOM     10  H   UNL     1       7.420  -6.086  28.650  0.00  0.00    +0.159 HD
ATOM     11  C   UNL     1       5.725  -6.586  27.664  0.00  0.00    +0.235 C 
ATOM     12  O   UNL     1       5.460  -7.486  28.459  0.00  0.00    -0.274 OA
ATOM     13  C   UNL     1       4.964  -6.334  26.371  0.00  0.00    +0.155 C 
ATOM     14  I   UNL     1       2.874  -6.561  26.685  0.00  0.00    -0.070 I 
ATOM     15  C   UNL     1       5.283  -4.922  25.902  0.00  0.00    +0.135 C 
ENDBRANCH   2   6
BRANCH   5  16
ATOM     16  O3* UNL     1       8.149  -2.706  22.186  0.00  0.00    -0.389 OA
ATOM     17  H3* UNL     1       8.950  -3.236  22.021  0.00  0.00    +0.210 HD
ENDBRANCH   5  16
BRANCH   4  18
ATOM     18  C5* UNL     1       6.382  -6.013  22.035  0.00  0.00    +0.190 C 
BRANCH  18  19
ATOM     19  O5* UNL     1       5.783  -5.655  20.792  0.00  0.00    -0.392 OA
ATOM     20  H5* UNL     1       5.812  -6.428  20.203  0.00  0.00    +0.210 HD
ENDBRANCH  18  19
ENDBRANCH   4  18
TORSDOF 4
ENDMDL
MODEL 8
REMARK VINA RESULT:      -5.5      2.564      3.509
REMARK  Name = 
REMARK  4 active torsions:
REMARK  status: ('A' for Active; 'I' for Inactive)
REMARK    1  A    between atoms: C3*_2  and  O3*_17
REMARK    2  A    between atoms: C4*_3  and  C5*_15
REMARK    3  A    between atoms: C1*_5  and  N_6
REMARK    4  A    between atoms: C5*_15  and  O5*_16
REMARK                            x       y       z     vdW  Elec       q    Type
REMARK                         _______ _______ _______ _____ _____    ______ ____
ROOT
ATOM      1  C2* UNL     1       9.791   1.742  24.202  0.00  0.00    +0.086 C 
ATOM      2  C1* UNL     1       9.826   0.551  23.256  0.00  0.00    +0.212 C 
ATOM      3  O4* UNL     1       8.990   0.862  22.131  0.00  0.00    -0.350 OA
ATOM      4  C4* UNL     1       8.573   2.242  22.224  0.00  0.00    +0.174 C 
ATOM      5  C3* UNL     1       9.501   2.883  23.251  0.00  0.00    +0.150 C 
ENDROOT
BRANCH   2   6
ATOM      6  N   UNL     1       9.402  -0.710  23.826  0.00  0.00    -0.258 N 
ATOM      7  C   UNL     1       9.896  -1.892  23.319  0.00  0.00    +0.310 C 
ATOM      8  O   UNL     1      10.784  -1.962  22.480  0.00  0.00    -0.252 OA
ATOM      9  N   UNL     1       9.263  -3.021  23.779  0.00  0.00    -0.239 N 
ATOM     10  H   UNL     1       9.584  -3.888  23.373  0.00  0.00    +0.159 HD
ATOM     11  C   UNL     1       7.993  -3.067  24.315  0.00  0.00    +0.235 C 
ATOM     12  O   UNL     1       7.379  -4.133  24.330  0.00  0.00    -0.274 OA
ATOM     13  C   UNL     1       7.400  -1.731  24.737  0.00  0.00    +0.155 C 
ATOM     14  I   UNL     1       6.208  -1.967  26.481  0.00  0.00    -0.070 I 
ATOM     15  C   UNL     1       8.546  -0.767  25.000  0.00  0.00    +0.135 C 
ENDBRANCH   2   6
BRANCH   5  16
ATOM     16  O3* UNL     1      10.717   3.313  22.633  0.00  0.00    -0.389 OA
ATOM     17  H3* UNL     1      10.779   4.285  22.686  0.00  0.00    +0.210 HD
ENDBRANCH   5  16
BRANCH   4  18
ATOM     18  C5* UNL     1       7.100   2.318  22.652  0.00  0.00    +0.190 C 
BRANCH  18  19
ATOM     19  O5* UNL     1       6.430   1.071  22.482  0.00  0.00    -0.392 OA
ATOM     20  H5* UNL     1       6.202   0.722  23.361  0.00  0.00    +0.210 HD
ENDBRANCH  18  19
ENDBRANCH   4  18
TORSDOF 4
ENDMDL
MODEL 9
REMARK VINA RESULT:      -5.5      2.739      3.453
REMARK  Name = 
REMARK  4 active torsions:
REMARK  status: ('A' for Active; 'I' for Inactive)
REMARK    1  A    between atoms: C3*_2  and  O3*_17
REMARK    2  A    between atoms: C4*_3  and  C5*_15
REMARK    3  A    between atoms: C1*_5  and  N_6
REMARK    4  A    between atoms: C5*_15  and  O5*_16
REMARK                            x       y       z     vdW  Elec       q    Type
REMARK                         _______ _______ _______ _____ _____    ______ ____
ROOT
ATOM      1  C2* UNL     1       8.497   1.230  24.236  0.00  0.00    +0.086 C 
ATOM      2  C1* UNL     1       9.376   0.050  24.624  0.00  0.00    +0.212 C 
ATOM      3  O4* UNL     1      10.250  -0.226  23.518  0.00  0.00    -0.350 OA
ATOM      4  C4* UNL     1      10.098   0.817  22.530  0.00  0.00    +0.174 C 
ATOM      5  C3* UNL     1       9.378   1.957  23.242  0.00  0.00    +0.150 C 
ENDROOT
BRANCH   2   6
ATOM      6  N   UNL     1       8.669  -1.161  24.982  0.00  0.00    -0.258 N 
ATOM      7  C   UNL     1       8.598  -1.548  26.303  0.00  0.00    +0.310 C 
ATOM      8  O   UNL     1       8.991  -0.868  27.241  0.00  0.00    -0.252 OA
ATOM      9  N   UNL     1       8.103  -2.814  26.502  0.00  0.00    -0.239 N 
ATOM     10  H   UNL     1       8.096  -3.125  27.462  0.00  0.00    +0.159 HD
ATOM     11  C   UNL     1       8.085  -3.826  25.564  0.00  0.00    +0.235 C 
ATOM     12  O   UNL     1       7.996  -4.995  25.936  0.00  0.00    -0.274 OA
ATOM     13  C   UNL     1       8.313  -3.401  24.122  0.00  0.00    +0.155 C 
ATOM     14  I   UNL     1       7.145  -4.592  22.805  0.00  0.00    -0.070 I 
ATOM     15  C   UNL     1       7.931  -1.934  23.995  0.00  0.00    +0.135 C 
ENDBRANCH   2   6
BRANCH   5  16
ATOM     16  O3* UNL     1      10.310   2.784  23.943  0.00  0.00    -0.389 OA
ATOM     17  H3* UNL     1       9.886   3.634  24.161  0.00  0.00    +0.210 HD
ENDBRANCH   5  16
BRANCH   4  18
ATOM     18  C5* UNL     1       9.298   0.290  21.329  0.00  0.00    +0.190 C 
BRANCH  18  19
ATOM     19  O5* UNL     1       9.618  -1.067  21.030  0.00  0.00    -0.392 OA
ATOM     20  H5* UNL     1      10.524  -1.099  20.678  0.00  0.00    +0.210 HD
ENDBRANCH  18  19
ENDBRANCH   4  18
TORSDOF 4
ENDMDL
