MODEL 1
REMARK VINA RESULT:      -5.7      0.000      0.000
REMARK  Name = 
REMARK  3 active torsions:
REMARK  status: ('A' for Active; 'I' for Inactive)
REMARK    1  A    between atoms: C_3  and  N_10
REMARK    2  A    between atoms: C_6  and  C_8
REMARK    3  A    between atoms: C_8  and  O_9
REMARK                            x       y       z     vdW  Elec       q    Type
REMARK                         _______ _______ _______ _____ _____    ______ ____
ROOT
ATOM      1  N   UNL     1       9.515  -1.245  23.611  0.00  0.00    -0.273 N 
ATOM      2  C   UNL     1       9.926  -0.063  24.239  0.00  0.00    +0.352 A 
ATOM      3  O   UNL     1      10.182  -0.043  25.440  0.00  0.00    -0.244 OA
ATOM      4  N   UNL     1      10.045   1.080  23.478  0.00  0.00    -0.178 NA
ATOM      5  C   UNL     1       9.856   1.028  22.198  0.00  0.00    +0.123 A 
ATOM      6  N   UNL     1       9.992   2.191  21.492  0.00  0.00    -0.343 N 
ATOM      7  H   UNL     1      10.473   2.911  22.020  0.00  0.00    +0.144 HD
ATOM      8  H   UNL     1      10.301   2.118  20.530  0.00  0.00    +0.144 HD
ATOM      9  C   UNL     1       9.529  -0.215  21.482  0.00  0.00    +0.061 A 
ATOM     10  C   UNL     1       9.382  -1.296  22.240  0.00  0.00    +0.096 A 
ENDROOT
BRANCH   1  14
ATOM     11  C   UNL     1       7.118  -3.095  24.622  0.00  0.00    +0.038 C 
ATOM     12  C   UNL     1       7.853  -4.065  23.717  0.00  0.00    +0.146 C 
ATOM     13  O   UNL     1       9.220  -3.613  23.608  0.00  0.00    -0.351 OA
ATOM     14  C   UNL     1       9.404  -2.447  24.439  0.00  0.00    +0.224 C 
ATOM     15  C   UNL     1       8.228  -2.452  25.413  0.00  0.00    +0.057 C 
BRANCH  12  16
ATOM     16  C   UNL     1       7.222  -4.135  22.323  0.00  0.00    +0.187 C 
BRANCH  16  17
ATOM     17  O   UNL     1       7.313  -5.457  21.798  0.00  0.00    -0.392 OA
ATOM     18  H   UNL     1       6.444  -5.872  21.958  0.00  0.00    +0.210 HD
ENDBRANCH  16  17
ENDBRANCH  12  16
ENDBRANCH   1  14
TORSDOF 3
ENDMDL
MODEL 2
REMARK VINA RESULT:      -5.5      2.029      2.494
REMARK  Name = 
REMARK  3 active torsions:
REMARK  status: ('A' for Active; 'I' for Inactive)
REMARK    1  A    between atoms: C_3  and  N_10
REMARK    2  A    between atoms: C_6  and  C_8
REMARK    3  A    between atoms: C_8  and  O_9
REMARK                            x       y       z     vdW  Elec       q    Type
REMARK                         _______ _______ _______ _____ _____    ______ ____
ROOT
ATOM      1  N   UNL     1       7.601  -1.094  22.804  0.00  0.00    -0.273 N 
ATOM      2  C   UNL     1       7.273   0.226  23.133  0.00  0.00    +0.352 A 
ATOM      3  O   UNL     1       6.312   0.476  23.856  0.00  0.00    -0.244 OA
ATOM      4  N   UNL     1       8.057   1.244  22.632  0.00  0.00    -0.178 NA
ATOM      5  C   UNL     1       9.117   0.965  21.943  0.00  0.00    +0.123 A 
ATOM      6  N   UNL     1       9.860   2.013  21.476  0.00  0.00    -0.343 N 
ATOM      7  H   UNL     1       9.632   2.886  21.939  0.00  0.00    +0.144 HD
ATOM      8  H   UNL     1      10.855   1.862  21.361  0.00  0.00    +0.144 HD
ATOM      9  C   UNL     1       9.558  -0.411  21.666  0.00  0.00    +0.061 A 
ATOM     10  C   UNL     1       8.767  -1.374  22.125  0.00  0.00    +0.096 A 
ENDROOT
BRANCH   1  14
ATOM     11  C   UNL     1       7.689  -4.286  22.822  0.00  0.00    +0.038 C 
ATOM     12  C   UNL     1       7.888  -3.996  24.297  0.00  0.00    +0.146 C 
ATOM     13  O   UNL     1       7.343  -2.685  24.564  0.00  0.00    -0.351 OA
ATOM     14  C   UNL     1       6.758  -2.158  23.354  0.00  0.00    +0.224 C 
ATOM     15  C   UNL     1       6.561  -3.363  22.437  0.00  0.00    +0.057 C 
BRANCH  12  16
ATOM     16  C   UNL     1       9.369  -4.026  24.690  0.00  0.00    +0.187 C 
BRANCH  16  17
ATOM     17  O   UNL     1       9.828  -5.369  24.815  0.00  0.00    -0.392 OA
ATOM     18  H   UNL     1      10.725  -5.386  24.431  0.00  0.00    +0.210 HD
ENDBRANCH  16  17
ENDBRANCH  12  16
ENDBRANCH   1  14
TORSDOF 3
ENDMDL
MODEL 3
REMARK VINA RESULT:      -5.4      2.814      5.148
REMARK  Name = 
REMARK  3 active torsions:
REMARK  status: ('A' for Active; 'I' for Inactive)
REMARK    1  A    between atoms: C_3  and  N_10
REMARK    2  A    between atoms: C_6  and  C_8
REMARK    3  A    between atoms: C_8  and  O_9
REMARK                            x       y       z     vdW  Elec       q    Type
REMARK                         _______ _______ _______ _____ _____    ______ ____
ROOT
ATOM      1  N   UNL     1       7.941  -3.348  23.279  0.00  0.00    -0.273 N 
ATOM      2  C   UNL     1       8.109  -4.719  23.510  0.00  0.00    +0.352 A 
ATOM      3  O   UNL     1       8.911  -5.124  24.347  0.00  0.00    -0.244 OA
ATOM      4  N   UNL     1       7.347  -5.607  22.782  0.00  0.00    -0.178 NA
ATOM      5  C   UNL     1       6.444  -5.167  21.965  0.00  0.00    +0.123 A 
ATOM      6  N   UNL     1       5.714  -6.093  21.272  0.00  0.00    -0.343 N 
ATOM      7  H   UNL     1       5.794  -7.024  21.667  0.00  0.00    +0.144 HD
ATOM      8  H   UNL     1       4.768  -5.841  21.015  0.00  0.00    +0.144 HD
ATOM      9  C   UNL     1       6.161  -3.737  21.773  0.00  0.00    +0.061 A 
ATOM     10  C   UNL     1       6.932  -2.898  22.455  0.00  0.00    +0.096 A 
ENDROOT
BRANCH   1  14
ATOM     11  C   UNL     1      10.147  -1.133  22.630  0.00  0.00    +0.038 C 
ATOM     12  C   UNL     1       9.035  -0.262  23.182  0.00  0.00    +0.146 C 
ATOM     13  O   UNL     1       8.200  -1.094  24.018  0.00  0.00    -0.351 OA
ATOM     14  C   UNL     1       8.757  -2.425  24.072  0.00  0.00    +0.224 C 
ATOM     15  C   UNL     1      10.203  -2.281  23.605  0.00  0.00    +0.057 C 
BRANCH  12  16
ATOM     16  C   UNL     1       8.188   0.358  22.066  0.00  0.00    +0.187 C 
BRANCH  16  17
ATOM     17  O   UNL     1       9.021   0.974  21.088  0.00  0.00    -0.392 OA
ATOM     18  H   UNL     1       8.448   1.589  20.592  0.00  0.00    +0.210 HD
ENDBRANCH  16  17
ENDBRANCH  12  16
ENDBRANCH   1  14
TORSDOF 3
ENDMDL
MODEL 4
REMARK VINA RESULT:      -5.4      2.109      5.011
REMARK  Name = 
REMARK  3 active torsions:
REMARK  status: ('A' for Active; 'I' for Inactive)
REMARK    1  A    between atoms: C_3  and  N_10
REMARK    2  A    between atoms: C_6  and  C_8
REMARK    3  A    between atoms: C_8  and  O_9
REMARK                            x       y       z     vdW  Elec       q    Type
REMARK                         _______ _______ _______ _____ _____    ______ ____
ROOT
ATOM      1  N   UNL     1       8.693  -1.761  23.055  0.00  0.00    -0.273 N 
ATOM      2  C   UNL     1       8.971  -2.873  23.858  0.00  0.00    +0.352 A 
ATOM      3  O   UNL     1      10.125  -3.266  24.013  0.00  0.00    -0.244 OA
ATOM      4  N   UNL     1       7.922  -3.517  24.479  0.00  0.00    -0.178 NA
ATOM      5  C   UNL     1       6.722  -3.043  24.378  0.00  0.00    +0.123 A 
ATOM      6  N   UNL     1       5.720  -3.718  25.019  0.00  0.00    -0.343 N 
ATOM      7  H   UNL     1       6.074  -4.373  25.708  0.00  0.00    +0.144 HD
ATOM      8  H   UNL     1       4.927  -3.178  25.342  0.00  0.00    +0.144 HD
ATOM      9  C   UNL     1       6.401  -1.816  23.633  0.00  0.00    +0.061 A 
ATOM     10  C   UNL     1       7.420  -1.234  23.012  0.00  0.00    +0.096 A 
ENDROOT
BRANCH   1  14
ATOM     11  C   UNL     1       9.277   1.188  21.980  0.00  0.00    +0.038 C 
ATOM     12  C   UNL     1      10.268   1.110  23.125  0.00  0.00    +0.146 C 
ATOM     13  O   UNL     1      10.541  -0.286  23.374  0.00  0.00    -0.351 OA
ATOM     14  C   UNL     1       9.825  -1.091  22.413  0.00  0.00    +0.224 C 
ATOM     15  C   UNL     1       9.450  -0.136  21.282  0.00  0.00    +0.057 C 
BRANCH  12  16
ATOM     16  C   UNL     1       9.721   1.761  24.400  0.00  0.00    +0.187 C 
BRANCH  16  17
ATOM     17  O   UNL     1       9.644   0.807  25.456  0.00  0.00    -0.392 OA
ATOM     18  H   UNL     1       9.260  -0.000  25.065  0.00  0.00    +0.210 HD
ENDBRANCH  16  17
ENDBRANCH  12  16
ENDBRANCH   1  14
TORSDOF 3
ENDMDL
MODEL 5
REMARK VINA RESULT:      -5.4      1.549      1.799
REMARK  Name = 
REMARK  3 active torsions:
REMARK  status: ('A' for Active; 'I' for Inactive)
REMARK    1  A    between atoms: C_3  and  N_10
REMARK    2  A    between atoms: C_6  and  C_8
REMARK    3  A    between atoms: C_8  and  O_9
REMARK                            x       y       z     vdW  Elec       q    Type
REMARK                         _______ _______ _______ _____ _____    ______ ____
ROOT
ATOM      1  N   UNL     1       8.692  -1.612  23.332  0.00  0.00    -0.273 N 
ATOM      2  C   UNL     1       9.867  -1.346  22.620  0.00  0.00    +0.352 A 
ATOM      3  O   UNL     1      10.775  -2.171  22.570  0.00  0.00    -0.244 OA
ATOM      4  N   UNL     1       9.983  -0.136  21.969  0.00  0.00    -0.178 NA
ATOM      5  C   UNL     1       8.987   0.691  21.958  0.00  0.00    +0.123 A 
ATOM      6  N   UNL     1       9.154   1.873  21.293  0.00  0.00    -0.343 N 
ATOM      7  H   UNL     1       9.956   1.858  20.671  0.00  0.00    +0.144 HD
ATOM      8  H   UNL     1       8.331   2.298  20.883  0.00  0.00    +0.144 HD
ATOM      9  C   UNL     1       7.695   0.404  22.601  0.00  0.00    +0.061 A 
ATOM     10  C   UNL     1       7.619  -0.750  23.254  0.00  0.00    +0.096 A 
ENDROOT
BRANCH   1  14
ATOM     11  C   UNL     1       6.304  -3.559  24.168  0.00  0.00    +0.038 C 
ATOM     12  C   UNL     1       7.006  -4.414  23.132  0.00  0.00    +0.146 C 
ATOM     13  O   UNL     1       8.375  -3.960  23.043  0.00  0.00    -0.351 OA
ATOM     14  C   UNL     1       8.590  -2.907  24.008  0.00  0.00    +0.224 C 
ATOM     15  C   UNL     1       7.439  -3.025  25.003  0.00  0.00    +0.057 C 
BRANCH  12  16
ATOM     16  C   UNL     1       6.341  -4.307  21.756  0.00  0.00    +0.187 C 
BRANCH  16  17
ATOM     17  O   UNL     1       5.376  -3.259  21.746  0.00  0.00    -0.392 OA
ATOM     18  H   UNL     1       5.882  -2.424  21.766  0.00  0.00    +0.210 HD
ENDBRANCH  16  17
ENDBRANCH  12  16
ENDBRANCH   1  14
TORSDOF 3
ENDMDL
MODEL 6
REMARK VINA RESULT:      -5.4      2.762      4.824
REMARK  Name = 
REMARK  3 active torsions:
REMARK  status: ('A' for Active; 'I' for Inactive)
REMARK    1  A    between atoms: C_3  and  N_10
REMARK    2  A    between atoms: C_6  and  C_8
REMARK    3  A    between atoms: C_8  and  O_9
REMARK                            x       y       z     vdW  Elec       q    Type
REMARK                         _______ _______ _______ _____ _____    ______ ____
ROOT
ATOM      1  N   UNL     1       8.742  -1.831  25.345  0.00  0.00    -0.273 N 
ATOM      2  C   UNL     1       7.844  -2.243  26.336  0.00  0.00    +0.352 A 
ATOM      3  O   UNL     1       7.118  -1.433  26.907  0.00  0.00    -0.244 OA
ATOM      4  N   UNL     1       7.784  -3.583  26.654  0.00  0.00    -0.178 NA
ATOM      5  C   UNL     1       8.490  -4.439  25.987  0.00  0.00    +0.123 A 
ATOM      6  N   UNL     1       8.388  -5.755  26.342  0.00  0.00    -0.343 N 
ATOM      7  H   UNL     1       7.577  -5.937  26.924  0.00  0.00    +0.144 HD
ATOM      8  H   UNL     1       8.529  -6.445  25.615  0.00  0.00    +0.144 HD
ATOM      9  C   UNL     1       9.365  -4.061  24.867  0.00  0.00    +0.061 A 
ATOM     10  C   UNL     1       9.437  -2.761  24.603  0.00  0.00    +0.096 A 
ENDROOT
BRANCH   1  14
ATOM     11  C   UNL     1      10.573   0.034  23.511  0.00  0.00    +0.038 C 
ATOM     12  C   UNL     1       9.251   0.137  22.776  0.00  0.00    +0.146 C 
ATOM     13  O   UNL     1       8.200  -0.170  23.719  0.00  0.00    -0.351 OA
ATOM     14  C   UNL     1       8.781  -0.403  25.020  0.00  0.00    +0.224 C 
ATOM     15  C   UNL     1      10.180   0.204  24.956  0.00  0.00    +0.057 C 
BRANCH  12  16
ATOM     16  C   UNL     1       9.177  -0.832  21.592  0.00  0.00    +0.187 C 
BRANCH  16  17
ATOM     17  O   UNL     1      10.368  -1.609  21.506  0.00  0.00    -0.392 OA
ATOM     18  H   UNL     1      10.135  -2.501  21.828  0.00  0.00    +0.210 HD
ENDBRANCH  16  17
ENDBRANCH  12  16
ENDBRANCH   1  14
TORSDOF 3
ENDMDL
MODEL 7
REMARK VINA RESULT:      -5.3      2.566      5.562
REMARK  Name = 
REMARK  3 active torsions:
REMARK  status: ('A' for Active; 'I' for Inactive)
REMARK    1  A    between atoms: C_3  and  N_10
REMARK    2  A    between atoms: C_6  and  C_8
REMARK    3  A    between atoms: C_8  and  O_9
REMARK                            x       y       z     vdW  Elec       q    Type
REMARK                         _______ _______ _______ _____ _____    ______ ____
ROOT
ATOM      1  N   UNL     1       8.418  -3.387  24.219  0.00  0.00    -0.273 N 
ATOM      2  C   UNL     1       7.624  -4.522  24.021  0.00  0.00    +0.352 A 
ATOM      3  O   UNL     1       7.174  -4.792  22.910  0.00  0.00    -0.244 OA
ATOM      4  N   UNL     1       7.362  -5.339  25.101  0.00  0.00    -0.178 NA
ATOM      5  C   UNL     1       7.911  -5.093  26.247  0.00  0.00    +0.123 A 
ATOM      6  N   UNL     1       7.621  -5.938  27.281  0.00  0.00    -0.343 N 
ATOM      7  H   UNL     1       7.205  -6.808  26.965  0.00  0.00    +0.144 HD
ATOM      8  H   UNL     1       8.329  -6.062  27.993  0.00  0.00    +0.144 HD
ATOM      9  C   UNL     1       8.838  -3.972  26.471  0.00  0.00    +0.061 A 
ATOM     10  C   UNL     1       9.045  -3.177  25.428  0.00  0.00    +0.096 A 
ENDROOT
BRANCH   1  14
ATOM     11  C   UNL     1       8.142  -0.275  23.558  0.00  0.00    +0.038 C 
ATOM     12  C   UNL     1       9.649  -0.436  23.503  0.00  0.00    +0.146 C 
ATOM     13  O   UNL     1       9.931  -1.827  23.232  0.00  0.00    -0.351 OA
ATOM     14  C   UNL     1       8.688  -2.540  23.055  0.00  0.00    +0.224 C 
ATOM     15  C   UNL     1       7.638  -1.465  22.783  0.00  0.00    +0.057 C 
BRANCH  12  16
ATOM     16  C   UNL     1      10.317  -0.024  24.819  0.00  0.00    +0.187 C 
BRANCH  16  17
ATOM     17  O   UNL     1       9.337   0.353  25.782  0.00  0.00    -0.392 OA
ATOM     18  H   UNL     1       8.552   0.635  25.274  0.00  0.00    +0.210 HD
ENDBRANCH  16  17
ENDBRANCH  12  16
ENDBRANCH   1  14
TORSDOF 3
ENDMDL
MODEL 8
REMARK VINA RESULT:      -5.3      4.696      5.801
REMARK  Name = 
REMARK  3 active torsions:
REMARK  status: ('A' for Active; 'I' for Inactive)
REMARK    1  A    between atoms: C_3  and  N_10
REMARK    2  A    between atoms: C_6  and  C_8
REMARK    3  A    between atoms: C_8  and  O_9
REMARK                            x       y       z     vdW  Elec       q    Type
REMARK                         _______ _______ _______ _____ _____    ______ ____
ROOT
ATOM      1  N   UNL     1       7.217  -4.911  24.966  0.00  0.00    -0.273 N 
ATOM      2  C   UNL     1       8.253  -5.265  24.093  0.00  0.00    +0.352 A 
ATOM      3  O   UNL     1       9.417  -5.314  24.483  0.00  0.00    -0.244 OA
ATOM      4  N   UNL     1       7.938  -5.564  22.785  0.00  0.00    -0.178 NA
ATOM      5  C   UNL     1       6.700  -5.593  22.407  0.00  0.00    +0.123 A 
ATOM      6  N   UNL     1       6.446  -5.901  21.100  0.00  0.00    -0.343 N 
ATOM      7  H   UNL     1       7.246  -6.319  20.637  0.00  0.00    +0.144 HD
ATOM      8  H   UNL     1       5.570  -6.365  20.893  0.00  0.00    +0.144 HD
ATOM      9  C   UNL     1       5.575  -5.334  23.318  0.00  0.00    +0.061 A 
ATOM     10  C   UNL     1       5.903  -5.010  24.564  0.00  0.00    +0.096 A 
ENDROOT
BRANCH   1  14
ATOM     11  C   UNL     1       5.607  -4.163  27.619  0.00  0.00    +0.038 C 
ATOM     12  C   UNL     1       6.174  -5.513  28.012  0.00  0.00    +0.146 C 
ATOM     13  O   UNL     1       7.341  -5.753  27.195  0.00  0.00    -0.351 OA
ATOM     14  C   UNL     1       7.576  -4.605  26.352  0.00  0.00    +0.224 C 
ATOM     15  C   UNL     1       6.783  -3.465  26.986  0.00  0.00    +0.057 C 
BRANCH  12  16
ATOM     16  C   UNL     1       5.159  -6.642  27.802  0.00  0.00    +0.187 C 
BRANCH  16  17
ATOM     17  O   UNL     1       5.596  -7.835  28.447  0.00  0.00    -0.392 OA
ATOM     18  H   UNL     1       6.320  -8.191  27.898  0.00  0.00    +0.210 HD
ENDBRANCH  16  17
ENDBRANCH  12  16
ENDBRANCH   1  14
TORSDOF 3
ENDMDL
MODEL 9
REMARK VINA RESULT:      -5.2      2.484      4.853
REMARK  Name = 
REMARK  3 active torsions:
REMARK  status: ('A' for Active; 'I' for Inactive)
REMARK    1  A    between atoms: C_3  and  N_10
REMARK    2  A    between atoms: C_6  and  C_8
REMARK    3  A    between atoms: C_8  and  O_9
REMARK                            x       y       z     vdW  Elec       q    Type
REMARK                         _______ _______ _______ _____ _____    ______ ____
ROOT
ATOM      1  N   UNL     1       8.547  -1.209  24.315  0.00  0.00    -0.273 N 
ATOM      2  C   UNL     1       8.432  -2.410  25.023  0.00  0.00    +0.352 A 
ATOM      3  O   UNL     1       8.648  -2.454  26.232  0.00  0.00    -0.244 OA
ATOM      4  N   UNL     1       8.064  -3.547  24.336  0.00  0.00    -0.178 NA
ATOM      5  C   UNL     1       7.755  -3.473  23.081  0.00  0.00    +0.123 A 
ATOM      6  N   UNL     1       7.393  -4.630  22.450  0.00  0.00    -0.343 N 
ATOM      7  H   UNL     1       7.164  -5.372  23.103  0.00  0.00    +0.144 HD
ATOM      8  H   UNL     1       6.742  -4.555  21.678  0.00  0.00    +0.144 HD
ATOM      9  C   UNL     1       7.758  -2.211  22.325  0.00  0.00    +0.061 A 
ATOM     10  C   UNL     1       8.152  -1.136  22.997  0.00  0.00    +0.096 A 
ENDROOT
BRANCH   1  14
ATOM     11  C   UNL     1      10.607   1.191  23.878  0.00  0.00    +0.038 C 
ATOM     12  C   UNL     1       9.291   1.941  23.806  0.00  0.00    +0.146 C 
ATOM     13  O   UNL     1       8.301   1.157  24.509  0.00  0.00    -0.351 OA
ATOM     14  C   UNL     1       8.932  -0.014  25.070  0.00  0.00    +0.224 C 
ATOM     15  C   UNL     1      10.428   0.291  25.073  0.00  0.00    +0.057 C 
BRANCH  12  16
ATOM     16  C   UNL     1       8.837   2.162  22.359  0.00  0.00    +0.187 C 
BRANCH  16  17
ATOM     17  O   UNL     1       9.948   2.091  21.470  0.00  0.00    -0.392 OA
ATOM     18  H   UNL     1      10.517   1.372  21.803  0.00  0.00    +0.210 HD
ENDBRANCH  16  17
ENDBRANCH  12  16
ENDBRANCH   1  14
TORSDOF 3
ENDMDL
