MODEL 1
REMARK VINA RESULT:      -7.3      0.000      0.000
REMARK  Name = 
REMARK  27 active torsions:
REMARK  status: ('A' for Active; 'I' for Inactive)
REMARK    1  A    between atoms: C_1  and  C_2
REMARK    2  A    between atoms: C_2  and  C_3
REMARK    3  A    between atoms: C_2  and  C_4
REMARK    4  A    between atoms: C_2  and  C_5
REMARK    5  A    between atoms: C_5  and  C_7
REMARK    6  A    between atoms: C_5  and  N_50
REMARK    7  A    between atoms: N_9  and  N_10
REMARK    8  A    between atoms: N_10  and  C_11
REMARK    9  A    between atoms: N_10  and  C_24
REMARK   10  A    between atoms: C_11  and  C_12
REMARK   11  A    between atoms: C_15  and  C_18
REMARK   12  A    between atoms: C_24  and  C_25
REMARK   13  A    between atoms: C_25  and  C_27
REMARK   14  A    between atoms: C_25  and  O_49
REMARK   15  A    between atoms: C_27  and  C_29
REMARK   16  A    between atoms: C_27  and  N_36
REMARK   17  A    between atoms: C_29  and  C_30
REMARK   18  A    between atoms: C_37  and  C_39
REMARK   19  A    between atoms: C_39  and  C_40
REMARK   20  A    between atoms: C_39  and  N_44
REMARK   21  A    between atoms: C_40  and  C_41
REMARK   22  A    between atoms: C_40  and  C_42
REMARK   23  A    between atoms: C_40  and  C_43
REMARK   24  A    between atoms: C_45  and  O_47
REMARK   25  A    between atoms: O_47  and  C_48
REMARK   26  A    between atoms: C_51  and  O_53
REMARK   27  A    between atoms: O_53  and  C_54
REMARK                            x       y       z     vdW  Elec       q    Type
REMARK                         _______ _______ _______ _____ _____    ______ ____
ROOT
ATOM      1  N   UNL     1       8.737  -2.623  23.611  0.00  0.00    -0.220 NA
ENDROOT
BRANCH   1   3
ATOM      2  C   UNL     1       6.563  -1.342  23.716  0.00  0.00    +0.248 C 
ATOM      3  N   UNL     1       7.858  -1.594  24.165  0.00  0.00    -0.246 N 
ATOM      4  H   UNL     1       8.220  -0.973  24.877  0.00  0.00    +0.169 HD
ATOM      5  O   UNL     1       6.052  -1.968  22.792  0.00  0.00    -0.272 OA
BRANCH   2   6
ATOM      6  C   UNL     1       5.790  -0.223  24.520  0.00  0.00    +0.169 C 
BRANCH   6   7
ATOM      7  N   UNL     1       5.900  -0.448  25.976  0.00  0.00    -0.269 N 
ATOM      8  H   UNL     1       6.804  -0.488  26.428  0.00  0.00    +0.153 HD
ATOM      9  C   UNL     1       4.821  -0.550  26.805  0.00  0.00    +0.401 C 
ATOM     10  O   UNL     1       3.657  -0.375  26.482  0.00  0.00    -0.226 OA
BRANCH   9  11
ATOM     11  O   UNL     1       5.248  -0.906  28.042  0.00  0.00    -0.454 OA
ATOM     12  C   UNL     1       4.321  -0.593  29.088  0.00  0.00    +0.282 C 
ENDBRANCH   9  11
ENDBRANCH   6   7
BRANCH   6  14
ATOM     13  C   UNL     1       5.034   2.251  24.344  0.00  0.00    +0.013 C 
ATOM     14  C   UNL     1       6.190   1.248  24.139  0.00  0.00    -0.011 C 
ATOM     15  C   UNL     1       7.346   1.755  25.040  0.00  0.00    +0.013 C 
ATOM     16  C   UNL     1       6.638   1.316  22.669  0.00  0.00    +0.013 C 
ENDBRANCH   6  14
ENDBRANCH   2   6
ENDBRANCH   1   3
BRANCH   1  17
ATOM     17  C   UNL     1       9.625  -2.017  22.578  0.00  0.00    +0.140 C 
BRANCH  17  18
ATOM     18  C   UNL     1       9.977  -0.545  22.740  0.00  0.00    -0.032 A 
ATOM     19  C   UNL     1       9.773   0.434  21.757  0.00  0.00    +0.005 A 
ATOM     20  C   UNL     1      10.030   1.793  22.028  0.00  0.00    +0.010 A 
ATOM     21  C   UNL     1      10.489   2.217  23.287  0.00  0.00    +0.000 A 
ATOM     22  C   UNL     1      10.729   1.221  24.239  0.00  0.00    +0.010 A 
ATOM     23  C   UNL     1      10.529  -0.125  23.949  0.00  0.00    +0.005 A 
BRANCH  21  24
ATOM     24  C   UNL     1      10.702   3.639  23.619  0.00  0.00    +0.071 A 
ATOM     25  N   UNL     1      11.939   4.142  23.371  0.00  0.00    -0.255 NA
ATOM     26  C   UNL     1      12.121   5.469  23.557  0.00  0.00    +0.111 A 
ATOM     27  C   UNL     1      11.130   6.336  23.988  0.00  0.00    +0.020 A 
ATOM     28  C   UNL     1       9.877   5.812  24.268  0.00  0.00    +0.004 A 
ATOM     29  C   UNL     1       9.664   4.450  24.092  0.00  0.00    +0.028 A 
ENDBRANCH  21  24
ENDBRANCH  17  18
ENDBRANCH   1  17
BRANCH   1  30
ATOM     30  C   UNL     1       9.435  -3.367  24.706  0.00  0.00    +0.139 C 
BRANCH  30  31
ATOM     31  C   UNL     1       8.990  -4.725  25.378  0.00  0.00    +0.151 C 
BRANCH  31  32
ATOM     32  O   UNL     1       9.203  -5.825  24.481  0.00  0.00    -0.389 OA
ATOM     33  H   UNL     1       9.705  -5.463  23.729  0.00  0.00    +0.210 HD
ENDBRANCH  31  32
BRANCH  31  34
ATOM     34  C   UNL     1       7.580  -4.914  26.007  0.00  0.00    +0.107 C 
BRANCH  34  35
ATOM     35  N   UNL     1       6.633  -5.698  25.136  0.00  0.00    -0.308 N 
ATOM     36  H   UNL     1       6.998  -6.558  24.750  0.00  0.00    +0.149 HD
ATOM     37  C   UNL     1       5.397  -5.276  24.676  0.00  0.00    +0.234 C 
ATOM     38  O   UNL     1       4.911  -4.182  24.955  0.00  0.00    -0.274 OA
BRANCH  37  39
ATOM     39  C   UNL     1       4.646  -6.277  23.743  0.00  0.00    +0.167 C 
BRANCH  39  40
ATOM     40  N   UNL     1       4.875  -5.840  22.365  0.00  0.00    -0.269 N 
ATOM     41  H   UNL     1       4.091  -5.499  21.822  0.00  0.00    +0.153 HD
ATOM     42  C   UNL     1       6.065  -5.970  21.719  0.00  0.00    +0.401 C 
ATOM     43  O   UNL     1       7.100  -6.379  22.225  0.00  0.00    -0.226 OA
BRANCH  42  44
ATOM     44  O   UNL     1       5.919  -5.617  20.417  0.00  0.00    -0.454 OA
ATOM     45  C   UNL     1       5.932  -4.206  20.182  0.00  0.00    +0.282 C 
ENDBRANCH  42  44
ENDBRANCH  39  40
BRANCH  39  46
ATOM     46  C   UNL     1       3.116  -6.394  24.097  0.00  0.00    -0.011 C 
ATOM     47  C   UNL     1       2.340  -5.246  23.419  0.00  0.00    +0.013 C 
ATOM     48  C   UNL     1       2.883  -6.262  25.619  0.00  0.00    +0.013 C 
ATOM     49  C   UNL     1       2.498  -7.738  23.655  0.00  0.00    +0.013 C 
ENDBRANCH  39  46
ENDBRANCH  37  39
ENDBRANCH  34  35
BRANCH  34  50
ATOM     50  C   UNL     1       7.495  -5.365  27.488  0.00  0.00    +0.060 C 
BRANCH  50  51
ATOM     51  C   UNL     1       6.151  -5.505  28.177  0.00  0.00    -0.046 A 
ATOM     52  C   UNL     1       5.368  -4.352  28.371  0.00  0.00    +0.004 A 
ATOM     53  C   UNL     1       4.055  -4.438  28.837  0.00  0.00    +0.000 A 
ATOM     54  C   UNL     1       3.509  -5.679  29.145  0.00  0.00    +0.000 A 
ATOM     55  C   UNL     1       4.308  -6.815  29.071  0.00  0.00    +0.000 A 
ATOM     56  C   UNL     1       5.631  -6.721  28.627  0.00  0.00    +0.004 A 
ENDBRANCH  50  51
ENDBRANCH  34  50
ENDBRANCH  31  34
ENDBRANCH  30  31
ENDBRANCH   1  30
TORSDOF 19
ENDMDL
MODEL 2
REMARK VINA RESULT:      -7.0      1.280      2.456
REMARK  Name = 
REMARK  27 active torsions:
REMARK  status: ('A' for Active; 'I' for Inactive)
REMARK    1  A    between atoms: C_1  and  C_2
REMARK    2  A    between atoms: C_2  and  C_3
REMARK    3  A    between atoms: C_2  and  C_4
REMARK    4  A    between atoms: C_2  and  C_5
REMARK    5  A    between atoms: C_5  and  C_7
REMARK    6  A    between atoms: C_5  and  N_50
REMARK    7  A    between atoms: N_9  and  N_10
REMARK    8  A    between atoms: N_10  and  C_11
REMARK    9  A    between atoms: N_10  and  C_24
REMARK   10  A    between atoms: C_11  and  C_12
REMARK   11  A    between atoms: C_15  and  C_18
REMARK   12  A    between atoms: C_24  and  C_25
REMARK   13  A    between atoms: C_25  and  C_27
REMARK   14  A    between atoms: C_25  and  O_49
REMARK   15  A    between atoms: C_27  and  C_29
REMARK   16  A    between atoms: C_27  and  N_36
REMARK   17  A    between atoms: C_29  and  C_30
REMARK   18  A    between atoms: C_37  and  C_39
REMARK   19  A    between atoms: C_39  and  C_40
REMARK   20  A    between atoms: C_39  and  N_44
REMARK   21  A    between atoms: C_40  and  C_41
REMARK   22  A    between atoms: C_40  and  C_42
REMARK   23  A    between atoms: C_40  and  C_43
REMARK   24  A    between atoms: C_45  and  O_47
REMARK   25  A    between atoms: O_47  and  C_48
REMARK   26  A    between atoms: C_51  and  O_53
REMARK   27  A    between atoms: O_53  and  C_54
REMARK                            x       y       z     vdW  Elec       q    Type
REMARK                         _______ _______ _______ _____ _____    ______ ____
ROOT
ATOM      1  N   UNL     1       8.616  -2.424  23.990  0.00  0.00    -0.220 NA
ENDROOT
BRANCH   1   3
ATOM      2  C   UNL     1       6.632  -0.873  23.784  0.00  0.00    +0.248 C 
ATOM      3  N   UNL     1       7.744  -1.353  24.473  0.00  0.00    -0.246 N 
ATOM      4  H   UNL     1       7.987  -0.875  25.332  0.00  0.00    +0.169 HD
ATOM      5  O   UNL     1       6.297  -1.312  22.687  0.00  0.00    -0.272 OA
BRANCH   2   6
ATOM      6  C   UNL     1       5.812   0.242  24.545  0.00  0.00    +0.169 C 
BRANCH   6   7
ATOM      7  N   UNL     1       5.907   0.061  26.009  0.00  0.00    -0.269 N 
ATOM      8  H   UNL     1       6.746   0.320  26.510  0.00  0.00    +0.153 HD
ATOM      9  C   UNL     1       4.877  -0.396  26.778  0.00  0.00    +0.401 C 
ATOM     10  O   UNL     1       3.741  -0.613  26.389  0.00  0.00    -0.226 OA
BRANCH   9  11
ATOM     11  O   UNL     1       5.326  -0.594  28.042  0.00  0.00    -0.454 OA
ATOM     12  C   UNL     1       5.801   0.596  28.683  0.00  0.00    +0.282 C 
ENDBRANCH   9  11
ENDBRANCH   6   7
BRANCH   6  14
ATOM     13  C   UNL     1       6.479   1.847  22.621  0.00  0.00    +0.013 C 
ATOM     14  C   UNL     1       6.171   1.714  24.129  0.00  0.00    -0.011 C 
ATOM     15  C   UNL     1       4.977   2.667  24.394  0.00  0.00    +0.013 C 
ATOM     16  C   UNL     1       7.392   2.210  24.920  0.00  0.00    +0.013 C 
ENDBRANCH   6  14
ENDBRANCH   2   6
ENDBRANCH   1   3
BRANCH   1  17
ATOM     17  C   UNL     1       9.442  -1.921  22.855  0.00  0.00    +0.140 C 
BRANCH  17  18
ATOM     18  C   UNL     1       9.876  -0.462  22.905  0.00  0.00    -0.032 A 
ATOM     19  C   UNL     1       9.660   0.466  21.876  0.00  0.00    +0.005 A 
ATOM     20  C   UNL     1      10.001   1.823  22.047  0.00  0.00    +0.010 A 
ATOM     21  C   UNL     1      10.559   2.296  23.248  0.00  0.00    +0.000 A 
ATOM     22  C   UNL     1      10.808   1.346  24.244  0.00  0.00    +0.010 A 
ATOM     23  C   UNL     1      10.523  -0.002  24.051  0.00  0.00    +0.005 A 
BRANCH  21  24
ATOM     24  C   UNL     1      10.864   3.721  23.478  0.00  0.00    +0.071 A 
ATOM     25  N   UNL     1       9.836   4.500  23.904  0.00  0.00    -0.255 NA
ATOM     26  C   UNL     1      10.120   5.781  24.234  0.00  0.00    +0.111 A 
ATOM     27  C   UNL     1      11.386   6.340  24.157  0.00  0.00    +0.020 A 
ATOM     28  C   UNL     1      12.425   5.549  23.693  0.00  0.00    +0.004 A 
ATOM     29  C   UNL     1      12.160   4.230  23.340  0.00  0.00    +0.028 A 
ENDBRANCH  21  24
ENDBRANCH  17  18
ENDBRANCH   1  17
BRANCH   1  30
ATOM     30  C   UNL     1       9.378  -3.035  25.123  0.00  0.00    +0.139 C 
BRANCH  30  31
ATOM     31  C   UNL     1       8.877  -4.146  26.127  0.00  0.00    +0.151 C 
BRANCH  31  32
ATOM     32  O   UNL     1       9.523  -5.399  25.856  0.00  0.00    -0.389 OA
ATOM     33  H   UNL     1       9.146  -5.719  25.016  0.00  0.00    +0.210 HD
ENDBRANCH  31  32
BRANCH  31  34
ATOM     34  C   UNL     1       7.367  -4.447  26.342  0.00  0.00    +0.107 C 
BRANCH  34  35
ATOM     35  N   UNL     1       6.691  -5.034  25.130  0.00  0.00    -0.308 N 
ATOM     36  H   UNL     1       7.146  -5.838  24.717  0.00  0.00    +0.149 HD
ATOM     37  C   UNL     1       5.629  -4.485  24.433  0.00  0.00    +0.234 C 
ATOM     38  O   UNL     1       5.089  -3.427  24.750  0.00  0.00    -0.274 OA
BRANCH  37  39
ATOM     39  C   UNL     1       5.159  -5.285  23.178  0.00  0.00    +0.167 C 
BRANCH  39  40
ATOM     40  N   UNL     1       4.744  -6.610  23.638  0.00  0.00    -0.269 N 
ATOM     41  H   UNL     1       5.288  -7.418  23.361  0.00  0.00    +0.153 HD
ATOM     42  C   UNL     1       3.595  -6.844  24.327  0.00  0.00    +0.401 C 
ATOM     43  O   UNL     1       2.822  -5.983  24.721  0.00  0.00    -0.226 OA
BRANCH  42  44
ATOM     44  O   UNL     1       3.416  -8.181  24.476  0.00  0.00    -0.454 OA
ATOM     45  C   UNL     1       2.090  -8.562  24.854  0.00  0.00    +0.282 C 
ENDBRANCH  42  44
ENDBRANCH  39  40
BRANCH  39  46
ATOM     46  C   UNL     1       6.267  -5.349  22.060  0.00  0.00    -0.011 C 
ATOM     47  C   UNL     1       5.817  -6.313  20.943  0.00  0.00    +0.013 C 
ATOM     48  C   UNL     1       7.598  -5.896  22.623  0.00  0.00    +0.013 C 
ATOM     49  C   UNL     1       6.569  -3.971  21.432  0.00  0.00    +0.013 C 
ENDBRANCH  39  46
ENDBRANCH  37  39
ENDBRANCH  34  35
BRANCH  34  50
ATOM     50  C   UNL     1       6.946  -5.185  27.639  0.00  0.00    +0.060 C 
BRANCH  50  51
ATOM     51  C   UNL     1       5.482  -5.311  28.016  0.00  0.00    -0.046 A 
ATOM     52  C   UNL     1       4.845  -6.553  27.845  0.00  0.00    +0.004 A 
ATOM     53  C   UNL     1       3.557  -6.780  28.333  0.00  0.00    +0.000 A 
ATOM     54  C   UNL     1       2.870  -5.758  28.978  0.00  0.00    +0.000 A 
ATOM     55  C   UNL     1       3.440  -4.491  29.050  0.00  0.00    +0.000 A 
ATOM     56  C   UNL     1       4.721  -4.262  28.537  0.00  0.00    +0.004 A 
ENDBRANCH  50  51
ENDBRANCH  34  50
ENDBRANCH  31  34
ENDBRANCH  30  31
ENDBRANCH   1  30
TORSDOF 19
ENDMDL
MODEL 3
REMARK VINA RESULT:      -7.0      2.066      5.520
REMARK  Name = 
REMARK  27 active torsions:
REMARK  status: ('A' for Active; 'I' for Inactive)
REMARK    1  A    between atoms: C_1  and  C_2
REMARK    2  A    between atoms: C_2  and  C_3
REMARK    3  A    between atoms: C_2  and  C_4
REMARK    4  A    between atoms: C_2  and  C_5
REMARK    5  A    between atoms: C_5  and  C_7
REMARK    6  A    between atoms: C_5  and  N_50
REMARK    7  A    between atoms: N_9  and  N_10
REMARK    8  A    between atoms: N_10  and  C_11
REMARK    9  A    between atoms: N_10  and  C_24
REMARK   10  A    between atoms: C_11  and  C_12
REMARK   11  A    between atoms: C_15  and  C_18
REMARK   12  A    between atoms: C_24  and  C_25
REMARK   13  A    between atoms: C_25  and  C_27
REMARK   14  A    between atoms: C_25  and  O_49
REMARK   15  A    between atoms: C_27  and  C_29
REMARK   16  A    between atoms: C_27  and  N_36
REMARK   17  A    between atoms: C_29  and  C_30
REMARK   18  A    between atoms: C_37  and  C_39
REMARK   19  A    between atoms: C_39  and  C_40
REMARK   20  A    between atoms: C_39  and  N_44
REMARK   21  A    between atoms: C_40  and  C_41
REMARK   22  A    between atoms: C_40  and  C_42
REMARK   23  A    between atoms: C_40  and  C_43
REMARK   24  A    between atoms: C_45  and  O_47
REMARK   25  A    between atoms: O_47  and  C_48
REMARK   26  A    between atoms: C_51  and  O_53
REMARK   27  A    between atoms: O_53  and  C_54
REMARK                            x       y       z     vdW  Elec       q    Type
REMARK                         _______ _______ _______ _____ _____    ______ ____
ROOT
ATOM      1  N   UNL     1       9.099  -2.552  23.756  0.00  0.00    -0.220 NA
ENDROOT
BRANCH   1   3
ATOM      2  C   UNL     1       8.018  -4.798  24.171  0.00  0.00    +0.248 C 
ATOM      3  N   UNL     1       7.947  -3.414  24.020  0.00  0.00    -0.246 N 
ATOM      4  H   UNL     1       7.022  -3.003  24.034  0.00  0.00    +0.169 HD
ATOM      5  O   UNL     1       9.075  -5.417  24.079  0.00  0.00    -0.272 OA
BRANCH   2   6
ATOM      6  C   UNL     1       6.645  -5.497  24.518  0.00  0.00    +0.169 C 
BRANCH   6   7
ATOM      7  N   UNL     1       6.087  -4.968  25.780  0.00  0.00    -0.269 N 
ATOM      8  H   UNL     1       5.240  -4.416  25.781  0.00  0.00    +0.153 HD
ATOM      9  C   UNL     1       6.621  -5.234  27.007  0.00  0.00    +0.401 C 
ATOM     10  O   UNL     1       7.542  -6.001  27.231  0.00  0.00    -0.226 OA
BRANCH   9  11
ATOM     11  O   UNL     1       5.978  -4.485  27.938  0.00  0.00    -0.454 OA
ATOM     12  C   UNL     1       5.527  -5.232  29.073  0.00  0.00    +0.282 C 
ENDBRANCH   9  11
ENDBRANCH   6   7
BRANCH   6  14
ATOM     13  C   UNL     1       4.390  -6.404  23.614  0.00  0.00    +0.013 C 
ATOM     14  C   UNL     1       5.582  -5.454  23.362  0.00  0.00    -0.011 C 
ATOM     15  C   UNL     1       4.964  -4.038  23.235  0.00  0.00    +0.013 C 
ATOM     16  C   UNL     1       6.234  -5.836  22.022  0.00  0.00    +0.013 C 
ENDBRANCH   6  14
ENDBRANCH   2   6
ENDBRANCH   1   3
BRANCH   1  17
ATOM     17  C   UNL     1       8.928  -1.885  22.433  0.00  0.00    +0.140 C 
BRANCH  17  18
ATOM     18  C   UNL     1       8.640  -0.390  22.441  0.00  0.00    -0.032 A 
ATOM     19  C   UNL     1       7.394   0.177  22.744  0.00  0.00    +0.005 A 
ATOM     20  C   UNL     1       7.240   1.575  22.831  0.00  0.00    +0.010 A 
ATOM     21  C   UNL     1       8.322   2.448  22.625  0.00  0.00    +0.000 A 
ATOM     22  C   UNL     1       9.545   1.865  22.280  0.00  0.00    +0.010 A 
ATOM     23  C   UNL     1       9.680   0.487  22.139  0.00  0.00    +0.005 A 
BRANCH  21  24
ATOM     24  C   UNL     1       8.205   3.912  22.775  0.00  0.00    +0.071 A 
ATOM     25  N   UNL     1       9.225   4.540  23.415  0.00  0.00    -0.255 NA
ATOM     26  C   UNL     1       9.194   5.891  23.459  0.00  0.00    +0.111 A 
ATOM     27  C   UNL     1       8.190   6.664  22.900  0.00  0.00    +0.020 A 
ATOM     28  C   UNL     1       7.136   6.016  22.274  0.00  0.00    +0.004 A 
ATOM     29  C   UNL     1       7.138   4.627  22.220  0.00  0.00    +0.028 A 
ENDBRANCH  21  24
ENDBRANCH  17  18
ENDBRANCH   1  17
BRANCH   1  30
ATOM     30  C   UNL     1       9.351  -1.638  24.913  0.00  0.00    +0.139 C 
BRANCH  30  31
ATOM     31  C   UNL     1       8.545  -1.561  26.268  0.00  0.00    +0.151 C 
BRANCH  31  32
ATOM     32  O   UNL     1       8.223  -2.879  26.738  0.00  0.00    -0.389 OA
ATOM     33  H   UNL     1       7.275  -2.858  26.963  0.00  0.00    +0.210 HD
ENDBRANCH  31  32
BRANCH  31  34
ATOM     34  C   UNL     1       7.264  -0.694  26.421  0.00  0.00    +0.107 C 
BRANCH  34  35
ATOM     35  N   UNL     1       6.073  -1.465  26.929  0.00  0.00    -0.308 N 
ATOM     36  H   UNL     1       6.236  -2.044  27.743  0.00  0.00    +0.149 HD
ATOM     37  C   UNL     1       4.847  -1.597  26.299  0.00  0.00    +0.234 C 
ATOM     38  O   UNL     1       4.581  -1.063  25.224  0.00  0.00    -0.274 OA
BRANCH  37  39
ATOM     39  C   UNL     1       3.805  -2.501  27.029  0.00  0.00    +0.167 C 
BRANCH  39  40
ATOM     40  N   UNL     1       2.923  -3.060  26.005  0.00  0.00    -0.269 N 
ATOM     41  H   UNL     1       2.477  -2.434  25.346  0.00  0.00    +0.153 HD
ATOM     42  C   UNL     1       2.566  -4.372  25.950  0.00  0.00    +0.401 C 
ATOM     43  O   UNL     1       2.999  -5.251  26.680  0.00  0.00    -0.226 OA
BRANCH  42  44
ATOM     44  O   UNL     1       1.625  -4.550  24.987  0.00  0.00    -0.454 OA
ATOM     45  C   UNL     1       0.893  -5.774  25.094  0.00  0.00    +0.282 C 
ENDBRANCH  42  44
ENDBRANCH  39  40
BRANCH  39  46
ATOM     46  C   UNL     1       3.019  -1.723  28.151  0.00  0.00    -0.011 C 
ATOM     47  C   UNL     1       1.695  -1.183  27.572  0.00  0.00    +0.013 C 
ATOM     48  C   UNL     1       3.824  -0.505  28.655  0.00  0.00    +0.013 C 
ATOM     49  C   UNL     1       2.700  -2.601  29.380  0.00  0.00    +0.013 C 
ENDBRANCH  39  46
ENDBRANCH  37  39
ENDBRANCH  34  35
BRANCH  34  50
ATOM     50  C   UNL     1       7.391   0.681  27.125  0.00  0.00    +0.060 C 
BRANCH  50  51
ATOM     51  C   UNL     1       6.817   1.932  26.488  0.00  0.00    -0.046 A 
ATOM     52  C   UNL     1       5.509   1.886  25.970  0.00  0.00    +0.004 A 
ATOM     53  C   UNL     1       4.863   3.045  25.532  0.00  0.00    +0.000 A 
ATOM     54  C   UNL     1       5.525   4.266  25.576  0.00  0.00    +0.000 A 
ATOM     55  C   UNL     1       6.857   4.308  25.973  0.00  0.00    +0.000 A 
ATOM     56  C   UNL     1       7.508   3.141  26.388  0.00  0.00    +0.004 A 
ENDBRANCH  50  51
ENDBRANCH  34  50
ENDBRANCH  31  34
ENDBRANCH  30  31
ENDBRANCH   1  30
TORSDOF 19
ENDMDL
MODEL 4
REMARK VINA RESULT:      -7.0      1.446      1.859
REMARK  Name = 
REMARK  27 active torsions:
REMARK  status: ('A' for Active; 'I' for Inactive)
REMARK    1  A    between atoms: C_1  and  C_2
REMARK    2  A    between atoms: C_2  and  C_3
REMARK    3  A    between atoms: C_2  and  C_4
REMARK    4  A    between atoms: C_2  and  C_5
REMARK    5  A    between atoms: C_5  and  C_7
REMARK    6  A    between atoms: C_5  and  N_50
REMARK    7  A    between atoms: N_9  and  N_10
REMARK    8  A    between atoms: N_10  and  C_11
REMARK    9  A    between atoms: N_10  and  C_24
REMARK   10  A    between atoms: C_11  and  C_12
REMARK   11  A    between atoms: C_15  and  C_18
REMARK   12  A    between atoms: C_24  and  C_25
REMARK   13  A    between atoms: C_25  and  C_27
REMARK   14  A    between atoms: C_25  and  O_49
REMARK   15  A    between atoms: C_27  and  C_29
REMARK   16  A    between atoms: C_27  and  N_36
REMARK   17  A    between atoms: C_29  and  C_30
REMARK   18  A    between atoms: C_37  and  C_39
REMARK   19  A    between atoms: C_39  and  C_40
REMARK   20  A    between atoms: C_39  and  N_44
REMARK   21  A    between atoms: C_40  and  C_41
REMARK   22  A    between atoms: C_40  and  C_42
REMARK   23  A    between atoms: C_40  and  C_43
REMARK   24  A    between atoms: C_45  and  O_47
REMARK   25  A    between atoms: O_47  and  C_48
REMARK   26  A    between atoms: C_51  and  O_53
REMARK   27  A    between atoms: O_53  and  C_54
REMARK                            x       y       z     vdW  Elec       q    Type
REMARK                         _______ _______ _______ _____ _____    ______ ____
ROOT
ATOM      1  N   UNL     1       8.093  -2.395  24.486  0.00  0.00    -0.220 NA
ENDROOT
BRANCH   1   3
ATOM      2  C   UNL     1       6.112  -0.894  24.938  0.00  0.00    +0.248 C 
ATOM      3  N   UNL     1       7.478  -1.164  24.982  0.00  0.00    -0.246 N 
ATOM      4  H   UNL     1       8.077  -0.422  25.324  0.00  0.00    +0.169 HD
ATOM      5  O   UNL     1       5.300  -1.680  24.457  0.00  0.00    -0.272 OA
BRANCH   2   6
ATOM      6  C   UNL     1       5.687   0.477  25.598  0.00  0.00    +0.169 C 
BRANCH   6   7
ATOM      7  N   UNL     1       6.333   0.651  26.915  0.00  0.00    -0.269 N 
ATOM      8  H   UNL     1       7.336   0.749  26.992  0.00  0.00    +0.153 HD
ATOM      9  C   UNL     1       5.638   0.755  28.086  0.00  0.00    +0.401 C 
ATOM     10  O   UNL     1       4.424   0.818  28.188  0.00  0.00    -0.226 OA
BRANCH   9  11
ATOM     11  O   UNL     1       6.516   0.751  29.120  0.00  0.00    -0.454 OA
ATOM     12  C   UNL     1       7.108   2.029  29.383  0.00  0.00    +0.282 C 
ENDBRANCH   9  11
ENDBRANCH   6   7
BRANCH   6  14
ATOM     13  C   UNL     1       6.195   1.361  23.214  0.00  0.00    +0.013 C 
ATOM     14  C   UNL     1       5.906   1.736  24.685  0.00  0.00    -0.011 C 
ATOM     15  C   UNL     1       4.631   2.616  24.646  0.00  0.00    +0.013 C 
ATOM     16  C   UNL     1       7.079   2.580  25.211  0.00  0.00    +0.013 C 
ENDBRANCH   6  14
ENDBRANCH   2   6
ENDBRANCH   1   3
BRANCH   1  17
ATOM     17  C   UNL     1       9.047  -2.068  23.386  0.00  0.00    +0.140 C 
BRANCH  17  18
ATOM     18  C   UNL     1       9.542  -0.631  23.300  0.00  0.00    -0.032 A 
ATOM     19  C   UNL     1       9.374   0.201  22.184  0.00  0.00    +0.005 A 
ATOM     20  C   UNL     1       9.771   1.554  22.228  0.00  0.00    +0.010 A 
ATOM     21  C   UNL     1      10.338   2.117  23.384  0.00  0.00    +0.000 A 
ATOM     22  C   UNL     1      10.538   1.259  24.470  0.00  0.00    +0.010 A 
ATOM     23  C   UNL     1      10.198  -0.089  24.404  0.00  0.00    +0.005 A 
BRANCH  21  24
ATOM     24  C   UNL     1      10.701   3.544  23.479  0.00  0.00    +0.071 A 
ATOM     25  N   UNL     1       9.711   4.398  23.845  0.00  0.00    -0.255 NA
ATOM     26  C   UNL     1      10.049   5.692  24.053  0.00  0.00    +0.111 A 
ATOM     27  C   UNL     1      11.334   6.191  23.909  0.00  0.00    +0.020 A 
ATOM     28  C   UNL     1      12.334   5.320  23.506  0.00  0.00    +0.004 A 
ATOM     29  C   UNL     1      12.013   3.987  23.279  0.00  0.00    +0.028 A 
ENDBRANCH  21  24
ENDBRANCH  17  18
ENDBRANCH   1  17
BRANCH   1  30
ATOM     30  C   UNL     1       8.660  -3.195  25.615  0.00  0.00    +0.139 C 
BRANCH  30  31
ATOM     31  C   UNL     1       7.862  -3.975  26.733  0.00  0.00    +0.151 C 
BRANCH  31  32
ATOM     32  O   UNL     1       8.234  -5.361  26.744  0.00  0.00    -0.389 OA
ATOM     33  H   UNL     1       8.368  -5.610  25.812  0.00  0.00    +0.210 HD
ENDBRANCH  31  32
BRANCH  31  34
ATOM     34  C   UNL     1       6.312  -3.916  26.837  0.00  0.00    +0.107 C 
BRANCH  34  35
ATOM     35  N   UNL     1       5.606  -4.468  25.626  0.00  0.00    -0.308 N 
ATOM     36  H   UNL     1       5.210  -3.784  24.995  0.00  0.00    +0.149 HD
ATOM     37  C   UNL     1       5.296  -5.797  25.388  0.00  0.00    +0.234 C 
ATOM     38  O   UNL     1       5.591  -6.706  26.160  0.00  0.00    -0.274 OA
BRANCH  37  39
ATOM     39  C   UNL     1       4.510  -6.081  24.070  0.00  0.00    +0.167 C 
BRANCH  39  40
ATOM     40  N   UNL     1       5.033  -5.172  23.049  0.00  0.00    -0.269 N 
ATOM     41  H   UNL     1       4.671  -4.227  23.001  0.00  0.00    +0.153 HD
ATOM     42  C   UNL     1       5.902  -5.552  22.073  0.00  0.00    +0.401 C 
ATOM     43  O   UNL     1       6.416  -6.656  21.979  0.00  0.00    -0.226 OA
BRANCH  42  44
ATOM     44  O   UNL     1       6.078  -4.531  21.196  0.00  0.00    -0.454 OA
ATOM     45  C   UNL     1       5.788  -3.236  21.730  0.00  0.00    +0.282 C 
ENDBRANCH  42  44
ENDBRANCH  39  40
BRANCH  39  46
ATOM     46  C   UNL     1       2.952  -5.950  24.261  0.00  0.00    -0.011 C 
ATOM     47  C   UNL     1       2.238  -6.329  22.947  0.00  0.00    +0.013 C 
ATOM     48  C   UNL     1       2.551  -4.495  24.593  0.00  0.00    +0.013 C 
ATOM     49  C   UNL     1       2.409  -6.844  25.396  0.00  0.00    +0.013 C 
ENDBRANCH  39  46
ENDBRANCH  37  39
ENDBRANCH  34  35
BRANCH  34  50
ATOM     50  C   UNL     1       5.648  -4.401  28.151  0.00  0.00    +0.060 C 
BRANCH  50  51
ATOM     51  C   UNL     1       4.151  -4.272  28.354  0.00  0.00    -0.046 A 
ATOM     52  C   UNL     1       3.546  -3.019  28.144  0.00  0.00    +0.004 A 
ATOM     53  C   UNL     1       2.157  -2.876  28.144  0.00  0.00    +0.000 A 
ATOM     54  C   UNL     1       1.347  -3.980  28.382  0.00  0.00    +0.000 A 
ATOM     55  C   UNL     1       1.931  -5.199  28.709  0.00  0.00    +0.000 A 
ATOM     56  C   UNL     1       3.323  -5.332  28.732  0.00  0.00    +0.004 A 
ENDBRANCH  50  51
ENDBRANCH  34  50
ENDBRANCH  31  34
ENDBRANCH  30  31
ENDBRANCH   1  30
TORSDOF 19
ENDMDL
MODEL 5
REMARK VINA RESULT:      -6.8      2.828      9.242
REMARK  Name = 
REMARK  27 active torsions:
REMARK  status: ('A' for Active; 'I' for Inactive)
REMARK    1  A    between atoms: C_1  and  C_2
REMARK    2  A    between atoms: C_2  and  C_3
REMARK    3  A    between atoms: C_2  and  C_4
REMARK    4  A    between atoms: C_2  and  C_5
REMARK    5  A    between atoms: C_5  and  C_7
REMARK    6  A    between atoms: C_5  and  N_50
REMARK    7  A    between atoms: N_9  and  N_10
REMARK    8  A    between atoms: N_10  and  C_11
REMARK    9  A    between atoms: N_10  and  C_24
REMARK   10  A    between atoms: C_11  and  C_12
REMARK   11  A    between atoms: C_15  and  C_18
REMARK   12  A    between atoms: C_24  and  C_25
REMARK   13  A    between atoms: C_25  and  C_27
REMARK   14  A    between atoms: C_25  and  O_49
REMARK   15  A    between atoms: C_27  and  C_29
REMARK   16  A    between atoms: C_27  and  N_36
REMARK   17  A    between atoms: C_29  and  C_30
REMARK   18  A    between atoms: C_37  and  C_39
REMARK   19  A    between atoms: C_39  and  C_40
REMARK   20  A    between atoms: C_39  and  N_44
REMARK   21  A    between atoms: C_40  and  C_41
REMARK   22  A    between atoms: C_40  and  C_42
REMARK   23  A    between atoms: C_40  and  C_43
REMARK   24  A    between atoms: C_45  and  O_47
REMARK   25  A    between atoms: O_47  and  C_48
REMARK   26  A    between atoms: C_51  and  O_53
REMARK   27  A    between atoms: O_53  and  C_54
REMARK                            x       y       z     vdW  Elec       q    Type
REMARK                         _______ _______ _______ _____ _____    ______ ____
ROOT
ATOM      1  N   UNL     1       9.431  -1.065  23.813  0.00  0.00    -0.220 NA
ENDROOT
BRANCH   1   3
ATOM      2  C   UNL     1       7.891  -0.637  25.770  0.00  0.00    +0.248 C 
ATOM      3  N   UNL     1       8.112  -0.873  24.414  0.00  0.00    -0.246 N 
ATOM      4  H   UNL     1       7.290  -0.978  23.832  0.00  0.00    +0.169 HD
ATOM      5  O   UNL     1       8.806  -0.584  26.587  0.00  0.00    -0.272 OA
BRANCH   2   6
ATOM      6  C   UNL     1       6.380  -0.396  26.162  0.00  0.00    +0.169 C 
BRANCH   6   7
ATOM      7  N   UNL     1       5.823  -1.570  26.866  0.00  0.00    -0.269 N 
ATOM      8  H   UNL     1       6.095  -1.782  27.816  0.00  0.00    +0.153 HD
ATOM      9  C   UNL     1       4.880  -2.393  26.323  0.00  0.00    +0.401 C 
ATOM     10  O   UNL     1       4.312  -2.219  25.257  0.00  0.00    -0.226 OA
BRANCH   9  11
ATOM     11  O   UNL     1       4.693  -3.453  27.149  0.00  0.00    -0.454 OA
ATOM     12  C   UNL     1       3.644  -3.266  28.105  0.00  0.00    +0.282 C 
ENDBRANCH   9  11
ENDBRANCH   6   7
BRANCH   6  14
ATOM     13  C   UNL     1       6.279   0.737  28.492  0.00  0.00    +0.013 C 
ATOM     14  C   UNL     1       6.119   0.928  26.968  0.00  0.00    -0.011 C 
ATOM     15  C   UNL     1       7.145   2.022  26.576  0.00  0.00    +0.013 C 
ATOM     16  C   UNL     1       4.700   1.452  26.689  0.00  0.00    +0.013 C 
ENDBRANCH   6  14
ENDBRANCH   2   6
ENDBRANCH   1   3
BRANCH   1  17
ATOM     17  C   UNL     1       9.685  -2.522  23.622  0.00  0.00    +0.140 C 
BRANCH  17  18
ATOM     18  C   UNL     1       8.489  -3.457  23.742  0.00  0.00    -0.032 A 
ATOM     19  C   UNL     1       8.212  -4.252  24.863  0.00  0.00    +0.005 A 
ATOM     20  C   UNL     1       7.025  -5.011  24.933  0.00  0.00    +0.010 A 
ATOM     21  C   UNL     1       6.079  -4.994  23.894  0.00  0.00    +0.000 A 
ATOM     22  C   UNL     1       6.396  -4.230  22.766  0.00  0.00    +0.010 A 
ATOM     23  C   UNL     1       7.594  -3.528  22.676  0.00  0.00    +0.005 A 
BRANCH  21  24
ATOM     24  C   UNL     1       4.800  -5.725  23.969  0.00  0.00    +0.071 A 
ATOM     25  N   UNL     1       3.891  -5.461  22.995  0.00  0.00    -0.255 NA
ATOM     26  C   UNL     1       2.762  -6.205  22.978  0.00  0.00    +0.111 A 
ATOM     27  C   UNL     1       2.478  -7.206  23.892  0.00  0.00    +0.020 A 
ATOM     28  C   UNL     1       3.395  -7.451  24.902  0.00  0.00    +0.004 A 
ATOM     29  C   UNL     1       4.562  -6.697  24.948  0.00  0.00    +0.028 A 
ENDBRANCH  21  24
ENDBRANCH  17  18
ENDBRANCH   1  17
BRANCH   1  30
ATOM     30  C   UNL     1       9.584  -0.217  22.590  0.00  0.00    +0.139 C 
BRANCH  30  31
ATOM     31  C   UNL     1       8.608   0.914  22.080  0.00  0.00    +0.151 C 
BRANCH  31  32
ATOM     32  O   UNL     1       8.776   1.127  20.670  0.00  0.00    -0.389 OA
ATOM     33  H   UNL     1       9.737   1.186  20.521  0.00  0.00    +0.210 HD
ENDBRANCH  31  32
BRANCH  31  34
ATOM     34  C   UNL     1       8.544   2.316  22.750  0.00  0.00    +0.107 C 
BRANCH  34  35
ATOM     35  N   UNL     1       7.150   2.730  23.148  0.00  0.00    -0.308 N 
ATOM     36  H   UNL     1       6.606   2.032  23.636  0.00  0.00    +0.149 HD
ATOM     37  C   UNL     1       6.492   3.885  22.761  0.00  0.00    +0.234 C 
ATOM     38  O   UNL     1       7.000   4.741  22.039  0.00  0.00    -0.274 OA
BRANCH  37  39
ATOM     39  C   UNL     1       5.029   4.035  23.282  0.00  0.00    +0.167 C 
BRANCH  39  40
ATOM     40  N   UNL     1       4.179   4.300  22.121  0.00  0.00    -0.269 N 
ATOM     41  H   UNL     1       4.461   5.013  21.459  0.00  0.00    +0.153 HD
ATOM     42  C   UNL     1       2.962   3.723  21.928  0.00  0.00    +0.401 C 
ATOM     43  O   UNL     1       2.471   2.860  22.640  0.00  0.00    -0.226 OA
BRANCH  42  44
ATOM     44  O   UNL     1       2.359   4.282  20.848  0.00  0.00    -0.454 OA
ATOM     45  C   UNL     1       2.214   5.703  20.920  0.00  0.00    +0.282 C 
ENDBRANCH  42  44
ENDBRANCH  39  40
BRANCH  39  46
ATOM     46  C   UNL     1       4.899   5.142  24.395  0.00  0.00    -0.011 C 
ATOM     47  C   UNL     1       3.748   4.777  25.355  0.00  0.00    +0.013 C 
ATOM     48  C   UNL     1       4.558   6.517  23.778  0.00  0.00    +0.013 C 
ATOM     49  C   UNL     1       6.193   5.319  25.220  0.00  0.00    +0.013 C 
ENDBRANCH  39  46
ENDBRANCH  37  39
ENDBRANCH  34  35
BRANCH  34  50
ATOM     50  C   UNL     1       9.572   2.643  23.863  0.00  0.00    +0.060 C 
BRANCH  50  51
ATOM     51  C   UNL     1      10.401   3.912  23.802  0.00  0.00    -0.046 A 
ATOM     52  C   UNL     1       9.838   5.109  24.281  0.00  0.00    +0.004 A 
ATOM     53  C   UNL     1      10.607   6.268  24.413  0.00  0.00    +0.000 A 
ATOM     54  C   UNL     1      11.946   6.257  24.041  0.00  0.00    +0.000 A 
ATOM     55  C   UNL     1      12.484   5.116  23.456  0.00  0.00    +0.000 A 
ATOM     56  C   UNL     1      11.704   3.965  23.302  0.00  0.00    +0.004 A 
ENDBRANCH  50  51
ENDBRANCH  34  50
ENDBRANCH  31  34
ENDBRANCH  30  31
ENDBRANCH   1  30
TORSDOF 19
ENDMDL
MODEL 6
REMARK VINA RESULT:      -6.8      2.175      6.400
REMARK  Name = 
REMARK  27 active torsions:
REMARK  status: ('A' for Active; 'I' for Inactive)
REMARK    1  A    between atoms: C_1  and  C_2
REMARK    2  A    between atoms: C_2  and  C_3
REMARK    3  A    between atoms: C_2  and  C_4
REMARK    4  A    between atoms: C_2  and  C_5
REMARK    5  A    between atoms: C_5  and  C_7
REMARK    6  A    between atoms: C_5  and  N_50
REMARK    7  A    between atoms: N_9  and  N_10
REMARK    8  A    between atoms: N_10  and  C_11
REMARK    9  A    between atoms: N_10  and  C_24
REMARK   10  A    between atoms: C_11  and  C_12
REMARK   11  A    between atoms: C_15  and  C_18
REMARK   12  A    between atoms: C_24  and  C_25
REMARK   13  A    between atoms: C_25  and  C_27
REMARK   14  A    between atoms: C_25  and  O_49
REMARK   15  A    between atoms: C_27  and  C_29
REMARK   16  A    between atoms: C_27  and  N_36
REMARK   17  A    between atoms: C_29  and  C_30
REMARK   18  A    between atoms: C_37  and  C_39
REMARK   19  A    between atoms: C_39  and  C_40
REMARK   20  A    between atoms: C_39  and  N_44
REMARK   21  A    between atoms: C_40  and  C_41
REMARK   22  A    between atoms: C_40  and  C_42
REMARK   23  A    between atoms: C_40  and  C_43
REMARK   24  A    between atoms: C_45  and  O_47
REMARK   25  A    between atoms: O_47  and  C_48
REMARK   26  A    between atoms: C_51  and  O_53
REMARK   27  A    between atoms: O_53  and  C_54
REMARK                            x       y       z     vdW  Elec       q    Type
REMARK                         _______ _______ _______ _____ _____    ______ ____
ROOT
ATOM      1  N   UNL     1       9.345  -2.295  24.708  0.00  0.00    -0.220 NA
ENDROOT
BRANCH   1   3
ATOM      2  C   UNL     1       8.197  -4.508  24.300  0.00  0.00    +0.248 C 
ATOM      3  N   UNL     1       8.163  -3.127  24.479  0.00  0.00    -0.246 N 
ATOM      4  H   UNL     1       7.262  -2.678  24.376  0.00  0.00    +0.169 HD
ATOM      5  O   UNL     1       9.244  -5.149  24.308  0.00  0.00    -0.272 OA
BRANCH   2   6
ATOM      6  C   UNL     1       6.780  -5.189  24.135  0.00  0.00    +0.169 C 
BRANCH   6   7
ATOM      7  N   UNL     1       5.839  -4.703  25.165  0.00  0.00    -0.269 N 
ATOM      8  H   UNL     1       5.278  -3.877  25.007  0.00  0.00    +0.153 HD
ATOM      9  C   UNL     1       5.616  -5.351  26.345  0.00  0.00    +0.401 C 
ATOM     10  O   UNL     1       6.073  -6.438  26.657  0.00  0.00    -0.226 OA
BRANCH   9  11
ATOM     11  O   UNL     1       4.823  -4.578  27.129  0.00  0.00    -0.454 OA
ATOM     12  C   UNL     1       3.582  -4.211  26.514  0.00  0.00    +0.282 C 
ENDBRANCH   9  11
ENDBRANCH   6   7
BRANCH   6  14
ATOM     13  C   UNL     1       4.723  -5.622  22.618  0.00  0.00    +0.013 C 
ATOM     14  C   UNL     1       6.163  -5.068  22.696  0.00  0.00    -0.011 C 
ATOM     15  C   UNL     1       6.060  -3.583  22.263  0.00  0.00    +0.013 C 
ATOM     16  C   UNL     1       7.031  -5.826  21.677  0.00  0.00    +0.013 C 
ENDBRANCH   6  14
ENDBRANCH   2   6
ENDBRANCH   1   3
BRANCH   1  17
ATOM     17  C   UNL     1       9.783  -1.685  23.420  0.00  0.00    +0.140 C 
BRANCH  17  18
ATOM     18  C   UNL     1       9.395  -0.233  23.172  0.00  0.00    -0.032 A 
ATOM     19  C   UNL     1       8.229   0.175  22.510  0.00  0.00    +0.005 A 
ATOM     20  C   UNL     1       7.895   1.542  22.415  0.00  0.00    +0.010 A 
ATOM     21  C   UNL     1       8.708   2.538  22.981  0.00  0.00    +0.000 A 
ATOM     22  C   UNL     1       9.889   2.113  23.597  0.00  0.00    +0.010 A 
ATOM     23  C   UNL     1      10.244   0.768  23.639  0.00  0.00    +0.005 A 
BRANCH  21  24
ATOM     24  C   UNL     1       8.349   3.970  22.955  0.00  0.00    +0.071 A 
ATOM     25  N   UNL     1       9.165   4.812  23.639  0.00  0.00    -0.255 NA
ATOM     26  C   UNL     1       8.923   6.139  23.531  0.00  0.00    +0.111 A 
ATOM     27  C   UNL     1       7.897   6.681  22.774  0.00  0.00    +0.020 A 
ATOM     28  C   UNL     1       7.049   5.815  22.102  0.00  0.00    +0.004 A 
ATOM     29  C   UNL     1       7.271   4.446  22.201  0.00  0.00    +0.028 A 
ENDBRANCH  21  24
ENDBRANCH  17  18
ENDBRANCH   1  17
BRANCH   1  30
ATOM     30  C   UNL     1       9.105  -1.334  25.830  0.00  0.00    +0.139 C 
BRANCH  30  31
ATOM     31  C   UNL     1       7.815  -1.217  26.732  0.00  0.00    +0.151 C 
BRANCH  31  32
ATOM     32  O   UNL     1       7.145  -2.483  26.823  0.00  0.00    -0.389 OA
ATOM     33  H   UNL     1       7.647  -3.092  26.251  0.00  0.00    +0.210 HD
ENDBRANCH  31  32
BRANCH  31  34
ATOM     34  C   UNL     1       6.723  -0.139  26.479  0.00  0.00    +0.107 C 
BRANCH  34  35
ATOM     35  N   UNL     1       5.685  -0.066  27.569  0.00  0.00    -0.308 N 
ATOM     36  H   UNL     1       6.036   0.110  28.501  0.00  0.00    +0.149 HD
ATOM     37  C   UNL     1       4.343  -0.387  27.453  0.00  0.00    +0.234 C 
ATOM     38  O   UNL     1       3.829  -0.764  26.401  0.00  0.00    -0.274 OA
BRANCH  37  39
ATOM     39  C   UNL     1       3.504  -0.269  28.763  0.00  0.00    +0.167 C 
BRANCH  39  40
ATOM     40  N   UNL     1       2.769  -1.524  28.923  0.00  0.00    -0.269 N 
ATOM     41  H   UNL     1       1.897  -1.649  28.424  0.00  0.00    +0.153 HD
ATOM     42  C   UNL     1       3.127  -2.502  29.798  0.00  0.00    +0.401 C 
ATOM     43  O   UNL     1       4.138  -2.497  30.485  0.00  0.00    -0.226 OA
BRANCH  42  44
ATOM     44  O   UNL     1       2.171  -3.465  29.823  0.00  0.00    -0.454 OA
ATOM     45  C   UNL     1       2.652  -4.768  30.165  0.00  0.00    +0.282 C 
ENDBRANCH  42  44
ENDBRANCH  39  40
BRANCH  39  46
ATOM     46  C   UNL     1       2.559   0.992  28.757  0.00  0.00    -0.011 C 
ATOM     47  C   UNL     1       1.228   0.635  28.063  0.00  0.00    +0.013 C 
ATOM     48  C   UNL     1       3.188   2.158  27.961  0.00  0.00    +0.013 C 
ATOM     49  C   UNL     1       2.252   1.520  30.175  0.00  0.00    +0.013 C 
ENDBRANCH  39  46
ENDBRANCH  37  39
ENDBRANCH  34  35
BRANCH  34  50
ATOM     50  C   UNL     1       7.179   1.274  26.034  0.00  0.00    +0.060 C 
BRANCH  50  51
ATOM     51  C   UNL     1       6.165   2.303  25.571  0.00  0.00    -0.046 A 
ATOM     52  C   UNL     1       6.286   3.626  26.036  0.00  0.00    +0.004 A 
ATOM     53  C   UNL     1       5.495   4.652  25.513  0.00  0.00    +0.000 A 
ATOM     54  C   UNL     1       4.550   4.368  24.535  0.00  0.00    +0.000 A 
ATOM     55  C   UNL     1       4.337   3.048  24.152  0.00  0.00    +0.000 A 
ATOM     56  C   UNL     1       5.114   2.020  24.696  0.00  0.00    +0.004 A 
ENDBRANCH  50  51
ENDBRANCH  34  50
ENDBRANCH  31  34
ENDBRANCH  30  31
ENDBRANCH   1  30
TORSDOF 19
ENDMDL
MODEL 7
REMARK VINA RESULT:      -6.7      1.738      2.652
REMARK  Name = 
REMARK  27 active torsions:
REMARK  status: ('A' for Active; 'I' for Inactive)
REMARK    1  A    between atoms: C_1  and  C_2
REMARK    2  A    between atoms: C_2  and  C_3
REMARK    3  A    between atoms: C_2  and  C_4
REMARK    4  A    between atoms: C_2  and  C_5
REMARK    5  A    between atoms: C_5  and  C_7
REMARK    6  A    between atoms: C_5  and  N_50
REMARK    7  A    between atoms: N_9  and  N_10
REMARK    8  A    between atoms: N_10  and  C_11
REMARK    9  A    between atoms: N_10  and  C_24
REMARK   10  A    between atoms: C_11  and  C_12
REMARK   11  A    between atoms: C_15  and  C_18
REMARK   12  A    between atoms: C_24  and  C_25
REMARK   13  A    between atoms: C_25  and  C_27
REMARK   14  A    between atoms: C_25  and  O_49
REMARK   15  A    between atoms: C_27  and  C_29
REMARK   16  A    between atoms: C_27  and  N_36
REMARK   17  A    between atoms: C_29  and  C_30
REMARK   18  A    between atoms: C_37  and  C_39
REMARK   19  A    between atoms: C_39  and  C_40
REMARK   20  A    between atoms: C_39  and  N_44
REMARK   21  A    between atoms: C_40  and  C_41
REMARK   22  A    between atoms: C_40  and  C_42
REMARK   23  A    between atoms: C_40  and  C_43
REMARK   24  A    between atoms: C_45  and  O_47
REMARK   25  A    between atoms: O_47  and  C_48
REMARK   26  A    between atoms: C_51  and  O_53
REMARK   27  A    between atoms: O_53  and  C_54
REMARK                            x       y       z     vdW  Elec       q    Type
REMARK                         _______ _______ _______ _____ _____    ______ ____
ROOT
ATOM      1  N   UNL     1       7.887  -2.247  24.585  0.00  0.00    -0.220 NA
ENDROOT
BRANCH   1   3
ATOM      2  C   UNL     1       5.996  -0.703  25.235  0.00  0.00    +0.248 C 
ATOM      3  N   UNL     1       7.354  -1.001  25.134  0.00  0.00    -0.246 N 
ATOM      4  H   UNL     1       8.000  -0.269  25.403  0.00  0.00    +0.169 HD
ATOM      5  O   UNL     1       5.122  -1.475  24.851  0.00  0.00    -0.272 OA
BRANCH   2   6
ATOM      6  C   UNL     1       5.672   0.680  25.926  0.00  0.00    +0.169 C 
BRANCH   6   7
ATOM      7  N   UNL     1       4.939   1.572  25.003  0.00  0.00    -0.269 N 
ATOM      8  H   UNL     1       3.929   1.558  24.961  0.00  0.00    +0.153 HD
ATOM      9  C   UNL     1       5.550   2.499  24.210  0.00  0.00    +0.401 C 
ATOM     10  O   UNL     1       6.738   2.778  24.229  0.00  0.00    -0.226 OA
BRANCH   9  11
ATOM     11  O   UNL     1       4.627   3.043  23.378  0.00  0.00    -0.454 OA
ATOM     12  C   UNL     1       5.090   4.204  22.678  0.00  0.00    +0.282 C 
ENDBRANCH   9  11
ENDBRANCH   6   7
BRANCH   6  14
ATOM     13  C   UNL     1       3.435   0.225  27.157  0.00  0.00    +0.013 C 
ATOM     14  C   UNL     1       4.935   0.561  27.309  0.00  0.00    -0.011 C 
ATOM     15  C   UNL     1       5.535  -0.591  28.154  0.00  0.00    +0.013 C 
ATOM     16  C   UNL     1       5.062   1.876  28.096  0.00  0.00    +0.013 C 
ENDBRANCH   6  14
ENDBRANCH   2   6
ENDBRANCH   1   3
BRANCH   1  17
ATOM     17  C   UNL     1       8.788  -1.940  23.437  0.00  0.00    +0.140 C 
BRANCH  17  18
ATOM     18  C   UNL     1       9.319  -0.517  23.331  0.00  0.00    -0.032 A 
ATOM     19  C   UNL     1       8.986   0.380  22.306  0.00  0.00    +0.005 A 
ATOM     20  C   UNL     1       9.440   1.714  22.341  0.00  0.00    +0.010 A 
ATOM     21  C   UNL     1      10.232   2.195  23.399  0.00  0.00    +0.000 A 
ATOM     22  C   UNL     1      10.589   1.272  24.387  0.00  0.00    +0.010 A 
ATOM     23  C   UNL     1      10.187  -0.058  24.320  0.00  0.00    +0.005 A 
BRANCH  21  24
ATOM     24  C   UNL     1      10.665   3.602  23.494  0.00  0.00    +0.071 A 
ATOM     25  N   UNL     1       9.721   4.503  23.874  0.00  0.00    -0.255 NA
ATOM     26  C   UNL     1      10.125   5.777  24.082  0.00  0.00    +0.111 A 
ATOM     27  C   UNL     1      11.431   6.213  23.926  0.00  0.00    +0.020 A 
ATOM     28  C   UNL     1      12.383   5.296  23.510  0.00  0.00    +0.004 A 
ATOM     29  C   UNL     1      11.995   3.981  23.282  0.00  0.00    +0.028 A 
ENDBRANCH  21  24
ENDBRANCH  17  18
ENDBRANCH   1  17
BRANCH   1  30
ATOM     30  C   UNL     1       8.484  -3.089  25.668  0.00  0.00    +0.139 C 
BRANCH  30  31
ATOM     31  C   UNL     1       7.717  -3.950  26.746  0.00  0.00    +0.151 C 
BRANCH  31  32
ATOM     32  O   UNL     1       8.146  -5.319  26.697  0.00  0.00    -0.389 OA
ATOM     33  H   UNL     1       7.340  -5.847  26.556  0.00  0.00    +0.210 HD
ENDBRANCH  31  32
BRANCH  31  34
ATOM     34  C   UNL     1       6.165  -3.959  26.846  0.00  0.00    +0.107 C 
BRANCH  34  35
ATOM     35  N   UNL     1       5.487  -4.518  25.622  0.00  0.00    -0.308 N 
ATOM     36  H   UNL     1       5.058  -3.839  25.007  0.00  0.00    +0.149 HD
ATOM     37  C   UNL     1       5.242  -5.854  25.353  0.00  0.00    +0.234 C 
ATOM     38  O   UNL     1       5.581  -6.766  26.105  0.00  0.00    -0.274 OA
BRANCH  37  39
ATOM     39  C   UNL     1       4.471  -6.146  24.028  0.00  0.00    +0.167 C 
BRANCH  39  40
ATOM     40  N   UNL     1       4.919  -5.164  23.040  0.00  0.00    -0.269 N 
ATOM     41  H   UNL     1       4.489  -4.247  23.029  0.00  0.00    +0.153 HD
ATOM     42  C   UNL     1       5.806  -5.443  22.047  0.00  0.00    +0.401 C 
ATOM     43  O   UNL     1       6.399  -6.503  21.910  0.00  0.00    -0.226 OA
BRANCH  42  44
ATOM     44  O   UNL     1       5.902  -4.380  21.209  0.00  0.00    -0.454 OA
ATOM     45  C   UNL     1       5.752  -3.108  21.846  0.00  0.00    +0.282 C 
ENDBRANCH  42  44
ENDBRANCH  39  40
BRANCH  39  46
ATOM     46  C   UNL     1       2.908  -6.136  24.230  0.00  0.00    -0.011 C 
ATOM     47  C   UNL     1       2.218  -6.594  22.929  0.00  0.00    +0.013 C 
ATOM     48  C   UNL     1       2.394  -4.712  24.541  0.00  0.00    +0.013 C 
ATOM     49  C   UNL     1       2.446  -7.051  25.384  0.00  0.00    +0.013 C 
ENDBRANCH  39  46
ENDBRANCH  37  39
ENDBRANCH  34  35
BRANCH  34  50
ATOM     50  C   UNL     1       5.519  -4.499  28.148  0.00  0.00    +0.060 C 
BRANCH  50  51
ATOM     51  C   UNL     1       4.012  -4.513  28.315  0.00  0.00    -0.046 A 
ATOM     52  C   UNL     1       3.288  -3.348  28.002  0.00  0.00    +0.004 A 
ATOM     53  C   UNL     1       1.891  -3.351  27.967  0.00  0.00    +0.000 A 
ATOM     54  C   UNL     1       1.193  -4.514  28.273  0.00  0.00    +0.000 A 
ATOM     55  C   UNL     1       1.891  -5.639  28.699  0.00  0.00    +0.000 A 
ATOM     56  C   UNL     1       3.289  -5.623  28.757  0.00  0.00    +0.004 A 
ENDBRANCH  50  51
ENDBRANCH  34  50
ENDBRANCH  31  34
ENDBRANCH  30  31
ENDBRANCH   1  30
TORSDOF 19
ENDMDL
MODEL 8
REMARK VINA RESULT:      -6.5      2.290      6.186
REMARK  Name = 
REMARK  27 active torsions:
REMARK  status: ('A' for Active; 'I' for Inactive)
REMARK    1  A    between atoms: C_1  and  C_2
REMARK    2  A    between atoms: C_2  and  C_3
REMARK    3  A    between atoms: C_2  and  C_4
REMARK    4  A    between atoms: C_2  and  C_5
REMARK    5  A    between atoms: C_5  and  C_7
REMARK    6  A    between atoms: C_5  and  N_50
REMARK    7  A    between atoms: N_9  and  N_10
REMARK    8  A    between atoms: N_10  and  C_11
REMARK    9  A    between atoms: N_10  and  C_24
REMARK   10  A    between atoms: C_11  and  C_12
REMARK   11  A    between atoms: C_15  and  C_18
REMARK   12  A    between atoms: C_24  and  C_25
REMARK   13  A    between atoms: C_25  and  C_27
REMARK   14  A    between atoms: C_25  and  O_49
REMARK   15  A    between atoms: C_27  and  C_29
REMARK   16  A    between atoms: C_27  and  N_36
REMARK   17  A    between atoms: C_29  and  C_30
REMARK   18  A    between atoms: C_37  and  C_39
REMARK   19  A    between atoms: C_39  and  C_40
REMARK   20  A    between atoms: C_39  and  N_44
REMARK   21  A    between atoms: C_40  and  C_41
REMARK   22  A    between atoms: C_40  and  C_42
REMARK   23  A    between atoms: C_40  and  C_43
REMARK   24  A    between atoms: C_45  and  O_47
REMARK   25  A    between atoms: O_47  and  C_48
REMARK   26  A    between atoms: C_51  and  O_53
REMARK   27  A    between atoms: O_53  and  C_54
REMARK                            x       y       z     vdW  Elec       q    Type
REMARK                         _______ _______ _______ _____ _____    ______ ____
ROOT
ATOM      1  N   UNL     1       9.130  -2.509  24.232  0.00  0.00    -0.220 NA
ENDROOT
BRANCH   1   3
ATOM      2  C   UNL     1       7.884  -4.705  24.152  0.00  0.00    +0.248 C 
ATOM      3  N   UNL     1       7.911  -3.312  24.147  0.00  0.00    -0.246 N 
ATOM      4  H   UNL     1       7.024  -2.841  24.011  0.00  0.00    +0.169 HD
ATOM      5  O   UNL     1       8.906  -5.383  24.216  0.00  0.00    -0.272 OA
BRANCH   2   6
ATOM      6  C   UNL     1       6.438  -5.339  24.118  0.00  0.00    +0.169 C 
BRANCH   6   7
ATOM      7  N   UNL     1       5.647  -4.914  25.292  0.00  0.00    -0.269 N 
ATOM      8  H   UNL     1       5.362  -3.950  25.403  0.00  0.00    +0.153 HD
ATOM      9  C   UNL     1       5.201  -5.776  26.251  0.00  0.00    +0.401 C 
ATOM     10  O   UNL     1       5.305  -6.991  26.218  0.00  0.00    -0.226 OA
BRANCH   9  11
ATOM     11  O   UNL     1       4.646  -5.061  27.261  0.00  0.00    -0.454 OA
ATOM     12  C   UNL     1       4.055  -5.869  28.286  0.00  0.00    +0.282 C 
ENDBRANCH   9  11
ENDBRANCH   6   7
BRANCH   6  14
ATOM     13  C   UNL     1       5.257  -3.615  22.584  0.00  0.00    +0.013 C 
ATOM     14  C   UNL     1       5.650  -5.095  22.781  0.00  0.00    -0.011 C 
ATOM     15  C   UNL     1       6.523  -5.460  21.553  0.00  0.00    +0.013 C 
ATOM     16  C   UNL     1       4.369  -5.946  22.753  0.00  0.00    +0.013 C 
ENDBRANCH   6  14
ENDBRANCH   2   6
ENDBRANCH   1   3
BRANCH   1  17
ATOM     17  C   UNL     1       9.387  -1.853  22.917  0.00  0.00    +0.140 C 
BRANCH  17  18
ATOM     18  C   UNL     1       9.842  -0.400  22.943  0.00  0.00    -0.032 A 
ATOM     19  C   UNL     1       9.619   0.521  21.909  0.00  0.00    +0.005 A 
ATOM     20  C   UNL     1       9.982   1.875  22.059  0.00  0.00    +0.010 A 
ATOM     21  C   UNL     1      10.569   2.352  23.244  0.00  0.00    +0.000 A 
ATOM     22  C   UNL     1      10.823   1.409  24.245  0.00  0.00    +0.010 A 
ATOM     23  C   UNL     1      10.517   0.063  24.072  0.00  0.00    +0.005 A 
BRANCH  21  24
ATOM     24  C   UNL     1      10.896   3.776  23.453  0.00  0.00    +0.071 A 
ATOM     25  N   UNL     1       9.893   4.569  23.908  0.00  0.00    -0.255 NA
ATOM     26  C   UNL     1      10.202   5.849  24.218  0.00  0.00    +0.111 A 
ATOM     27  C   UNL     1      11.470   6.393  24.094  0.00  0.00    +0.020 A 
ATOM     28  C   UNL     1      12.484   5.587  23.601  0.00  0.00    +0.004 A 
ATOM     29  C   UNL     1      12.193   4.269  23.267  0.00  0.00    +0.028 A 
ENDBRANCH  21  24
ENDBRANCH  17  18
ENDBRANCH   1  17
BRANCH   1  30
ATOM     30  C   UNL     1       9.078  -1.591  25.413  0.00  0.00    +0.139 C 
BRANCH  30  31
ATOM     31  C   UNL     1       7.923  -1.469  26.482  0.00  0.00    +0.151 C 
BRANCH  31  32
ATOM     32  O   UNL     1       7.499  -2.769  26.917  0.00  0.00    -0.389 OA
ATOM     33  H   UNL     1       7.430  -3.312  26.111  0.00  0.00    +0.210 HD
ENDBRANCH  31  32
BRANCH  31  34
ATOM     34  C   UNL     1       6.639  -0.633  26.220  0.00  0.00    +0.107 C 
BRANCH  34  35
ATOM     35  N   UNL     1       6.895   0.642  25.459  0.00  0.00    -0.308 N 
ATOM     36  H   UNL     1       7.818   0.738  25.056  0.00  0.00    +0.149 HD
ATOM     37  C   UNL     1       6.069   1.753  25.409  0.00  0.00    +0.234 C 
ATOM     38  O   UNL     1       4.987   1.813  25.988  0.00  0.00    -0.274 OA
BRANCH  37  39
ATOM     39  C   UNL     1       6.610   2.960  24.582  0.00  0.00    +0.167 C 
BRANCH  39  40
ATOM     40  N   UNL     1       6.159   4.181  25.251  0.00  0.00    -0.269 N 
ATOM     41  H   UNL     1       5.310   4.632  24.929  0.00  0.00    +0.153 HD
ATOM     42  C   UNL     1       6.874   4.823  26.214  0.00  0.00    +0.401 C 
ATOM     43  O   UNL     1       7.921   4.422  26.698  0.00  0.00    -0.226 OA
BRANCH  42  44
ATOM     44  O   UNL     1       6.268   5.997  26.526  0.00  0.00    -0.454 OA
ATOM     45  C   UNL     1       5.104   6.288  25.747  0.00  0.00    +0.282 C 
ENDBRANCH  42  44
ENDBRANCH  39  40
BRANCH  39  46
ATOM     46  C   UNL     1       6.169   2.896  23.071  0.00  0.00    -0.011 C 
ATOM     47  C   UNL     1       6.961   3.941  22.259  0.00  0.00    +0.013 C 
ATOM     48  C   UNL     1       4.671   3.237  22.912  0.00  0.00    +0.013 C 
ATOM     49  C   UNL     1       6.392   1.506  22.439  0.00  0.00    +0.013 C 
ENDBRANCH  39  46
ENDBRANCH  37  39
ENDBRANCH  34  35
BRANCH  34  50
ATOM     50  C   UNL     1       5.383  -1.369  25.686  0.00  0.00    +0.060 C 
BRANCH  50  51
ATOM     51  C   UNL     1       4.212  -1.664  26.604  0.00  0.00    -0.046 A 
ATOM     52  C   UNL     1       3.085  -2.318  26.072  0.00  0.00    +0.004 A 
ATOM     53  C   UNL     1       2.055  -2.773  26.898  0.00  0.00    +0.000 A 
ATOM     54  C   UNL     1       2.119  -2.556  28.269  0.00  0.00    +0.000 A 
ATOM     55  C   UNL     1       3.167  -1.807  28.795  0.00  0.00    +0.000 A 
ATOM     56  C   UNL     1       4.185  -1.333  27.961  0.00  0.00    +0.004 A 
ENDBRANCH  50  51
ENDBRANCH  34  50
ENDBRANCH  31  34
ENDBRANCH  30  31
ENDBRANCH   1  30
TORSDOF 19
ENDMDL
MODEL 9
REMARK VINA RESULT:      -6.4      2.837      7.040
REMARK  Name = 
REMARK  27 active torsions:
REMARK  status: ('A' for Active; 'I' for Inactive)
REMARK    1  A    between atoms: C_1  and  C_2
REMARK    2  A    between atoms: C_2  and  C_3
REMARK    3  A    between atoms: C_2  and  C_4
REMARK    4  A    between atoms: C_2  and  C_5
REMARK    5  A    between atoms: C_5  and  C_7
REMARK    6  A    between atoms: C_5  and  N_50
REMARK    7  A    between atoms: N_9  and  N_10
REMARK    8  A    between atoms: N_10  and  C_11
REMARK    9  A    between atoms: N_10  and  C_24
REMARK   10  A    between atoms: C_11  and  C_12
REMARK   11  A    between atoms: C_15  and  C_18
REMARK   12  A    between atoms: C_24  and  C_25
REMARK   13  A    between atoms: C_25  and  C_27
REMARK   14  A    between atoms: C_25  and  O_49
REMARK   15  A    between atoms: C_27  and  C_29
REMARK   16  A    between atoms: C_27  and  N_36
REMARK   17  A    between atoms: C_29  and  C_30
REMARK   18  A    between atoms: C_37  and  C_39
REMARK   19  A    between atoms: C_39  and  C_40
REMARK   20  A    between atoms: C_39  and  N_44
REMARK   21  A    between atoms: C_40  and  C_41
REMARK   22  A    between atoms: C_40  and  C_42
REMARK   23  A    between atoms: C_40  and  C_43
REMARK   24  A    between atoms: C_45  and  O_47
REMARK   25  A    between atoms: O_47  and  C_48
REMARK   26  A    between atoms: C_51  and  O_53
REMARK   27  A    between atoms: O_53  and  C_54
REMARK                            x       y       z     vdW  Elec       q    Type
REMARK                         _______ _______ _______ _____ _____    ______ ____
ROOT
ATOM      1  N   UNL     1       8.349  -2.053  24.656  0.00  0.00    -0.220 NA
ENDROOT
BRANCH   1   3
ATOM      2  C   UNL     1       7.674  -4.445  24.202  0.00  0.00    +0.248 C 
ATOM      3  N   UNL     1       7.360  -3.105  24.425  0.00  0.00    -0.246 N 
ATOM      4  H   UNL     1       6.382  -2.850  24.355  0.00  0.00    +0.169 HD
ATOM      5  O   UNL     1       8.831  -4.853  24.170  0.00  0.00    -0.272 OA
BRANCH   2   6
ATOM      6  C   UNL     1       6.425  -5.400  24.045  0.00  0.00    +0.169 C 
BRANCH   6   7
ATOM      7  N   UNL     1       5.423  -5.135  25.098  0.00  0.00    -0.269 N 
ATOM      8  H   UNL     1       4.568  -4.637  24.888  0.00  0.00    +0.153 HD
ATOM      9  C   UNL     1       5.542  -5.587  26.381  0.00  0.00    +0.401 C 
ATOM     10  O   UNL     1       6.416  -6.332  26.793  0.00  0.00    -0.226 OA
BRANCH   9  11
ATOM     11  O   UNL     1       4.547  -5.051  27.130  0.00  0.00    -0.454 OA
ATOM     12  C   UNL     1       4.952  -3.921  27.910  0.00  0.00    +0.282 C 
ENDBRANCH   9  11
ENDBRANCH   6   7
BRANCH   6  14
ATOM     13  C   UNL     1       6.542  -6.254  21.600  0.00  0.00    +0.013 C 
ATOM     14  C   UNL     1       5.769  -5.386  22.618  0.00  0.00    -0.011 C 
ATOM     15  C   UNL     1       4.337  -5.977  22.665  0.00  0.00    +0.013 C 
ATOM     16  C   UNL     1       5.699  -3.948  22.076  0.00  0.00    +0.013 C 
ENDBRANCH   6  14
ENDBRANCH   2   6
ENDBRANCH   1   3
BRANCH   1  17
ATOM     17  C   UNL     1       8.977  -1.665  23.360  0.00  0.00    +0.140 C 
BRANCH  17  18
ATOM     18  C   UNL     1       9.543  -0.256  23.256  0.00  0.00    -0.032 A 
ATOM     19  C   UNL     1       9.192   0.669  22.262  0.00  0.00    +0.005 A 
ATOM     20  C   UNL     1       9.684   1.990  22.301  0.00  0.00    +0.010 A 
ATOM     21  C   UNL     1      10.533   2.428  23.331  0.00  0.00    +0.000 A 
ATOM     22  C   UNL     1      10.907   1.478  24.287  0.00  0.00    +0.010 A 
ATOM     23  C   UNL     1      10.465   0.161  24.215  0.00  0.00    +0.005 A 
BRANCH  21  24
ATOM     24  C   UNL     1      11.009   3.821  23.433  0.00  0.00    +0.071 A 
ATOM     25  N   UNL     1      10.104   4.743  23.851  0.00  0.00    -0.255 NA
ATOM     26  C   UNL     1      10.550   6.002  24.064  0.00  0.00    +0.111 A 
ATOM     27  C   UNL     1      11.863   6.403  23.876  0.00  0.00    +0.020 A 
ATOM     28  C   UNL     1      12.776   5.465  23.420  0.00  0.00    +0.004 A 
ATOM     29  C   UNL     1      12.343   4.165  23.186  0.00  0.00    +0.028 A 
ENDBRANCH  21  24
ENDBRANCH  17  18
ENDBRANCH   1  17
BRANCH   1  30
ATOM     30  C   UNL     1       7.752  -0.930  25.445  0.00  0.00    +0.139 C 
BRANCH  30  31
ATOM     31  C   UNL     1       6.485  -0.064  25.073  0.00  0.00    +0.151 C 
BRANCH  31  32
ATOM     32  O   UNL     1       5.668  -0.752  24.113  0.00  0.00    -0.389 OA
ATOM     33  H   UNL     1       4.767  -0.754  24.481  0.00  0.00    +0.210 HD
ENDBRANCH  31  32
BRANCH  31  34
ATOM     34  C   UNL     1       6.602   1.412  24.600  0.00  0.00    +0.107 C 
BRANCH  34  35
ATOM     35  N   UNL     1       5.270   2.074  24.358  0.00  0.00    -0.308 N 
ATOM     36  H   UNL     1       4.521   1.799  24.979  0.00  0.00    +0.149 HD
ATOM     37  C   UNL     1       4.930   2.872  23.278  0.00  0.00    +0.234 C 
ATOM     38  O   UNL     1       5.715   3.152  22.375  0.00  0.00    -0.274 OA
BRANCH  37  39
ATOM     39  C   UNL     1       3.457   3.386  23.255  0.00  0.00    +0.167 C 
BRANCH  39  40
ATOM     40  N   UNL     1       2.923   3.114  21.920  0.00  0.00    -0.269 N 
ATOM     41  H   UNL     1       3.482   3.353  21.110  0.00  0.00    +0.153 HD
ATOM     42  C   UNL     1       1.662   2.659  21.689  0.00  0.00    +0.401 C 
ATOM     43  O   UNL     1       0.859   2.341  22.553  0.00  0.00    -0.226 OA
BRANCH  42  44
ATOM     44  O   UNL     1       1.417   2.652  20.354  0.00  0.00    -0.454 OA
ATOM     45  C   UNL     1       1.911   3.798  19.655  0.00  0.00    +0.282 C 
ENDBRANCH  42  44
ENDBRANCH  39  40
BRANCH  39  46
ATOM     46  C   UNL     1       3.346   4.905  23.656  0.00  0.00    -0.011 C 
ATOM     47  C   UNL     1       4.415   5.237  24.717  0.00  0.00    +0.013 C 
ATOM     48  C   UNL     1       1.969   5.218  24.283  0.00  0.00    +0.013 C 
ATOM     49  C   UNL     1       3.529   5.858  22.455  0.00  0.00    +0.013 C 
ENDBRANCH  39  46
ENDBRANCH  37  39
ENDBRANCH  34  35
BRANCH  34  50
ATOM     50  C   UNL     1       7.570   2.351  25.365  0.00  0.00    +0.060 C 
BRANCH  50  51
ATOM     51  C   UNL     1       7.084   3.165  26.548  0.00  0.00    -0.046 A 
ATOM     52  C   UNL     1       7.398   4.536  26.599  0.00  0.00    +0.004 A 
ATOM     53  C   UNL     1       6.836   5.372  27.566  0.00  0.00    +0.000 A 
ATOM     54  C   UNL     1       5.969   4.847  28.517  0.00  0.00    +0.000 A 
ATOM     55  C   UNL     1       5.743   3.475  28.553  0.00  0.00    +0.000 A 
ATOM     56  C   UNL     1       6.328   2.637  27.597  0.00  0.00    +0.004 A 
ENDBRANCH  50  51
ENDBRANCH  34  50
ENDBRANCH  31  34
ENDBRANCH  30  31
ENDBRANCH   1  30
TORSDOF 19
ENDMDL
