MODEL 1
REMARK VINA RESULT:      -6.0      0.000      0.000
REMARK  Name = 
REMARK  11 active torsions:
REMARK  status: ('A' for Active; 'I' for Inactive)
REMARK    1  A    between atoms: C_1  and  C_2
REMARK    2  A    between atoms: N_4  and  C_5
REMARK    3  A    between atoms: C_7  and  N_26
REMARK    4  A    between atoms: C_10  and  C_23
REMARK    5  A    between atoms: C_13  and  C_15
REMARK    6  A    between atoms: C_15  and  C_17
REMARK    7  A    between atoms: C_15  and  O_22
REMARK    8  A    between atoms: C_17  and  C_19
REMARK    9  A    between atoms: C_17  and  O_21
REMARK   10  A    between atoms: C_19  and  O_20
REMARK   11  A    between atoms: C_23  and  O_25
REMARK                            x       y       z     vdW  Elec       q    Type
REMARK                         _______ _______ _______ _____ _____    ______ ____
ROOT
ATOM      1  C   UNL     1       8.463  -2.515  23.847  0.00  0.00    +0.145 C 
ATOM      2  C   UNL     1       8.287  -3.844  24.637  0.00  0.00    +0.174 C 
ATOM      3  O   UNL     1       7.613  -4.821  23.796  0.00  0.00    -0.357 OA
ATOM      4  C   UNL     1       6.308  -4.400  23.338  0.00  0.00    +0.230 C 
ATOM      5  C   UNL     1       6.389  -3.094  22.556  0.00  0.00    +0.089 C 
ATOM      6  C   UNL     1       7.072  -2.018  23.395  0.00  0.00    +0.214 C 
ENDROOT
BRANCH   6   7
ATOM      7  N   UNL     1       7.243  -0.793  22.604  0.00  0.00    -0.108 NA
ATOM      8  C   UNL     1       6.693   0.297  22.976  0.00  0.00    +0.377 C 
ATOM      9  N   UNL     1       6.853   1.417  22.243  0.00  0.00    -0.289 N 
ATOM     10  H   UNL     1       6.002   1.960  22.161  0.00  0.00    +0.255 HD
ATOM     11  H   UNL     1       7.223   1.195  21.325  0.00  0.00    +0.255 HD
ATOM     12  N   UNL     1       5.916   0.567  24.049  0.00  0.00    -0.289 N 
ATOM     13  H   UNL     1       6.074   1.492  24.436  0.00  0.00    +0.255 HD
ATOM     14  H   UNL     1       5.873  -0.131  24.777  0.00  0.00    +0.255 HD
ENDBRANCH   6   7
BRANCH   1  17
ATOM     15  C   UNL     1      10.680   0.415  24.819  0.00  0.00    +0.109 C 
ATOM     16  C   UNL     1      10.172  -0.713  23.960  0.00  0.00    +0.210 C 
ATOM     17  N   UNL     1       9.167  -1.444  24.565  0.00  0.00    -0.307 N 
ATOM     18  H   UNL     1       8.550  -0.899  25.167  0.00  0.00    +0.149 HD
ATOM     19  O   UNL     1      10.642  -0.981  22.862  0.00  0.00    -0.276 OA
ENDBRANCH   1  17
BRANCH   4  20
ATOM     20  C   UNL     1       5.710  -5.499  22.454  0.00  0.00    +0.334 C 
ATOM     21  O   UNL     1       5.675  -5.463  21.233  0.00  0.00    -0.248 OA
BRANCH  20  22
ATOM     22  O   UNL     1       5.213  -6.530  23.180  0.00  0.00    -0.479 OA
ATOM     23  H   UNL     1       4.300  -6.303  23.467  0.00  0.00    +0.295 HD
ENDBRANCH  20  22
ENDBRANCH   4  20
BRANCH   2  24
ATOM     24  C   UNL     1       7.594  -3.701  26.033  0.00  0.00    +0.176 C 
BRANCH  24  25
ATOM     25  O   UNL     1       8.049  -2.565  26.766  0.00  0.00    -0.387 OA
ATOM     26  H   UNL     1       8.424  -1.924  26.134  0.00  0.00    +0.210 HD
ENDBRANCH  24  25
BRANCH  24  27
ATOM     27  C   UNL     1       7.804  -4.961  26.902  0.00  0.00    +0.171 C 
BRANCH  27  28
ATOM     28  O   UNL     1       8.604  -5.948  26.233  0.00  0.00    -0.387 OA
ATOM     29  H   UNL     1       9.007  -6.498  26.930  0.00  0.00    +0.210 HD
ENDBRANCH  27  28
BRANCH  27  30
ATOM     30  C   UNL     1       6.471  -5.634  27.257  0.00  0.00    +0.189 C 
BRANCH  30  31
ATOM     31  O   UNL     1       5.983  -6.344  26.116  0.00  0.00    -0.392 OA
ATOM     32  H   UNL     1       6.067  -7.289  26.348  0.00  0.00    +0.210 HD
ENDBRANCH  30  31
ENDBRANCH  27  30
ENDBRANCH  24  27
ENDBRANCH   2  24
TORSDOF 10
ENDMDL
MODEL 2
REMARK VINA RESULT:      -5.9      2.937      6.286
REMARK  Name = 
REMARK  11 active torsions:
REMARK  status: ('A' for Active; 'I' for Inactive)
REMARK    1  A    between atoms: C_1  and  C_2
REMARK    2  A    between atoms: N_4  and  C_5
REMARK    3  A    between atoms: C_7  and  N_26
REMARK    4  A    between atoms: C_10  and  C_23
REMARK    5  A    between atoms: C_13  and  C_15
REMARK    6  A    between atoms: C_15  and  C_17
REMARK    7  A    between atoms: C_15  and  O_22
REMARK    8  A    between atoms: C_17  and  C_19
REMARK    9  A    between atoms: C_17  and  O_21
REMARK   10  A    between atoms: C_19  and  O_20
REMARK   11  A    between atoms: C_23  and  O_25
REMARK                            x       y       z     vdW  Elec       q    Type
REMARK                         _______ _______ _______ _____ _____    ______ ____
ROOT
ATOM      1  C   UNL     1       7.464  -2.527  23.317  0.00  0.00    +0.145 C 
ATOM      2  C   UNL     1       7.000  -1.043  23.335  0.00  0.00    +0.174 C 
ATOM      3  O   UNL     1       8.133  -0.179  23.044  0.00  0.00    -0.357 OA
ATOM      4  C   UNL     1       9.229  -0.313  23.977  0.00  0.00    +0.230 C 
ATOM      5  C   UNL     1       9.742  -1.748  24.028  0.00  0.00    +0.089 C 
ATOM      6  C   UNL     1       8.599  -2.706  24.349  0.00  0.00    +0.214 C 
ENDROOT
BRANCH   6   7
ATOM      7  N   UNL     1       9.074  -4.095  24.294  0.00  0.00    -0.108 NA
ATOM      8  C   UNL     1       9.255  -4.757  25.369  0.00  0.00    +0.377 C 
ATOM      9  N   UNL     1       9.693  -6.030  25.310  0.00  0.00    -0.289 N 
ATOM     10  H   UNL     1      10.384  -6.244  26.019  0.00  0.00    +0.255 HD
ATOM     11  H   UNL     1      10.054  -6.244  24.386  0.00  0.00    +0.255 HD
ATOM     12  N   UNL     1       9.083  -4.399  26.661  0.00  0.00    -0.289 N 
ATOM     13  H   UNL     1       8.737  -5.155  27.244  0.00  0.00    +0.255 HD
ATOM     14  H   UNL     1       8.581  -3.542  26.841  0.00  0.00    +0.255 HD
ENDBRANCH   6   7
BRANCH   1  17
ATOM     15  C   UNL     1       4.653  -5.062  22.964  0.00  0.00    +0.109 C 
ATOM     16  C   UNL     1       5.585  -3.958  22.539  0.00  0.00    +0.210 C 
ATOM     17  N   UNL     1       6.409  -3.520  23.560  0.00  0.00    -0.307 N 
ATOM     18  H   UNL     1       6.691  -4.247  24.217  0.00  0.00    +0.149 HD
ATOM     19  O   UNL     1       5.573  -3.468  21.417  0.00  0.00    -0.276 OA
ENDBRANCH   1  17
BRANCH   4  20
ATOM     20  C   UNL     1      10.361   0.630  23.559  0.00  0.00    +0.334 C 
ATOM     21  O   UNL     1      11.307   0.935  24.270  0.00  0.00    -0.248 OA
BRANCH  20  22
ATOM     22  O   UNL     1      10.198   1.103  22.299  0.00  0.00    -0.479 OA
ATOM     23  H   UNL     1       9.282   0.901  22.002  0.00  0.00    +0.295 HD
ENDBRANCH  20  22
ENDBRANCH   4  20
BRANCH   2  24
ATOM     24  C   UNL     1       6.246  -0.597  24.632  0.00  0.00    +0.176 C 
BRANCH  24  25
ATOM     25  O   UNL     1       5.134  -1.435  24.944  0.00  0.00    -0.387 OA
ATOM     26  H   UNL     1       4.423  -1.250  24.303  0.00  0.00    +0.210 HD
ENDBRANCH  24  25
BRANCH  24  27
ATOM     27  C   UNL     1       5.747   0.861  24.525  0.00  0.00    +0.171 C 
BRANCH  27  28
ATOM     28  O   UNL     1       5.801   1.350  23.176  0.00  0.00    -0.387 OA
ATOM     29  H   UNL     1       6.012   0.583  22.611  0.00  0.00    +0.210 HD
ENDBRANCH  27  28
BRANCH  27  30
ATOM     30  C   UNL     1       6.594   1.814  25.379  0.00  0.00    +0.189 C 
BRANCH  30  31
ATOM     31  O   UNL     1       7.480   2.548  24.529  0.00  0.00    -0.392 OA
ATOM     32  H   UNL     1       7.068   2.518  23.644  0.00  0.00    +0.210 HD
ENDBRANCH  30  31
ENDBRANCH  27  30
ENDBRANCH  24  27
ENDBRANCH   2  24
TORSDOF 10
ENDMDL
MODEL 3
REMARK VINA RESULT:      -5.9      2.702      4.845
REMARK  Name = 
REMARK  11 active torsions:
REMARK  status: ('A' for Active; 'I' for Inactive)
REMARK    1  A    between atoms: C_1  and  C_2
REMARK    2  A    between atoms: N_4  and  C_5
REMARK    3  A    between atoms: C_7  and  N_26
REMARK    4  A    between atoms: C_10  and  C_23
REMARK    5  A    between atoms: C_13  and  C_15
REMARK    6  A    between atoms: C_15  and  C_17
REMARK    7  A    between atoms: C_15  and  O_22
REMARK    8  A    between atoms: C_17  and  C_19
REMARK    9  A    between atoms: C_17  and  O_21
REMARK   10  A    between atoms: C_19  and  O_20
REMARK   11  A    between atoms: C_23  and  O_25
REMARK                            x       y       z     vdW  Elec       q    Type
REMARK                         _______ _______ _______ _____ _____    ______ ____
ROOT
ATOM      1  C   UNL     1       6.627  -2.769  24.535  0.00  0.00    +0.145 C 
ATOM      2  C   UNL     1       7.289  -2.543  23.145  0.00  0.00    +0.174 C 
ATOM      3  O   UNL     1       6.765  -3.513  22.197  0.00  0.00    -0.357 OA
ATOM      4  C   UNL     1       6.993  -4.889  22.578  0.00  0.00    +0.230 C 
ATOM      5  C   UNL     1       6.381  -5.196  23.941  0.00  0.00    +0.089 C 
ATOM      6  C   UNL     1       6.907  -4.219  24.988  0.00  0.00    +0.214 C 
ENDROOT
BRANCH   6   7
ATOM      7  N   UNL     1       6.238  -4.449  26.275  0.00  0.00    -0.108 NA
ATOM      8  C   UNL     1       6.786  -5.182  27.164  0.00  0.00    +0.377 C 
ATOM      9  N   UNL     1       6.165  -5.390  28.342  0.00  0.00    -0.289 N 
ATOM     10  H   UNL     1       6.240  -6.347  28.665  0.00  0.00    +0.255 HD
ATOM     11  H   UNL     1       5.191  -5.108  28.289  0.00  0.00    +0.255 HD
ATOM     12  N   UNL     1       7.963  -5.846  27.152  0.00  0.00    -0.289 N 
ATOM     13  H   UNL     1       8.428  -5.857  28.055  0.00  0.00    +0.255 HD
ATOM     14  H   UNL     1       8.612  -5.625  26.411  0.00  0.00    +0.255 HD
ENDBRANCH   6   7
BRANCH   1  17
ATOM     15  C   UNL     1       6.786   0.024  27.109  0.00  0.00    +0.109 C 
ATOM     16  C   UNL     1       6.252  -0.744  25.929  0.00  0.00    +0.210 C 
ATOM     17  N   UNL     1       7.038  -1.830  25.588  0.00  0.00    -0.307 N 
ATOM     18  H   UNL     1       7.488  -2.291  26.378  0.00  0.00    +0.149 HD
ATOM     19  O   UNL     1       5.253  -0.405  25.307  0.00  0.00    -0.276 OA
ENDBRANCH   1  17
BRANCH   4  20
ATOM     20  C   UNL     1       6.386  -5.810  21.516  0.00  0.00    +0.334 C 
ATOM     21  O   UNL     1       5.972  -5.434  20.429  0.00  0.00    -0.248 OA
BRANCH  20  22
ATOM     22  O   UNL     1       6.350  -7.104  21.915  0.00  0.00    -0.479 OA
ATOM     23  H   UNL     1       5.818  -7.166  22.740  0.00  0.00    +0.295 HD
ENDBRANCH  20  22
ENDBRANCH   4  20
BRANCH   2  24
ATOM     24  C   UNL     1       8.854  -2.518  23.148  0.00  0.00    +0.176 C 
BRANCH  24  25
ATOM     25  O   UNL     1       9.409  -2.664  24.454  0.00  0.00    -0.387 OA
ATOM     26  H   UNL     1      10.326  -2.984  24.362  0.00  0.00    +0.210 HD
ENDBRANCH  24  25
BRANCH  24  27
ATOM     27  C   UNL     1       9.401  -1.215  22.525  0.00  0.00    +0.171 C 
BRANCH  27  28
ATOM     28  O   UNL     1      10.311  -1.477  21.445  0.00  0.00    -0.387 OA
ATOM     29  H   UNL     1      10.437  -2.444  21.416  0.00  0.00    +0.210 HD
ENDBRANCH  27  28
BRANCH  27  30
ATOM     30  C   UNL     1      10.164  -0.371  23.555  0.00  0.00    +0.189 C 
BRANCH  30  31
ATOM     31  O   UNL     1       9.241   0.149  24.515  0.00  0.00    -0.392 OA
ATOM     32  H   UNL     1       9.116  -0.570  25.164  0.00  0.00    +0.210 HD
ENDBRANCH  30  31
ENDBRANCH  27  30
ENDBRANCH  24  27
ENDBRANCH   2  24
TORSDOF 10
ENDMDL
MODEL 4
REMARK VINA RESULT:      -5.8      3.621      6.294
REMARK  Name = 
REMARK  11 active torsions:
REMARK  status: ('A' for Active; 'I' for Inactive)
REMARK    1  A    between atoms: C_1  and  C_2
REMARK    2  A    between atoms: N_4  and  C_5
REMARK    3  A    between atoms: C_7  and  N_26
REMARK    4  A    between atoms: C_10  and  C_23
REMARK    5  A    between atoms: C_13  and  C_15
REMARK    6  A    between atoms: C_15  and  C_17
REMARK    7  A    between atoms: C_15  and  O_22
REMARK    8  A    between atoms: C_17  and  C_19
REMARK    9  A    between atoms: C_17  and  O_21
REMARK   10  A    between atoms: C_19  and  O_20
REMARK   11  A    between atoms: C_23  and  O_25
REMARK                            x       y       z     vdW  Elec       q    Type
REMARK                         _______ _______ _______ _____ _____    ______ ____
ROOT
ATOM      1  C   UNL     1       5.411  -4.709  24.827  0.00  0.00    +0.145 C 
ATOM      2  C   UNL     1       5.944  -3.391  24.194  0.00  0.00    +0.174 C 
ATOM      3  O   UNL     1       7.359  -3.537  23.893  0.00  0.00    -0.357 OA
ATOM      4  C   UNL     1       8.177  -3.838  25.047  0.00  0.00    +0.230 C 
ATOM      5  C   UNL     1       7.716  -5.117  25.736  0.00  0.00    +0.089 C 
ATOM      6  C   UNL     1       6.236  -5.020  26.096  0.00  0.00    +0.214 C 
ENDROOT
BRANCH   6   7
ATOM      7  N   UNL     1       5.769  -6.291  26.663  0.00  0.00    -0.108 NA
ATOM      8  C   UNL     1       5.590  -6.408  27.920  0.00  0.00    +0.377 C 
ATOM      9  N   UNL     1       5.163  -7.579  28.434  0.00  0.00    -0.289 N 
ATOM     10  H   UNL     1       5.633  -7.827  29.296  0.00  0.00    +0.255 HD
ATOM     11  H   UNL     1       5.254  -8.325  27.752  0.00  0.00    +0.255 HD
ATOM     12  N   UNL     1       5.762  -5.514  28.920  0.00  0.00    -0.289 N 
ATOM     13  H   UNL     1       5.072  -5.602  29.660  0.00  0.00    +0.255 HD
ATOM     14  H   UNL     1       5.895  -4.548  28.658  0.00  0.00    +0.255 HD
ENDBRANCH   6   7
BRANCH   1  17
ATOM     15  C   UNL     1       1.626  -5.046  24.731  0.00  0.00    +0.109 C 
ATOM     16  C   UNL     1       3.023  -4.957  24.177  0.00  0.00    +0.210 C 
ATOM     17  N   UNL     1       3.978  -4.719  25.149  0.00  0.00    -0.307 N 
ATOM     18  H   UNL     1       3.777  -5.145  26.053  0.00  0.00    +0.149 HD
ATOM     19  O   UNL     1       3.276  -5.038  22.982  0.00  0.00    -0.276 OA
ENDBRANCH   1  17
BRANCH   4  20
ATOM     20  C   UNL     1       9.635  -3.983  24.603  0.00  0.00    +0.334 C 
ATOM     21  O   UNL     1      10.248  -3.147  23.954  0.00  0.00    -0.248 OA
BRANCH  20  22
ATOM     22  O   UNL     1      10.183  -5.155  25.006  0.00  0.00    -0.479 OA
ATOM     23  H   UNL     1      11.055  -4.970  25.421  0.00  0.00    +0.295 HD
ENDBRANCH  20  22
ENDBRANCH   4  20
BRANCH   2  24
ATOM     24  C   UNL     1       5.654  -2.093  25.018  0.00  0.00    +0.176 C 
BRANCH  24  25
ATOM     25  O   UNL     1       4.279  -1.954  25.372  0.00  0.00    -0.387 OA
ATOM     26  H   UNL     1       4.228  -1.769  26.328  0.00  0.00    +0.210 HD
ENDBRANCH  24  25
BRANCH  24  27
ATOM     27  C   UNL     1       6.094  -0.826  24.252  0.00  0.00    +0.171 C 
BRANCH  27  28
ATOM     28  O   UNL     1       6.308  -1.088  22.857  0.00  0.00    -0.387 OA
ATOM     29  H   UNL     1       5.702  -0.500  22.368  0.00  0.00    +0.210 HD
ENDBRANCH  27  28
BRANCH  27  30
ATOM     30  C   UNL     1       7.408  -0.256  24.805  0.00  0.00    +0.189 C 
BRANCH  30  31
ATOM     31  O   UNL     1       8.483  -0.624  23.937  0.00  0.00    -0.392 OA
ATOM     32  H   UNL     1       8.355  -0.089  23.130  0.00  0.00    +0.210 HD
ENDBRANCH  30  31
ENDBRANCH  27  30
ENDBRANCH  24  27
ENDBRANCH   2  24
TORSDOF 10
ENDMDL
MODEL 5
REMARK VINA RESULT:      -5.6      2.234      4.658
REMARK  Name = 
REMARK  11 active torsions:
REMARK  status: ('A' for Active; 'I' for Inactive)
REMARK    1  A    between atoms: C_1  and  C_2
REMARK    2  A    between atoms: N_4  and  C_5
REMARK    3  A    between atoms: C_7  and  N_26
REMARK    4  A    between atoms: C_10  and  C_23
REMARK    5  A    between atoms: C_13  and  C_15
REMARK    6  A    between atoms: C_15  and  C_17
REMARK    7  A    between atoms: C_15  and  O_22
REMARK    8  A    between atoms: C_17  and  C_19
REMARK    9  A    between atoms: C_17  and  O_21
REMARK   10  A    between atoms: C_19  and  O_20
REMARK   11  A    between atoms: C_23  and  O_25
REMARK                            x       y       z     vdW  Elec       q    Type
REMARK                         _______ _______ _______ _____ _____    ______ ____
ROOT
ATOM      1  C   UNL     1       6.615  -2.964  24.008  0.00  0.00    +0.145 C 
ATOM      2  C   UNL     1       6.274  -3.449  25.446  0.00  0.00    +0.174 C 
ATOM      3  O   UNL     1       6.034  -2.298  26.301  0.00  0.00    -0.357 OA
ATOM      4  C   UNL     1       7.156  -1.390  26.393  0.00  0.00    +0.230 C 
ATOM      5  C   UNL     1       7.563  -0.870  25.019  0.00  0.00    +0.089 C 
ATOM      6  C   UNL     1       7.848  -2.036  24.076  0.00  0.00    +0.214 C 
ENDROOT
BRANCH   6   7
ATOM      7  N   UNL     1       8.137  -1.535  22.727  0.00  0.00    -0.108 NA
ATOM      8  C   UNL     1       9.340  -1.474  22.306  0.00  0.00    +0.377 C 
ATOM      9  N   UNL     1       9.598  -1.011  21.066  0.00  0.00    -0.289 N 
ATOM     10  H   UNL     1      10.411  -0.408  21.031  0.00  0.00    +0.255 HD
ATOM     11  H   UNL     1       8.786  -0.536  20.684  0.00  0.00    +0.255 HD
ATOM     12  N   UNL     1      10.501  -1.809  22.912  0.00  0.00    -0.289 N 
ATOM     13  H   UNL     1      11.184  -2.210  22.277  0.00  0.00    +0.255 HD
ATOM     14  H   UNL     1      10.439  -2.343  23.766  0.00  0.00    +0.255 HD
ENDBRANCH   6   7
BRANCH   1  17
ATOM     15  C   UNL     1       6.283  -5.513  21.208  0.00  0.00    +0.109 C 
ATOM     16  C   UNL     1       5.818  -4.516  22.236  0.00  0.00    +0.210 C 
ATOM     17  N   UNL     1       6.846  -4.028  23.022  0.00  0.00    -0.307 N 
ATOM     18  H   UNL     1       7.739  -3.935  22.539  0.00  0.00    +0.149 HD
ATOM     19  O   UNL     1       4.642  -4.213  22.390  0.00  0.00    -0.276 OA
ENDBRANCH   1  17
BRANCH   4  20
ATOM     20  C   UNL     1       6.777  -0.218  27.303  0.00  0.00    +0.334 C 
ATOM     21  O   UNL     1       5.722  -0.128  27.914  0.00  0.00    -0.248 OA
BRANCH  20  22
ATOM     22  O   UNL     1       7.748   0.726  27.356  0.00  0.00    -0.479 OA
ATOM     23  H   UNL     1       8.486   0.390  27.911  0.00  0.00    +0.295 HD
ENDBRANCH  20  22
ENDBRANCH   4  20
BRANCH   2  24
ATOM     24  C   UNL     1       7.310  -4.438  26.078  0.00  0.00    +0.176 C 
BRANCH  24  25
ATOM     25  O   UNL     1       7.868  -5.342  25.125  0.00  0.00    -0.387 OA
ATOM     26  H   UNL     1       7.326  -6.153  25.121  0.00  0.00    +0.210 HD
ENDBRANCH  24  25
BRANCH  24  27
ATOM     27  C   UNL     1       6.683  -5.260  27.225  0.00  0.00    +0.171 C 
BRANCH  27  28
ATOM     28  O   UNL     1       7.635  -6.144  27.835  0.00  0.00    -0.387 OA
ATOM     29  H   UNL     1       8.317  -6.325  27.162  0.00  0.00    +0.210 HD
ENDBRANCH  27  28
BRANCH  27  30
ATOM     30  C   UNL     1       5.519  -6.130  26.730  0.00  0.00    +0.189 C 
BRANCH  30  31
ATOM     31  O   UNL     1       5.341  -7.232  27.623  0.00  0.00    -0.392 OA
ATOM     32  H   UNL     1       5.173  -8.003  27.048  0.00  0.00    +0.210 HD
ENDBRANCH  30  31
ENDBRANCH  27  30
ENDBRANCH  24  27
ENDBRANCH   2  24
TORSDOF 10
ENDMDL
MODEL 6
REMARK VINA RESULT:      -5.4      2.094      4.966
REMARK  Name = 
REMARK  11 active torsions:
REMARK  status: ('A' for Active; 'I' for Inactive)
REMARK    1  A    between atoms: C_1  and  C_2
REMARK    2  A    between atoms: N_4  and  C_5
REMARK    3  A    between atoms: C_7  and  N_26
REMARK    4  A    between atoms: C_10  and  C_23
REMARK    5  A    between atoms: C_13  and  C_15
REMARK    6  A    between atoms: C_15  and  C_17
REMARK    7  A    between atoms: C_15  and  O_22
REMARK    8  A    between atoms: C_17  and  C_19
REMARK    9  A    between atoms: C_17  and  O_21
REMARK   10  A    between atoms: C_19  and  O_20
REMARK   11  A    between atoms: C_23  and  O_25
REMARK                            x       y       z     vdW  Elec       q    Type
REMARK                         _______ _______ _______ _____ _____    ______ ____
ROOT
ATOM      1  C   UNL     1       8.113  -2.992  25.518  0.00  0.00    +0.145 C 
ATOM      2  C   UNL     1       8.007  -3.516  24.057  0.00  0.00    +0.174 C 
ATOM      3  O   UNL     1       8.972  -2.819  23.222  0.00  0.00    -0.357 OA
ATOM      4  C   UNL     1       8.795  -1.384  23.193  0.00  0.00    +0.230 C 
ATOM      5  C   UNL     1       8.877  -0.787  24.594  0.00  0.00    +0.089 C 
ATOM      6  C   UNL     1       7.871  -1.466  25.518  0.00  0.00    +0.214 C 
ENDROOT
BRANCH   6   7
ATOM      7  N   UNL     1       8.024  -0.963  26.889  0.00  0.00    -0.108 NA
ATOM      8  C   UNL     1       7.502   0.150  27.229  0.00  0.00    +0.377 C 
ATOM      9  N   UNL     1       7.649   0.606  28.489  0.00  0.00    -0.289 N 
ATOM     10  H   UNL     1       7.829   1.602  28.530  0.00  0.00    +0.255 HD
ATOM     11  H   UNL     1       8.378   0.092  28.974  0.00  0.00    +0.255 HD
ATOM     12  N   UNL     1       6.774   1.034  26.511  0.00  0.00    -0.289 N 
ATOM     13  H   UNL     1       6.040   1.482  27.052  0.00  0.00    +0.255 HD
ATOM     14  H   UNL     1       6.431   0.730  25.612  0.00  0.00    +0.255 HD
ENDBRANCH   6   7
BRANCH   1  17
ATOM     15  C   UNL     1       6.473  -5.376  27.983  0.00  0.00    +0.109 C 
ATOM     16  C   UNL     1       7.425  -4.941  26.902  0.00  0.00    +0.210 C 
ATOM     17  N   UNL     1       7.216  -3.639  26.486  0.00  0.00    -0.307 N 
ATOM     18  H   UNL     1       6.902  -3.005  27.221  0.00  0.00    +0.149 HD
ATOM     19  O   UNL     1       8.263  -5.686  26.409  0.00  0.00    -0.276 OA
ENDBRANCH   1  17
BRANCH   4  20
ATOM     20  C   UNL     1       9.874  -0.765  22.299  0.00  0.00    +0.334 C 
ATOM     21  O   UNL     1      10.152   0.425  22.273  0.00  0.00    -0.248 OA
BRANCH  20  22
ATOM     22  O   UNL     1      10.493  -1.689  21.525  0.00  0.00    -0.479 OA
ATOM     23  H   UNL     1      10.022  -1.747  20.664  0.00  0.00    +0.295 HD
ENDBRANCH  20  22
ENDBRANCH   4  20
BRANCH   2  24
ATOM     24  C   UNL     1       6.569  -3.480  23.440  0.00  0.00    +0.176 C 
BRANCH  24  25
ATOM     25  O   UNL     1       5.620  -4.228  24.198  0.00  0.00    -0.387 OA
ATOM     26  H   UNL     1       4.978  -3.604  24.584  0.00  0.00    +0.210 HD
ENDBRANCH  24  25
BRANCH  24  27
ATOM     27  C   UNL     1       6.562  -4.007  21.988  0.00  0.00    +0.171 C 
BRANCH  27  28
ATOM     28  O   UNL     1       5.432  -3.522  21.246  0.00  0.00    -0.387 OA
ATOM     29  H   UNL     1       5.366  -2.567  21.433  0.00  0.00    +0.210 HD
ENDBRANCH  27  28
BRANCH  27  30
ATOM     30  C   UNL     1       6.502  -5.539  21.941  0.00  0.00    +0.189 C 
BRANCH  30  31
ATOM     31  O   UNL     1       5.139  -5.954  21.815  0.00  0.00    -0.392 OA
ATOM     32  H   UNL     1       4.614  -5.134  21.893  0.00  0.00    +0.210 HD
ENDBRANCH  30  31
ENDBRANCH  27  30
ENDBRANCH  24  27
ENDBRANCH   2  24
TORSDOF 10
ENDMDL
MODEL 7
REMARK VINA RESULT:      -5.4      1.832      4.325
REMARK  Name = 
REMARK  11 active torsions:
REMARK  status: ('A' for Active; 'I' for Inactive)
REMARK    1  A    between atoms: C_1  and  C_2
REMARK    2  A    between atoms: N_4  and  C_5
REMARK    3  A    between atoms: C_7  and  N_26
REMARK    4  A    between atoms: C_10  and  C_23
REMARK    5  A    between atoms: C_13  and  C_15
REMARK    6  A    between atoms: C_15  and  C_17
REMARK    7  A    between atoms: C_15  and  O_22
REMARK    8  A    between atoms: C_17  and  C_19
REMARK    9  A    between atoms: C_17  and  O_21
REMARK   10  A    between atoms: C_19  and  O_20
REMARK   11  A    between atoms: C_23  and  O_25
REMARK                            x       y       z     vdW  Elec       q    Type
REMARK                         _______ _______ _______ _____ _____    ______ ____
ROOT
ATOM      1  C   UNL     1       7.088  -1.515  24.426  0.00  0.00    +0.145 C 
ATOM      2  C   UNL     1       6.358  -2.841  24.068  0.00  0.00    +0.174 C 
ATOM      3  O   UNL     1       6.312  -3.699  25.241  0.00  0.00    -0.357 OA
ATOM      4  C   UNL     1       7.612  -4.038  25.774  0.00  0.00    +0.230 C 
ATOM      5  C   UNL     1       8.403  -2.788  26.145  0.00  0.00    +0.089 C 
ATOM      6  C   UNL     1       8.504  -1.851  24.945  0.00  0.00    +0.214 C 
ENDROOT
BRANCH   6   7
ATOM      7  N   UNL     1       9.174  -0.603  25.333  0.00  0.00    -0.108 NA
ATOM      8  C   UNL     1      10.097  -0.113  24.602  0.00  0.00    +0.377 C 
ATOM      9  N   UNL     1      10.708   1.032  24.966  0.00  0.00    -0.289 N 
ATOM     10  H   UNL     1      11.709   1.013  24.809  0.00  0.00    +0.255 HD
ATOM     11  H   UNL     1      10.505   1.255  25.935  0.00  0.00    +0.255 HD
ATOM     12  N   UNL     1      10.625  -0.556  23.439  0.00  0.00    -0.289 N 
ATOM     13  H   UNL     1      10.875   0.193  22.801  0.00  0.00    +0.255 HD
ATOM     14  H   UNL     1      10.134  -1.296  22.960  0.00  0.00    +0.255 HD
ENDBRANCH   6   7
BRANCH   1  17
ATOM     15  C   UNL     1       6.906   1.620  22.284  0.00  0.00    +0.109 C 
ATOM     16  C   UNL     1       6.599   0.720  23.452  0.00  0.00    +0.210 C 
ATOM     17  N   UNL     1       7.177  -0.531  23.338  0.00  0.00    -0.307 N 
ATOM     18  H   UNL     1       8.082  -0.538  22.869  0.00  0.00    +0.149 HD
ATOM     19  O   UNL     1       5.871   1.051  24.378  0.00  0.00    -0.276 OA
ENDBRANCH   1  17
BRANCH   4  20
ATOM     20  C   UNL     1       7.432  -4.925  27.009  0.00  0.00    +0.334 C 
ATOM     21  O   UNL     1       6.666  -4.683  27.930  0.00  0.00    -0.248 OA
BRANCH  20  22
ATOM     22  O   UNL     1       8.226  -6.022  26.975  0.00  0.00    -0.479 OA
ATOM     23  H   UNL     1       7.725  -6.763  26.565  0.00  0.00    +0.295 HD
ENDBRANCH  20  22
ENDBRANCH   4  20
BRANCH   2  24
ATOM     24  C   UNL     1       6.922  -3.595  22.818  0.00  0.00    +0.176 C 
BRANCH  24  25
ATOM     25  O   UNL     1       7.576  -2.727  21.894  0.00  0.00    -0.387 OA
ATOM     26  H   UNL     1       8.457  -3.096  21.698  0.00  0.00    +0.210 HD
ENDBRANCH  24  25
BRANCH  24  27
ATOM     27  C   UNL     1       5.811  -4.362  22.069  0.00  0.00    +0.171 C 
BRANCH  27  28
ATOM     28  O   UNL     1       4.535  -4.225  22.714  0.00  0.00    -0.387 OA
ATOM     29  H   UNL     1       4.159  -3.378  22.409  0.00  0.00    +0.210 HD
ENDBRANCH  27  28
BRANCH  27  30
ATOM     30  C   UNL     1       6.112  -5.865  21.991  0.00  0.00    +0.189 C 
BRANCH  30  31
ATOM     31  O   UNL     1       5.256  -6.467  21.017  0.00  0.00    -0.392 OA
ATOM     32  H   UNL     1       4.450  -5.916  21.008  0.00  0.00    +0.210 HD
ENDBRANCH  30  31
ENDBRANCH  27  30
ENDBRANCH  24  27
ENDBRANCH   2  24
TORSDOF 10
ENDMDL
MODEL 8
REMARK VINA RESULT:      -5.1      3.257      6.962
REMARK  Name = 
REMARK  11 active torsions:
REMARK  status: ('A' for Active; 'I' for Inactive)
REMARK    1  A    between atoms: C_1  and  C_2
REMARK    2  A    between atoms: N_4  and  C_5
REMARK    3  A    between atoms: C_7  and  N_26
REMARK    4  A    between atoms: C_10  and  C_23
REMARK    5  A    between atoms: C_13  and  C_15
REMARK    6  A    between atoms: C_15  and  C_17
REMARK    7  A    between atoms: C_15  and  O_22
REMARK    8  A    between atoms: C_17  and  C_19
REMARK    9  A    between atoms: C_17  and  O_21
REMARK   10  A    between atoms: C_19  and  O_20
REMARK   11  A    between atoms: C_23  and  O_25
REMARK                            x       y       z     vdW  Elec       q    Type
REMARK                         _______ _______ _______ _____ _____    ______ ____
ROOT
ATOM      1  C   UNL     1       7.333  -0.514  23.060  0.00  0.00    +0.145 C 
ATOM      2  C   UNL     1       6.957   0.946  22.676  0.00  0.00    +0.174 C 
ATOM      3  O   UNL     1       8.162   1.679  22.323  0.00  0.00    -0.357 OA
ATOM      4  C   UNL     1       9.146   1.737  23.381  0.00  0.00    +0.230 C 
ATOM      5  C   UNL     1       9.566   0.341  23.825  0.00  0.00    +0.089 C 
ATOM      6  C   UNL     1       8.342  -0.476  24.229  0.00  0.00    +0.214 C 
ENDROOT
BRANCH   6   7
ATOM      7  N   UNL     1       8.738  -1.852  24.556  0.00  0.00    -0.108 NA
ATOM      8  C   UNL     1       8.439  -2.356  25.689  0.00  0.00    +0.377 C 
ATOM      9  N   UNL     1       8.808  -3.619  25.983  0.00  0.00    -0.289 N 
ATOM     10  H   UNL     1       9.141  -3.723  26.933  0.00  0.00    +0.255 HD
ATOM     11  H   UNL     1       9.504  -3.952  25.323  0.00  0.00    +0.255 HD
ATOM     12  N   UNL     1       7.771  -1.826  26.738  0.00  0.00    -0.289 N 
ATOM     13  H   UNL     1       7.186  -2.500  27.223  0.00  0.00    +0.255 HD
ATOM     14  H   UNL     1       7.277  -0.960  26.582  0.00  0.00    +0.255 HD
ENDBRANCH   6   7
BRANCH   1  17
ATOM     15  C   UNL     1       4.902  -3.416  23.400  0.00  0.00    +0.109 C 
ATOM     16  C   UNL     1       6.050  -2.632  22.824  0.00  0.00    +0.210 C 
ATOM     17  N   UNL     1       6.202  -1.386  23.406  0.00  0.00    -0.307 N 
ATOM     18  H   UNL     1       5.961  -1.349  24.395  0.00  0.00    +0.149 HD
ATOM     19  O   UNL     1       6.742  -3.039  21.900  0.00  0.00    -0.276 OA
ENDBRANCH   1  17
BRANCH   4  20
ATOM     20  C   UNL     1      10.368   2.516  22.885  0.00  0.00    +0.334 C 
ATOM     21  O   UNL     1      11.119   3.156  23.606  0.00  0.00    -0.248 OA
BRANCH  20  22
ATOM     22  O   UNL     1      10.527   2.424  21.543  0.00  0.00    -0.479 OA
ATOM     23  H   UNL     1       9.872   3.012  21.106  0.00  0.00    +0.295 HD
ENDBRANCH  20  22
ENDBRANCH   4  20
BRANCH   2  24
ATOM     24  C   UNL     1       6.099   1.713  23.736  0.00  0.00    +0.176 C 
BRANCH  24  25
ATOM     25  O   UNL     1       5.105   0.891  24.347  0.00  0.00    -0.387 OA
ATOM     26  H   UNL     1       5.534   0.071  24.654  0.00  0.00    +0.210 HD
ENDBRANCH  24  25
BRANCH  24  27
ATOM     27  C   UNL     1       5.404   2.946  23.119  0.00  0.00    +0.171 C 
BRANCH  27  28
ATOM     28  O   UNL     1       6.060   3.388  21.920  0.00  0.00    -0.387 OA
ATOM     29  H   UNL     1       6.530   2.614  21.559  0.00  0.00    +0.210 HD
ENDBRANCH  27  28
BRANCH  27  30
ATOM     30  C   UNL     1       5.396   4.137  24.087  0.00  0.00    +0.189 C 
BRANCH  30  31
ATOM     31  O   UNL     1       4.833   3.725  25.336  0.00  0.00    -0.392 OA
ATOM     32  H   UNL     1       4.166   3.050  25.105  0.00  0.00    +0.210 HD
ENDBRANCH  30  31
ENDBRANCH  27  30
ENDBRANCH  24  27
ENDBRANCH   2  24
TORSDOF 10
ENDMDL
MODEL 9
REMARK VINA RESULT:      -5.0      3.852      6.177
REMARK  Name = 
REMARK  11 active torsions:
REMARK  status: ('A' for Active; 'I' for Inactive)
REMARK    1  A    between atoms: C_1  and  C_2
REMARK    2  A    between atoms: N_4  and  C_5
REMARK    3  A    between atoms: C_7  and  N_26
REMARK    4  A    between atoms: C_10  and  C_23
REMARK    5  A    between atoms: C_13  and  C_15
REMARK    6  A    between atoms: C_15  and  C_17
REMARK    7  A    between atoms: C_15  and  O_22
REMARK    8  A    between atoms: C_17  and  C_19
REMARK    9  A    between atoms: C_17  and  O_21
REMARK   10  A    between atoms: C_19  and  O_20
REMARK   11  A    between atoms: C_23  and  O_25
REMARK                            x       y       z     vdW  Elec       q    Type
REMARK                         _______ _______ _______ _____ _____    ______ ____
ROOT
ATOM      1  C   UNL     1       5.870  -6.124  24.429  0.00  0.00    +0.145 C 
ATOM      2  C   UNL     1       6.634  -5.025  25.220  0.00  0.00    +0.174 C 
ATOM      3  O   UNL     1       6.853  -5.476  26.585  0.00  0.00    -0.357 OA
ATOM      4  C   UNL     1       5.637  -5.778  27.307  0.00  0.00    +0.230 C 
ATOM      5  C   UNL     1       4.818  -6.847  26.591  0.00  0.00    +0.089 C 
ATOM      6  C   UNL     1       4.538  -6.423  25.152  0.00  0.00    +0.214 C 
ENDROOT
BRANCH   6   7
ATOM      7  N   UNL     1       3.841  -7.498  24.435  0.00  0.00    -0.108 NA
ATOM      8  C   UNL     1       2.625  -7.352  24.078  0.00  0.00    +0.377 C 
ATOM      9  N   UNL     1       1.992  -8.345  23.422  0.00  0.00    -0.289 N 
ATOM     10  H   UNL     1       1.038  -8.479  23.734  0.00  0.00    +0.255 HD
ATOM     11  H   UNL     1       2.515  -9.212  23.492  0.00  0.00    +0.255 HD
ATOM     12  N   UNL     1       1.779  -6.312  24.246  0.00  0.00    -0.289 N 
ATOM     13  H   UNL     1       1.151  -6.174  23.461  0.00  0.00    +0.255 HD
ATOM     14  H   UNL     1       2.177  -5.436  24.552  0.00  0.00    +0.255 HD
ENDBRANCH   6   7
BRANCH   1  17
ATOM     15  C   UNL     1       6.112  -5.686  20.660  0.00  0.00    +0.109 C 
ATOM     16  C   UNL     1       6.607  -5.924  22.062  0.00  0.00    +0.210 C 
ATOM     17  N   UNL     1       5.611  -5.818  23.015  0.00  0.00    -0.307 N 
ATOM     18  H   UNL     1       4.692  -6.130  22.703  0.00  0.00    +0.149 HD
ATOM     19  O   UNL     1       7.783  -6.137  22.329  0.00  0.00    -0.276 OA
ENDBRANCH   1  17
BRANCH   4  20
ATOM     20  C   UNL     1       5.997  -6.255  28.717  0.00  0.00    +0.334 C 
ATOM     21  O   UNL     1       6.273  -7.410  29.008  0.00  0.00    -0.248 OA
BRANCH  20  22
ATOM     22  O   UNL     1       5.971  -5.248  29.623  0.00  0.00    -0.479 OA
ATOM     23  H   UNL     1       6.809  -5.264  30.136  0.00  0.00    +0.295 HD
ENDBRANCH  20  22
ENDBRANCH   4  20
BRANCH   2  24
ATOM     24  C   UNL     1       5.987  -3.600  25.175  0.00  0.00    +0.176 C 
BRANCH  24  25
ATOM     25  O   UNL     1       4.910  -3.509  24.243  0.00  0.00    -0.387 OA
ATOM     26  H   UNL     1       5.229  -3.035  23.453  0.00  0.00    +0.210 HD
ENDBRANCH  24  25
BRANCH  24  27
ATOM     27  C   UNL     1       7.029  -2.515  24.828  0.00  0.00    +0.171 C 
BRANCH  27  28
ATOM     28  O   UNL     1       6.493  -1.518  23.944  0.00  0.00    -0.387 OA
ATOM     29  H   UNL     1       5.614  -1.837  23.666  0.00  0.00    +0.210 HD
ENDBRANCH  27  28
BRANCH  27  30
ATOM     30  C   UNL     1       8.260  -3.112  24.132  0.00  0.00    +0.189 C 
BRANCH  30  31
ATOM     31  O   UNL     1       8.102  -2.999  22.715  0.00  0.00    -0.392 OA
ATOM     32  H   UNL     1       8.992  -2.787  22.375  0.00  0.00    +0.210 HD
ENDBRANCH  30  31
ENDBRANCH  27  30
ENDBRANCH  24  27
ENDBRANCH   2  24
TORSDOF 10
ENDMDL
