MODEL 1
REMARK VINA RESULT:      -6.3      0.000      0.000
REMARK  Name = 
REMARK  10 active torsions:
REMARK  status: ('A' for Active; 'I' for Inactive)
REMARK    1  A    between atoms: C_1  and  C_2
REMARK    2  A    between atoms: C_2  and  O_3
REMARK    3  A    between atoms: O_3  and  C_4
REMARK    4  A    between atoms: C_4  and  C_6
REMARK    5  A    between atoms: C_7  and  C_22
REMARK    6  A    between atoms: C_9  and  C_17
REMARK    7  A    between atoms: C_10  and  C_11
REMARK    8  A    between atoms: C_17  and  O_19
REMARK    9  A    between atoms: O_19  and  C_20
REMARK   10  A    between atoms: C_20  and  C_21
REMARK                            x       y       z     vdW  Elec       q    Type
REMARK                         _______ _______ _______ _____ _____    ______ ____
ROOT
ATOM      1  C   UNL     1       7.771  -0.920  24.187  0.00  0.00    +0.093 A 
ATOM      2  C   UNL     1       7.354  -2.299  24.050  0.00  0.00    +0.028 A 
ATOM      3  C   UNL     1       6.360  -2.321  23.074  0.00  0.00    +0.133 A 
ATOM      4  N   UNL     1       6.111  -1.007  22.724  0.00  0.00    -0.348 N 
ATOM      5  H   UNL     1       5.416  -0.732  22.042  0.00  0.00    +0.166 HD
ATOM      6  C   UNL     1       6.942  -0.132  23.387  0.00  0.00    +0.062 A 
ENDROOT
BRANCH   2   7
ATOM      7  C   UNL     1       7.898  -3.463  24.772  0.00  0.00    -0.015 A 
ATOM      8  C   UNL     1       7.096  -4.126  25.718  0.00  0.00    +0.008 A 
ATOM      9  C   UNL     1       7.588  -5.193  26.475  0.00  0.00    +0.001 A 
ATOM     10  C   UNL     1       8.879  -5.659  26.258  0.00  0.00    +0.000 A 
ATOM     11  C   UNL     1       9.684  -5.036  25.308  0.00  0.00    +0.001 A 
ATOM     12  C   UNL     1       9.206  -3.928  24.593  0.00  0.00    +0.008 A 
ENDBRANCH   2   7
BRANCH   6  13
ATOM     13  C   UNL     1       6.904   1.328  23.194  0.00  0.00    -0.001 A 
ATOM     14  C   UNL     1       6.466   2.190  24.209  0.00  0.00    +0.010 A 
ATOM     15  C   UNL     1       6.589   3.580  24.069  0.00  0.00    +0.001 A 
ATOM     16  C   UNL     1       7.156   4.123  22.918  0.00  0.00    +0.000 A 
ATOM     17  C   UNL     1       7.554   3.282  21.884  0.00  0.00    +0.001 A 
ATOM     18  C   UNL     1       7.403   1.900  22.013  0.00  0.00    +0.010 A 
ENDBRANCH   6  13
BRANCH   1  19
ATOM     19  C   UNL     1       8.861  -0.416  25.018  0.00  0.00    +0.342 C 
ATOM     20  O   UNL     1       8.720  -0.053  26.183  0.00  0.00    -0.245 OA
BRANCH  19  21
ATOM     21  O   UNL     1      10.036  -0.360  24.335  0.00  0.00    -0.461 OA
BRANCH  21  23
ATOM     22  C   UNL     1      10.564   1.935  23.890  0.00  0.00    +0.048 C 
ATOM     23  C   UNL     1      10.921   0.705  24.699  0.00  0.00    +0.229 C 
ENDBRANCH  21  23
ENDBRANCH  19  21
ENDBRANCH   1  19
BRANCH   3  24
ATOM     24  C   UNL     1       5.664  -3.430  22.456  0.00  0.00    +0.356 C 
ATOM     25  O   UNL     1       4.588  -3.901  22.795  0.00  0.00    -0.243 OA
BRANCH  24  26
ATOM     26  O   UNL     1       6.475  -3.965  21.497  0.00  0.00    -0.460 OA
BRANCH  26  27
ATOM     27  C   UNL     1       6.319  -5.377  21.282  0.00  0.00    +0.229 C 
ATOM     28  C   UNL     1       7.286  -6.109  22.195  0.00  0.00    +0.048 C 
ENDBRANCH  26  27
ENDBRANCH  24  26
ENDBRANCH   3  24
TORSDOF 8
ENDMDL
MODEL 2
REMARK VINA RESULT:      -6.2      2.356      4.435
REMARK  Name = 
REMARK  10 active torsions:
REMARK  status: ('A' for Active; 'I' for Inactive)
REMARK    1  A    between atoms: C_1  and  C_2
REMARK    2  A    between atoms: C_2  and  O_3
REMARK    3  A    between atoms: O_3  and  C_4
REMARK    4  A    between atoms: C_4  and  C_6
REMARK    5  A    between atoms: C_7  and  C_22
REMARK    6  A    between atoms: C_9  and  C_17
REMARK    7  A    between atoms: C_10  and  C_11
REMARK    8  A    between atoms: C_17  and  O_19
REMARK    9  A    between atoms: O_19  and  C_20
REMARK   10  A    between atoms: C_20  and  C_21
REMARK                            x       y       z     vdW  Elec       q    Type
REMARK                         _______ _______ _______ _____ _____    ______ ____
ROOT
ATOM      1  C   UNL     1       8.714   0.986  23.241  0.00  0.00    +0.093 A 
ATOM      2  C   UNL     1       8.305  -0.170  24.010  0.00  0.00    +0.028 A 
ATOM      3  C   UNL     1       8.571   0.124  25.345  0.00  0.00    +0.133 A 
ATOM      4  N   UNL     1       9.214   1.347  25.368  0.00  0.00    -0.348 N 
ATOM      5  H   UNL     1       9.538   1.794  26.216  0.00  0.00    +0.166 HD
ATOM      6  C   UNL     1       9.325   1.892  24.109  0.00  0.00    +0.062 A 
ENDROOT
BRANCH   2   7
ATOM      7  C   UNL     1       7.691  -1.405  23.491  0.00  0.00    -0.015 A 
ATOM      8  C   UNL     1       6.294  -1.559  23.548  0.00  0.00    +0.008 A 
ATOM      9  C   UNL     1       5.669  -2.737  23.130  0.00  0.00    +0.001 A 
ATOM     10  C   UNL     1       6.428  -3.768  22.589  0.00  0.00    +0.000 A 
ATOM     11  C   UNL     1       7.810  -3.630  22.498  0.00  0.00    +0.001 A 
ATOM     12  C   UNL     1       8.438  -2.470  22.973  0.00  0.00    +0.008 A 
ENDBRANCH   2   7
BRANCH   6  13
ATOM     13  C   UNL     1       9.955   3.197  23.841  0.00  0.00    -0.001 A 
ATOM     14  C   UNL     1       9.292   4.401  24.113  0.00  0.00    +0.010 A 
ATOM     15  C   UNL     1       9.963   5.628  24.006  0.00  0.00    +0.001 A 
ATOM     16  C   UNL     1      11.305   5.664  23.632  0.00  0.00    +0.000 A 
ATOM     17  C   UNL     1      11.964   4.481  23.316  0.00  0.00    +0.001 A 
ATOM     18  C   UNL     1      11.285   3.263  23.394  0.00  0.00    +0.010 A 
ENDBRANCH   6  13
BRANCH   1  19
ATOM     19  C   UNL     1       8.537   1.186  21.805  0.00  0.00    +0.342 C 
ATOM     20  O   UNL     1       9.105   0.516  20.947  0.00  0.00    -0.245 OA
BRANCH  19  21
ATOM     21  O   UNL     1       7.702   2.226  21.537  0.00  0.00    -0.461 OA
BRANCH  21  23
ATOM     22  C   UNL     1       5.997   3.613  22.493  0.00  0.00    +0.048 C 
ATOM     23  C   UNL     1       6.430   2.192  22.194  0.00  0.00    +0.229 C 
ENDBRANCH  21  23
ENDBRANCH  19  21
ENDBRANCH   1  19
BRANCH   3  24
ATOM     24  C   UNL     1       8.270  -0.612  26.556  0.00  0.00    +0.356 C 
ATOM     25  O   UNL     1       7.732  -0.177  27.563  0.00  0.00    -0.243 OA
BRANCH  24  26
ATOM     26  O   UNL     1       8.811  -1.861  26.445  0.00  0.00    -0.460 OA
BRANCH  26  27
ATOM     27  C   UNL     1       7.894  -2.946  26.655  0.00  0.00    +0.229 C 
ATOM     28  C   UNL     1       8.627  -4.249  26.390  0.00  0.00    +0.048 C 
ENDBRANCH  26  27
ENDBRANCH  24  26
ENDBRANCH   3  24
TORSDOF 8
ENDMDL
MODEL 3
REMARK VINA RESULT:      -6.0      2.199      6.803
REMARK  Name = 
REMARK  10 active torsions:
REMARK  status: ('A' for Active; 'I' for Inactive)
REMARK    1  A    between atoms: C_1  and  C_2
REMARK    2  A    between atoms: C_2  and  O_3
REMARK    3  A    between atoms: O_3  and  C_4
REMARK    4  A    between atoms: C_4  and  C_6
REMARK    5  A    between atoms: C_7  and  C_22
REMARK    6  A    between atoms: C_9  and  C_17
REMARK    7  A    between atoms: C_10  and  C_11
REMARK    8  A    between atoms: C_17  and  O_19
REMARK    9  A    between atoms: O_19  and  C_20
REMARK   10  A    between atoms: C_20  and  C_21
REMARK                            x       y       z     vdW  Elec       q    Type
REMARK                         _______ _______ _______ _____ _____    ______ ____
ROOT
ATOM      1  C   UNL     1       6.932  -2.524  23.917  0.00  0.00    +0.093 A 
ATOM      2  C   UNL     1       7.040  -1.082  23.967  0.00  0.00    +0.028 A 
ATOM      3  C   UNL     1       5.976  -0.629  24.744  0.00  0.00    +0.133 A 
ATOM      4  N   UNL     1       5.202  -1.732  25.050  0.00  0.00    -0.348 N 
ATOM      5  H   UNL     1       4.351  -1.685  25.594  0.00  0.00    +0.166 HD
ATOM      6  C   UNL     1       5.748  -2.895  24.555  0.00  0.00    +0.062 A 
ENDROOT
BRANCH   2   7
ATOM      7  C   UNL     1       8.090  -0.251  23.351  0.00  0.00    -0.015 A 
ATOM      8  C   UNL     1       9.370  -0.212  23.933  0.00  0.00    +0.008 A 
ATOM      9  C   UNL     1      10.380   0.611  23.425  0.00  0.00    +0.001 A 
ATOM     10  C   UNL     1      10.147   1.369  22.284  0.00  0.00    +0.000 A 
ATOM     11  C   UNL     1       8.896   1.326  21.674  0.00  0.00    +0.001 A 
ATOM     12  C   UNL     1       7.868   0.545  22.222  0.00  0.00    +0.008 A 
ENDBRANCH   2   7
BRANCH   6  13
ATOM     13  C   UNL     1       5.139  -4.223  24.746  0.00  0.00    -0.001 A 
ATOM     14  C   UNL     1       4.113  -4.686  23.910  0.00  0.00    +0.010 A 
ATOM     15  C   UNL     1       3.659  -6.010  24.001  0.00  0.00    +0.001 A 
ATOM     16  C   UNL     1       4.228  -6.886  24.923  0.00  0.00    +0.000 A 
ATOM     17  C   UNL     1       5.215  -6.429  25.788  0.00  0.00    +0.001 A 
ATOM     18  C   UNL     1       5.645  -5.102  25.716  0.00  0.00    +0.010 A 
ENDBRANCH   6  13
BRANCH   1  19
ATOM     19  C   UNL     1       7.881  -3.449  23.303  0.00  0.00    +0.342 C 
ATOM     20  O   UNL     1       8.982  -3.713  23.778  0.00  0.00    -0.245 OA
BRANCH  19  21
ATOM     21  O   UNL     1       7.415  -3.947  22.126  0.00  0.00    -0.461 OA
BRANCH  21  23
ATOM     22  C   UNL     1       6.217  -5.719  21.043  0.00  0.00    +0.048 C 
ATOM     23  C   UNL     1       7.290  -5.372  22.056  0.00  0.00    +0.229 C 
ENDBRANCH  21  23
ENDBRANCH  19  21
ENDBRANCH   1  19
BRANCH   3  24
ATOM     24  C   UNL     1       5.648   0.700  25.218  0.00  0.00    +0.356 C 
ATOM     25  O   UNL     1       4.725   1.406  24.839  0.00  0.00    -0.243 OA
BRANCH  24  26
ATOM     26  O   UNL     1       6.629   1.104  26.078  0.00  0.00    -0.460 OA
BRANCH  26  27
ATOM     27  C   UNL     1       6.804   2.526  26.181  0.00  0.00    +0.229 C 
ATOM     28  C   UNL     1       7.999   2.922  25.332  0.00  0.00    +0.048 C 
ENDBRANCH  26  27
ENDBRANCH  24  26
ENDBRANCH   3  24
TORSDOF 8
ENDMDL
MODEL 4
REMARK VINA RESULT:      -6.0      2.031      3.459
REMARK  Name = 
REMARK  10 active torsions:
REMARK  status: ('A' for Active; 'I' for Inactive)
REMARK    1  A    between atoms: C_1  and  C_2
REMARK    2  A    between atoms: C_2  and  O_3
REMARK    3  A    between atoms: O_3  and  C_4
REMARK    4  A    between atoms: C_4  and  C_6
REMARK    5  A    between atoms: C_7  and  C_22
REMARK    6  A    between atoms: C_9  and  C_17
REMARK    7  A    between atoms: C_10  and  C_11
REMARK    8  A    between atoms: C_17  and  O_19
REMARK    9  A    between atoms: O_19  and  C_20
REMARK   10  A    between atoms: C_20  and  C_21
REMARK                            x       y       z     vdW  Elec       q    Type
REMARK                         _______ _______ _______ _____ _____    ______ ____
ROOT
ATOM      1  C   UNL     1       6.685  -2.552  24.700  0.00  0.00    +0.093 A 
ATOM      2  C   UNL     1       5.666  -3.580  24.705  0.00  0.00    +0.028 A 
ATOM      3  C   UNL     1       5.232  -3.718  23.388  0.00  0.00    +0.133 A 
ATOM      4  N   UNL     1       5.874  -2.742  22.648  0.00  0.00    -0.348 N 
ATOM      5  H   UNL     1       5.728  -2.605  21.657  0.00  0.00    +0.166 HD
ATOM      6  C   UNL     1       6.754  -2.013  23.415  0.00  0.00    +0.062 A 
ENDROOT
BRANCH   2   7
ATOM      7  C   UNL     1       5.201  -4.359  25.865  0.00  0.00    -0.015 A 
ATOM      8  C   UNL     1       5.643  -5.684  26.030  0.00  0.00    +0.008 A 
ATOM      9  C   UNL     1       5.180  -6.486  27.078  0.00  0.00    +0.001 A 
ATOM     10  C   UNL     1       4.307  -5.957  28.020  0.00  0.00    +0.000 A 
ATOM     11  C   UNL     1       3.876  -4.639  27.894  0.00  0.00    +0.001 A 
ATOM     12  C   UNL     1       4.297  -3.857  26.809  0.00  0.00    +0.008 A 
ENDBRANCH   2   7
BRANCH   6  13
ATOM     13  C   UNL     1       7.583  -0.918  22.880  0.00  0.00    -0.001 A 
ATOM     14  C   UNL     1       8.808  -1.168  22.246  0.00  0.00    +0.010 A 
ATOM     15  C   UNL     1       9.504  -0.136  21.601  0.00  0.00    +0.001 A 
ATOM     16  C   UNL     1       8.980   1.155  21.576  0.00  0.00    +0.000 A 
ATOM     17  C   UNL     1       7.788   1.428  22.238  0.00  0.00    +0.001 A 
ATOM     18  C   UNL     1       7.112   0.404  22.906  0.00  0.00    +0.010 A 
ENDBRANCH   6  13
BRANCH   1  19
ATOM     19  C   UNL     1       7.504  -2.131  25.833  0.00  0.00    +0.342 C 
ATOM     20  O   UNL     1       7.131  -1.330  26.685  0.00  0.00    -0.245 OA
BRANCH  19  21
ATOM     21  O   UNL     1       8.740  -2.700  25.806  0.00  0.00    -0.461 OA
BRANCH  21  23
ATOM     22  C   UNL     1       9.407  -4.978  25.471  0.00  0.00    +0.048 C 
ATOM     23  C   UNL     1       8.858  -3.968  26.459  0.00  0.00    +0.229 C 
ENDBRANCH  21  23
ENDBRANCH  19  21
ENDBRANCH   1  19
BRANCH   3  24
ATOM     24  C   UNL     1       4.312  -4.662  22.788  0.00  0.00    +0.356 C 
ATOM     25  O   UNL     1       3.155  -4.870  23.120  0.00  0.00    -0.243 OA
BRANCH  24  26
ATOM     26  O   UNL     1       4.994  -5.393  21.857  0.00  0.00    -0.460 OA
BRANCH  26  27
ATOM     27  C   UNL     1       5.944  -6.328  22.391  0.00  0.00    +0.229 C 
ATOM     28  C   UNL     1       7.315  -5.986  21.834  0.00  0.00    +0.048 C 
ENDBRANCH  26  27
ENDBRANCH  24  26
ENDBRANCH   3  24
TORSDOF 8
ENDMDL
MODEL 5
REMARK VINA RESULT:      -5.9      1.918      3.002
REMARK  Name = 
REMARK  10 active torsions:
REMARK  status: ('A' for Active; 'I' for Inactive)
REMARK    1  A    between atoms: C_1  and  C_2
REMARK    2  A    between atoms: C_2  and  O_3
REMARK    3  A    between atoms: O_3  and  C_4
REMARK    4  A    between atoms: C_4  and  C_6
REMARK    5  A    between atoms: C_7  and  C_22
REMARK    6  A    between atoms: C_9  and  C_17
REMARK    7  A    between atoms: C_10  and  C_11
REMARK    8  A    between atoms: C_17  and  O_19
REMARK    9  A    between atoms: O_19  and  C_20
REMARK   10  A    between atoms: C_20  and  C_21
REMARK                            x       y       z     vdW  Elec       q    Type
REMARK                         _______ _______ _______ _____ _____    ______ ____
ROOT
ATOM      1  C   UNL     1       8.078  -1.773  25.035  0.00  0.00    +0.093 A 
ATOM      2  C   UNL     1       7.522  -3.102  24.893  0.00  0.00    +0.028 A 
ATOM      3  C   UNL     1       7.894  -3.558  23.631  0.00  0.00    +0.133 A 
ATOM      4  N   UNL     1       8.542  -2.513  23.000  0.00  0.00    -0.348 N 
ATOM      5  H   UNL     1       8.905  -2.568  22.057  0.00  0.00    +0.166 HD
ATOM      6  C   UNL     1       8.662  -1.414  23.819  0.00  0.00    +0.062 A 
ENDROOT
BRANCH   2   7
ATOM      7  C   UNL     1       6.746  -3.847  25.900  0.00  0.00    -0.015 A 
ATOM      8  C   UNL     1       5.369  -3.595  26.038  0.00  0.00    +0.008 A 
ATOM      9  C   UNL     1       4.604  -4.227  27.022  0.00  0.00    +0.001 A 
ATOM     10  C   UNL     1       5.190  -5.175  27.852  0.00  0.00    +0.000 A 
ATOM     11  C   UNL     1       6.545  -5.462  27.717  0.00  0.00    +0.001 A 
ATOM     12  C   UNL     1       7.322  -4.782  26.769  0.00  0.00    +0.008 A 
ENDBRANCH   2   7
BRANCH   6  13
ATOM     13  C   UNL     1       9.323  -0.163  23.408  0.00  0.00    -0.001 A 
ATOM     14  C   UNL     1       8.880   0.570  22.298  0.00  0.00    +0.010 A 
ATOM     15  C   UNL     1       9.414   1.836  22.018  0.00  0.00    +0.001 A 
ATOM     16  C   UNL     1      10.390   2.386  22.847  0.00  0.00    +0.000 A 
ATOM     17  C   UNL     1      10.870   1.653  23.926  0.00  0.00    +0.001 A 
ATOM     18  C   UNL     1      10.359   0.379  24.185  0.00  0.00    +0.010 A 
ENDBRANCH   6  13
BRANCH   1  19
ATOM     19  C   UNL     1       8.039  -0.933  26.229  0.00  0.00    +0.342 C 
ATOM     20  O   UNL     1       8.864  -0.997  27.136  0.00  0.00    -0.245 OA
BRANCH  19  21
ATOM     21  O   UNL     1       6.960  -0.105  26.232  0.00  0.00    -0.461 OA
BRANCH  21  23
ATOM     22  C   UNL     1       7.434   2.179  25.682  0.00  0.00    +0.048 C 
ATOM     23  C   UNL     1       7.168   1.192  26.800  0.00  0.00    +0.229 C 
ENDBRANCH  21  23
ENDBRANCH  19  21
ENDBRANCH   1  19
BRANCH   3  24
ATOM     24  C   UNL     1       7.712  -4.849  22.998  0.00  0.00    +0.356 C 
ATOM     25  O   UNL     1       8.353  -5.867  23.212  0.00  0.00    -0.243 OA
BRANCH  24  26
ATOM     26  O   UNL     1       6.780  -4.714  22.009  0.00  0.00    -0.460 OA
BRANCH  26  27
ATOM     27  C   UNL     1       5.823  -5.781  21.922  0.00  0.00    +0.229 C 
ATOM     28  C   UNL     1       4.712  -5.510  22.921  0.00  0.00    +0.048 C 
ENDBRANCH  26  27
ENDBRANCH  24  26
ENDBRANCH   3  24
TORSDOF 8
ENDMDL
MODEL 6
REMARK VINA RESULT:      -5.9      2.266      6.659
REMARK  Name = 
REMARK  10 active torsions:
REMARK  status: ('A' for Active; 'I' for Inactive)
REMARK    1  A    between atoms: C_1  and  C_2
REMARK    2  A    between atoms: C_2  and  O_3
REMARK    3  A    between atoms: O_3  and  C_4
REMARK    4  A    between atoms: C_4  and  C_6
REMARK    5  A    between atoms: C_7  and  C_22
REMARK    6  A    between atoms: C_9  and  C_17
REMARK    7  A    between atoms: C_10  and  C_11
REMARK    8  A    between atoms: C_17  and  O_19
REMARK    9  A    between atoms: O_19  and  C_20
REMARK   10  A    between atoms: C_20  and  C_21
REMARK                            x       y       z     vdW  Elec       q    Type
REMARK                         _______ _______ _______ _____ _____    ______ ____
ROOT
ATOM      1  C   UNL     1       6.911  -2.708  23.904  0.00  0.00    +0.093 A 
ATOM      2  C   UNL     1       7.035  -1.270  24.013  0.00  0.00    +0.028 A 
ATOM      3  C   UNL     1       5.981  -0.838  24.816  0.00  0.00    +0.133 A 
ATOM      4  N   UNL     1       5.197  -1.944  25.081  0.00  0.00    -0.348 N 
ATOM      5  H   UNL     1       4.350  -1.911  25.633  0.00  0.00    +0.166 HD
ATOM      6  C   UNL     1       5.727  -3.092  24.535  0.00  0.00    +0.062 A 
ENDROOT
BRANCH   2   7
ATOM      7  C   UNL     1       8.090  -0.426  23.425  0.00  0.00    -0.015 A 
ATOM      8  C   UNL     1       7.796   0.364  22.298  0.00  0.00    +0.008 A 
ATOM      9  C   UNL     1       8.779   1.130  21.665  0.00  0.00    +0.001 A 
ATOM     10  C   UNL     1      10.068   1.168  22.182  0.00  0.00    +0.000 A 
ATOM     11  C   UNL     1      10.377   0.416  23.313  0.00  0.00    +0.001 A 
ATOM     12  C   UNL     1       9.403  -0.397  23.910  0.00  0.00    +0.008 A 
ENDBRANCH   2   7
BRANCH   6  13
ATOM     13  C   UNL     1       5.105  -4.420  24.675  0.00  0.00    -0.001 A 
ATOM     14  C   UNL     1       4.350  -4.989  23.640  0.00  0.00    +0.010 A 
ATOM     15  C   UNL     1       3.903  -6.315  23.725  0.00  0.00    +0.001 A 
ATOM     16  C   UNL     1       4.211  -7.089  24.842  0.00  0.00    +0.000 A 
ATOM     17  C   UNL     1       4.921  -6.525  25.897  0.00  0.00    +0.001 A 
ATOM     18  C   UNL     1       5.339  -5.194  25.822  0.00  0.00    +0.010 A 
ENDBRANCH   6  13
BRANCH   1  19
ATOM     19  C   UNL     1       7.846  -3.616  23.246  0.00  0.00    +0.342 C 
ATOM     20  O   UNL     1       7.635  -4.139  22.155  0.00  0.00    -0.245 OA
BRANCH  19  21
ATOM     21  O   UNL     1       8.953  -3.843  24.003  0.00  0.00    -0.461 OA
BRANCH  21  23
ATOM     22  C   UNL     1       9.042  -4.603  26.275  0.00  0.00    +0.048 C 
ATOM     23  C   UNL     1       8.921  -5.017  24.822  0.00  0.00    +0.229 C 
ENDBRANCH  21  23
ENDBRANCH  19  21
ENDBRANCH   1  19
BRANCH   3  24
ATOM     24  C   UNL     1       5.670   0.474  25.346  0.00  0.00    +0.356 C 
ATOM     25  O   UNL     1       4.778   1.222  24.975  0.00  0.00    -0.243 OA
BRANCH  24  26
ATOM     26  O   UNL     1       6.632   0.808  26.256  0.00  0.00    -0.460 OA
BRANCH  26  27
ATOM     27  C   UNL     1       6.855   2.218  26.420  0.00  0.00    +0.229 C 
ATOM     28  C   UNL     1       7.948   2.644  25.455  0.00  0.00    +0.048 C 
ENDBRANCH  26  27
ENDBRANCH  24  26
ENDBRANCH   3  24
TORSDOF 8
ENDMDL
MODEL 7
REMARK VINA RESULT:      -5.9      2.171      3.599
REMARK  Name = 
REMARK  10 active torsions:
REMARK  status: ('A' for Active; 'I' for Inactive)
REMARK    1  A    between atoms: C_1  and  C_2
REMARK    2  A    between atoms: C_2  and  O_3
REMARK    3  A    between atoms: O_3  and  C_4
REMARK    4  A    between atoms: C_4  and  C_6
REMARK    5  A    between atoms: C_7  and  C_22
REMARK    6  A    between atoms: C_9  and  C_17
REMARK    7  A    between atoms: C_10  and  C_11
REMARK    8  A    between atoms: C_17  and  O_19
REMARK    9  A    between atoms: O_19  and  C_20
REMARK   10  A    between atoms: C_20  and  C_21
REMARK                            x       y       z     vdW  Elec       q    Type
REMARK                         _______ _______ _______ _____ _____    ______ ____
ROOT
ATOM      1  C   UNL     1       7.278  -1.483  24.515  0.00  0.00    +0.093 A 
ATOM      2  C   UNL     1       6.936  -2.886  24.611  0.00  0.00    +0.028 A 
ATOM      3  C   UNL     1       8.022  -3.598  24.105  0.00  0.00    +0.133 A 
ATOM      4  N   UNL     1       8.923  -2.668  23.622  0.00  0.00    -0.348 N 
ATOM      5  H   UNL     1       9.799  -2.914  23.181  0.00  0.00    +0.166 HD
ATOM      6  C   UNL     1       8.498  -1.377  23.845  0.00  0.00    +0.062 A 
ENDROOT
BRANCH   2   7
ATOM      7  C   UNL     1       5.699  -3.459  25.171  0.00  0.00    -0.015 A 
ATOM      8  C   UNL     1       4.537  -3.501  24.380  0.00  0.00    +0.008 A 
ATOM      9  C   UNL     1       3.323  -3.974  24.888  0.00  0.00    +0.001 A 
ATOM     10  C   UNL     1       3.261  -4.471  26.184  0.00  0.00    +0.000 A 
ATOM     11  C   UNL     1       4.404  -4.464  26.978  0.00  0.00    +0.001 A 
ATOM     12  C   UNL     1       5.606  -3.935  26.485  0.00  0.00    +0.008 A 
ENDBRANCH   2   7
BRANCH   6  13
ATOM     13  C   UNL     1       9.270  -0.188  23.446  0.00  0.00    -0.001 A 
ATOM     14  C   UNL     1       9.185   0.340  22.150  0.00  0.00    +0.010 A 
ATOM     15  C   UNL     1       9.796   1.562  21.834  0.00  0.00    +0.001 A 
ATOM     16  C   UNL     1      10.493   2.272  22.809  0.00  0.00    +0.000 A 
ATOM     17  C   UNL     1      10.623   1.740  24.087  0.00  0.00    +0.001 A 
ATOM     18  C   UNL     1      10.039   0.508  24.392  0.00  0.00    +0.010 A 
ENDBRANCH   6  13
BRANCH   1  19
ATOM     19  C   UNL     1       6.494  -0.358  25.015  0.00  0.00    +0.342 C 
ATOM     20  O   UNL     1       6.282  -0.149  26.206  0.00  0.00    -0.245 OA
BRANCH  19  21
ATOM     21  O   UNL     1       5.995   0.403  24.004  0.00  0.00    -0.461 OA
BRANCH  21  23
ATOM     22  C   UNL     1       6.823   2.651  23.953  0.00  0.00    +0.048 C 
ATOM     23  C   UNL     1       5.665   1.754  24.341  0.00  0.00    +0.229 C 
ENDBRANCH  21  23
ENDBRANCH  19  21
ENDBRANCH   1  19
BRANCH   3  24
ATOM     24  C   UNL     1       8.281  -5.022  24.054  0.00  0.00    +0.356 C 
ATOM     25  O   UNL     1       9.283  -5.600  24.446  0.00  0.00    -0.243 OA
BRANCH  24  26
ATOM     26  O   UNL     1       7.264  -5.618  23.363  0.00  0.00    -0.460 OA
BRANCH  26  27
ATOM     27  C   UNL     1       7.378  -5.555  21.933  0.00  0.00    +0.229 C 
ATOM     28  C   UNL     1       5.987  -5.676  21.337  0.00  0.00    +0.048 C 
ENDBRANCH  26  27
ENDBRANCH  24  26
ENDBRANCH   3  24
TORSDOF 8
ENDMDL
MODEL 8
REMARK VINA RESULT:      -5.8      2.196      6.576
REMARK  Name = 
REMARK  10 active torsions:
REMARK  status: ('A' for Active; 'I' for Inactive)
REMARK    1  A    between atoms: C_1  and  C_2
REMARK    2  A    between atoms: C_2  and  O_3
REMARK    3  A    between atoms: O_3  and  C_4
REMARK    4  A    between atoms: C_4  and  C_6
REMARK    5  A    between atoms: C_7  and  C_22
REMARK    6  A    between atoms: C_9  and  C_17
REMARK    7  A    between atoms: C_10  and  C_11
REMARK    8  A    between atoms: C_17  and  O_19
REMARK    9  A    between atoms: O_19  and  C_20
REMARK   10  A    between atoms: C_20  and  C_21
REMARK                            x       y       z     vdW  Elec       q    Type
REMARK                         _______ _______ _______ _____ _____    ______ ____
ROOT
ATOM      1  C   UNL     1       7.745  -0.286  23.133  0.00  0.00    +0.093 A 
ATOM      2  C   UNL     1       7.135   0.885  23.725  0.00  0.00    +0.028 A 
ATOM      3  C   UNL     1       6.024   0.439  24.438  0.00  0.00    +0.133 A 
ATOM      4  N   UNL     1       5.905  -0.916  24.192  0.00  0.00    -0.348 N 
ATOM      5  H   UNL     1       5.167  -1.491  24.575  0.00  0.00    +0.166 HD
ATOM      6  C   UNL     1       6.926  -1.385  23.397  0.00  0.00    +0.062 A 
ENDROOT
BRANCH   2   7
ATOM      7  C   UNL     1       7.613   2.276  23.628  0.00  0.00    -0.015 A 
ATOM      8  C   UNL     1       8.352   2.828  24.690  0.00  0.00    +0.008 A 
ATOM      9  C   UNL     1       8.770   4.161  24.675  0.00  0.00    +0.001 A 
ATOM     10  C   UNL     1       8.508   4.957  23.566  0.00  0.00    +0.000 A 
ATOM     11  C   UNL     1       7.802   4.425  22.491  0.00  0.00    +0.001 A 
ATOM     12  C   UNL     1       7.332   3.105  22.535  0.00  0.00    +0.008 A 
ENDBRANCH   2   7
BRANCH   6  13
ATOM     13  C   UNL     1       7.056  -2.795  22.989  0.00  0.00    -0.001 A 
ATOM     14  C   UNL     1       7.805  -3.710  23.741  0.00  0.00    +0.010 A 
ATOM     15  C   UNL     1       7.785  -5.077  23.431  0.00  0.00    +0.001 A 
ATOM     16  C   UNL     1       7.011  -5.546  22.371  0.00  0.00    +0.000 A 
ATOM     17  C   UNL     1       6.298  -4.645  21.588  0.00  0.00    +0.001 A 
ATOM     18  C   UNL     1       6.343  -3.279  21.881  0.00  0.00    +0.010 A 
ENDBRANCH   6  13
BRANCH   1  19
ATOM     19  C   UNL     1       8.995  -0.332  22.378  0.00  0.00    +0.342 C 
ATOM     20  O   UNL     1       9.116   0.093  21.233  0.00  0.00    -0.245 OA
BRANCH  19  21
ATOM     21  O   UNL     1       9.990  -0.937  23.081  0.00  0.00    -0.461 OA
BRANCH  21  23
ATOM     22  C   UNL     1      11.114   0.642  24.491  0.00  0.00    +0.048 C 
ATOM     23  C   UNL     1      10.140  -0.517  24.441  0.00  0.00    +0.229 C 
ENDBRANCH  21  23
ENDBRANCH  19  21
ENDBRANCH   1  19
BRANCH   3  24
ATOM     24  C   UNL     1       5.110   1.149  25.308  0.00  0.00    +0.356 C 
ATOM     25  O   UNL     1       4.965   0.984  26.510  0.00  0.00    -0.243 OA
BRANCH  24  26
ATOM     26  O   UNL     1       4.324   1.957  24.537  0.00  0.00    -0.460 OA
BRANCH  26  27
ATOM     27  C   UNL     1       3.806   3.121  25.202  0.00  0.00    +0.229 C 
ATOM     28  C   UNL     1       4.806   4.252  25.033  0.00  0.00    +0.048 C 
ENDBRANCH  26  27
ENDBRANCH  24  26
ENDBRANCH   3  24
TORSDOF 8
ENDMDL
MODEL 9
REMARK VINA RESULT:      -5.6      2.571      4.566
REMARK  Name = 
REMARK  10 active torsions:
REMARK  status: ('A' for Active; 'I' for Inactive)
REMARK    1  A    between atoms: C_1  and  C_2
REMARK    2  A    between atoms: C_2  and  O_3
REMARK    3  A    between atoms: O_3  and  C_4
REMARK    4  A    between atoms: C_4  and  C_6
REMARK    5  A    between atoms: C_7  and  C_22
REMARK    6  A    between atoms: C_9  and  C_17
REMARK    7  A    between atoms: C_10  and  C_11
REMARK    8  A    between atoms: C_17  and  O_19
REMARK    9  A    between atoms: O_19  and  C_20
REMARK   10  A    between atoms: C_20  and  C_21
REMARK                            x       y       z     vdW  Elec       q    Type
REMARK                         _______ _______ _______ _____ _____    ______ ____
ROOT
ATOM      1  C   UNL     1       7.569  -2.444  24.619  0.00  0.00    +0.093 A 
ATOM      2  C   UNL     1       6.531  -2.719  25.590  0.00  0.00    +0.028 A 
ATOM      3  C   UNL     1       5.954  -1.494  25.916  0.00  0.00    +0.133 A 
ATOM      4  N   UNL     1       6.685  -0.518  25.263  0.00  0.00    -0.348 N 
ATOM      5  H   UNL     1       6.490   0.471  25.340  0.00  0.00    +0.166 HD
ATOM      6  C   UNL     1       7.676  -1.060  24.477  0.00  0.00    +0.062 A 
ENDROOT
BRANCH   2   7
ATOM      7  C   UNL     1       6.132  -4.040  26.107  0.00  0.00    -0.015 A 
ATOM      8  C   UNL     1       5.280  -4.854  25.339  0.00  0.00    +0.008 A 
ATOM      9  C   UNL     1       4.820  -6.086  25.814  0.00  0.00    +0.001 A 
ATOM     10  C   UNL     1       5.252  -6.557  27.048  0.00  0.00    +0.000 A 
ATOM     11  C   UNL     1       6.116  -5.781  27.815  0.00  0.00    +0.001 A 
ATOM     12  C   UNL     1       6.528  -4.520  27.361  0.00  0.00    +0.008 A 
ENDBRANCH   2   7
BRANCH   6  13
ATOM     13  C   UNL     1       8.596  -0.251  23.659  0.00  0.00    -0.001 A 
ATOM     14  C   UNL     1       8.515  -0.237  22.259  0.00  0.00    +0.010 A 
ATOM     15  C   UNL     1       9.287   0.659  21.507  0.00  0.00    +0.001 A 
ATOM     16  C   UNL     1      10.144   1.555  22.143  0.00  0.00    +0.000 A 
ATOM     17  C   UNL     1      10.268   1.523  23.527  0.00  0.00    +0.001 A 
ATOM     18  C   UNL     1       9.521   0.609  24.273  0.00  0.00    +0.010 A 
ENDBRANCH   6  13
BRANCH   1  19
ATOM     19  C   UNL     1       8.381  -3.427  23.908  0.00  0.00    +0.342 C 
ATOM     20  O   UNL     1       9.544  -3.693  24.201  0.00  0.00    -0.245 OA
BRANCH  19  21
ATOM     21  O   UNL     1       7.710  -3.980  22.862  0.00  0.00    -0.461 OA
BRANCH  21  23
ATOM     22  C   UNL     1       6.877  -5.849  21.615  0.00  0.00    +0.048 C 
ATOM     23  C   UNL     1       7.663  -5.410  22.834  0.00  0.00    +0.229 C 
ENDBRANCH  21  23
ENDBRANCH  19  21
ENDBRANCH   1  19
BRANCH   3  24
ATOM     24  C   UNL     1       4.810  -1.176  26.746  0.00  0.00    +0.356 C 
ATOM     25  O   UNL     1       4.830  -0.710  27.875  0.00  0.00    -0.243 OA
BRANCH  24  26
ATOM     26  O   UNL     1       3.684  -1.611  26.108  0.00  0.00    -0.460 OA
BRANCH  26  27
ATOM     27  C   UNL     1       2.570  -1.904  26.966  0.00  0.00    +0.229 C 
ATOM     28  C   UNL     1       2.617  -3.379  27.323  0.00  0.00    +0.048 C 
ENDBRANCH  26  27
ENDBRANCH  24  26
ENDBRANCH   3  24
TORSDOF 8
ENDMDL
