MODEL 1
REMARK VINA RESULT:      -6.7      0.000      0.000
REMARK  Name = 
REMARK  18 active torsions:
REMARK  status: ('A' for Active; 'I' for Inactive)
REMARK    1  A    between atoms: C_1  and  C_2
REMARK    2  A    between atoms: C_2  and  C_3
REMARK    3  A    between atoms: C_3  and  C_4
REMARK    4  A    between atoms: C_4  and  C_6
REMARK    5  A    between atoms: C_4  and  N_14
REMARK    6  A    between atoms: C_6  and  C_8
REMARK    7  A    between atoms: N_10  and  C_11
REMARK    8  A    between atoms: C_15  and  C_17
REMARK    9  A    between atoms: C_28  and  C_30
REMARK   10  A    between atoms: C_30  and  C_31
REMARK   11  A    between atoms: C_30  and  N_35
REMARK   12  A    between atoms: C_31  and  C_32
REMARK   13  A    between atoms: C_31  and  C_33
REMARK   14  A    between atoms: C_31  and  C_34
REMARK   15  A    between atoms: C_36  and  C_38
REMARK   16  A    between atoms: C_38  and  C_40
REMARK   17  A    between atoms: C_38  and  N_46
REMARK   18  A    between atoms: C_47  and  C_49
REMARK                            x       y       z     vdW  Elec       q    Type
REMARK                         _______ _______ _______ _____ _____    ______ ____
ROOT
ATOM      1  C   UNL     1       5.219   2.943  26.991  0.00  0.00    +0.165 C 
ATOM      2  N   UNL     1       6.122   2.383  28.026  0.00  0.00    -0.288 N 
ATOM      3  C   UNL     1       6.301   1.082  28.526  0.00  0.00    +0.237 C 
ATOM      4  O   UNL     1       6.747   0.976  29.682  0.00  0.00    -0.274 OA
ATOM      5  C   UNL     1       6.402   3.431  29.025  0.00  0.00    +0.112 C 
ATOM      6  C   UNL     1       5.843   4.749  28.515  0.00  0.00    +0.012 C 
ATOM      7  C   UNL     1       4.509   5.218  29.115  0.00  0.00    +0.005 C 
ATOM      8  C   UNL     1       3.577   5.513  27.938  0.00  0.00    +0.001 C 
ATOM      9  C   UNL     1       4.458   5.466  26.702  0.00  0.00    +0.006 C 
ATOM     10  C   UNL     1       5.562   4.475  27.049  0.00  0.00    +0.023 C 
ENDROOT
BRANCH   1  13
ATOM     11  N   UNL     1       5.882   3.518  24.644  0.00  0.00    -0.304 N 
ATOM     12  H   UNL     1       6.380   4.313  25.031  0.00  0.00    +0.149 HD
ATOM     13  C   UNL     1       5.269   2.616  25.486  0.00  0.00    +0.234 C 
ATOM     14  O   UNL     1       4.572   1.701  25.043  0.00  0.00    -0.274 OA
BRANCH  11  15
ATOM     15  C   UNL     1       5.608   3.481  23.191  0.00  0.00    +0.149 C 
BRANCH  15  16
ATOM     16  C   UNL     1       6.781   4.081  22.425  0.00  0.00    +0.237 C 
ATOM     17  O   UNL     1       7.189   3.670  21.342  0.00  0.00    -0.285 OA
BRANCH  16  18
ATOM     18  C   UNL     1       7.493   5.265  23.098  0.00  0.00    +0.282 C 
ATOM     19  N   UNL     1       8.861   5.278  22.915  0.00  0.00    -0.306 N 
ATOM     20  H   UNL     1       9.272   4.512  22.389  0.00  0.00    +0.149 HD
ATOM     21  O   UNL     1       6.860   6.087  23.739  0.00  0.00    -0.267 OA
BRANCH  19  22
ATOM     22  C   UNL     1       9.698   6.274  23.506  0.00  0.00    +0.073 C 
ATOM     23  C   UNL     1      11.110   5.960  23.918  0.00  0.00    +0.024 C 
ATOM     24  C   UNL     1      10.064   6.212  24.963  0.00  0.00    +0.024 C 
ENDBRANCH  19  22
ENDBRANCH  16  18
ENDBRANCH  15  16
BRANCH  15  25
ATOM     25  C   UNL     1       4.298   4.234  22.882  0.00  0.00    +0.030 C 
BRANCH  25  27
ATOM     26  C   UNL     1       1.954   3.273  22.816  0.00  0.00    +0.004 C 
ATOM     27  C   UNL     1       3.288   3.391  22.092  0.00  0.00    -0.001 C 
ENDBRANCH  25  27
ENDBRANCH  15  25
ENDBRANCH  11  15
ENDBRANCH   1  13
BRANCH   3  28
ATOM     28  C   UNL     1       6.041  -0.247  27.711  0.00  0.00    +0.164 C 
BRANCH  28  29
ATOM     29  N   UNL     1       6.632  -0.243  26.354  0.00  0.00    -0.302 N 
ATOM     30  H   UNL     1       6.246   0.414  25.683  0.00  0.00    +0.150 HD
ATOM     31  C   UNL     1       7.897  -0.727  26.086  0.00  0.00    +0.234 C 
ATOM     32  O   UNL     1       8.611  -1.236  26.939  0.00  0.00    -0.274 OA
BRANCH  31  33
ATOM     33  C   UNL     1       8.404  -0.641  24.642  0.00  0.00    +0.162 C 
BRANCH  33  34
ATOM     34  C   UNL     1       8.139   0.768  24.026  0.00  0.00    +0.018 C 
ATOM     35  C   UNL     1       8.034   0.718  22.488  0.00  0.00    +0.006 C 
ATOM     36  C   UNL     1       9.370   0.755  21.761  0.00  0.00    +0.000 C 
ATOM     37  C   UNL     1      10.251   1.919  22.185  0.00  0.00    +0.000 C 
ATOM     38  C   UNL     1      10.377   2.109  23.695  0.00  0.00    +0.000 C 
ATOM     39  C   UNL     1       9.071   1.919  24.472  0.00  0.00    +0.006 C 
ENDBRANCH  33  34
BRANCH  33  40
ATOM     40  N   UNL     1       7.769  -1.722  23.878  0.00  0.00    -0.298 N 
ATOM     41  H   UNL     1       6.832  -1.572  23.504  0.00  0.00    +0.150 HD
ATOM     42  C   UNL     1       8.405  -2.902  23.561  0.00  0.00    +0.264 C 
ATOM     43  O   UNL     1       9.563  -3.149  23.883  0.00  0.00    -0.268 OA
BRANCH  42  44
ATOM     44  C   UNL     1       7.598  -3.900  22.801  0.00  0.00    +0.143 A 
ATOM     45  C   UNL     1       6.550  -3.462  21.998  0.00  0.00    +0.143 A 
ATOM     46  N   UNL     1       5.810  -4.312  21.246  0.00  0.00    -0.259 NA
ATOM     47  C   UNL     1       6.157  -5.621  21.316  0.00  0.00    +0.130 A 
ATOM     48  C   UNL     1       7.196  -6.057  22.128  0.00  0.00    +0.131 A 
ATOM     49  N   UNL     1       7.939  -5.217  22.889  0.00  0.00    -0.247 NA
ENDBRANCH  42  44
ENDBRANCH  33  40
ENDBRANCH  31  33
ENDBRANCH  28  29
BRANCH  28  50
ATOM     50  C   UNL     1       4.487  -0.681  27.740  0.00  0.00    -0.011 C 
ATOM     51  C   UNL     1       4.283  -1.722  28.863  0.00  0.00    +0.013 C 
ATOM     52  C   UNL     1       4.077  -1.340  26.403  0.00  0.00    +0.013 C 
ATOM     53  C   UNL     1       3.430   0.426  27.987  0.00  0.00    +0.013 C 
ENDBRANCH  28  50
ENDBRANCH   3  28
TORSDOF 14
ENDMDL
MODEL 2
REMARK VINA RESULT:      -6.3      2.550      6.913
REMARK  Name = 
REMARK  18 active torsions:
REMARK  status: ('A' for Active; 'I' for Inactive)
REMARK    1  A    between atoms: C_1  and  C_2
REMARK    2  A    between atoms: C_2  and  C_3
REMARK    3  A    between atoms: C_3  and  C_4
REMARK    4  A    between atoms: C_4  and  C_6
REMARK    5  A    between atoms: C_4  and  N_14
REMARK    6  A    between atoms: C_6  and  C_8
REMARK    7  A    between atoms: N_10  and  C_11
REMARK    8  A    between atoms: C_15  and  C_17
REMARK    9  A    between atoms: C_28  and  C_30
REMARK   10  A    between atoms: C_30  and  C_31
REMARK   11  A    between atoms: C_30  and  N_35
REMARK   12  A    between atoms: C_31  and  C_32
REMARK   13  A    between atoms: C_31  and  C_33
REMARK   14  A    between atoms: C_31  and  C_34
REMARK   15  A    between atoms: C_36  and  C_38
REMARK   16  A    between atoms: C_38  and  C_40
REMARK   17  A    between atoms: C_38  and  N_46
REMARK   18  A    between atoms: C_47  and  C_49
REMARK                            x       y       z     vdW  Elec       q    Type
REMARK                         _______ _______ _______ _____ _____    ______ ____
ROOT
ATOM      1  C   UNL     1       6.193   1.699  24.041  0.00  0.00    +0.165 C 
ATOM      2  N   UNL     1       6.965   1.486  22.791  0.00  0.00    -0.288 N 
ATOM      3  C   UNL     1       8.238   0.946  22.542  0.00  0.00    +0.237 C 
ATOM      4  O   UNL     1       8.820   1.323  21.511  0.00  0.00    -0.274 OA
ATOM      5  C   UNL     1       6.571   2.516  21.813  0.00  0.00    +0.112 C 
ATOM      6  C   UNL     1       5.375   3.275  22.363  0.00  0.00    +0.012 C 
ATOM      7  C   UNL     1       5.649   4.658  22.974  0.00  0.00    +0.005 C 
ATOM      8  C   UNL     1       5.024   4.652  24.370  0.00  0.00    +0.001 C 
ATOM      9  C   UNL     1       4.187   3.387  24.435  0.00  0.00    +0.006 C 
ATOM     10  C   UNL     1       4.895   2.405  23.509  0.00  0.00    +0.023 C 
ENDROOT
BRANCH   1  13
ATOM     11  N   UNL     1       5.246   0.932  26.230  0.00  0.00    -0.304 N 
ATOM     12  H   UNL     1       5.204   1.909  26.499  0.00  0.00    +0.149 HD
ATOM     13  C   UNL     1       5.651   0.587  24.960  0.00  0.00    +0.234 C 
ATOM     14  O   UNL     1       5.810  -0.593  24.639  0.00  0.00    -0.274 OA
BRANCH  11  15
ATOM     15  C   UNL     1       5.117  -0.106  27.276  0.00  0.00    +0.149 C 
BRANCH  15  16
ATOM     16  C   UNL     1       3.750  -0.007  27.942  0.00  0.00    +0.237 C 
ATOM     17  O   UNL     1       3.529   0.589  28.993  0.00  0.00    -0.285 OA
BRANCH  16  18
ATOM     18  C   UNL     1       2.597  -0.737  27.234  0.00  0.00    +0.282 C 
ATOM     19  N   UNL     1       2.623  -2.109  27.382  0.00  0.00    -0.306 N 
ATOM     20  H   UNL     1       3.394  -2.510  27.909  0.00  0.00    +0.149 HD
ATOM     21  O   UNL     1       1.766  -0.111  26.597  0.00  0.00    -0.267 OA
BRANCH  19  22
ATOM     22  C   UNL     1       1.661  -2.959  26.755  0.00  0.00    +0.073 C 
ATOM     23  C   UNL     1       1.954  -4.412  26.503  0.00  0.00    +0.024 C 
ATOM     24  C   UNL     1       1.866  -3.456  25.352  0.00  0.00    +0.024 C 
ENDBRANCH  19  22
ENDBRANCH  16  18
ENDBRANCH  15  16
BRANCH  15  25
ATOM     25  C   UNL     1       6.253   0.043  28.309  0.00  0.00    +0.030 C 
BRANCH  25  27
ATOM     26  C   UNL     1       7.406   1.769  29.763  0.00  0.00    +0.004 C 
ATOM     27  C   UNL     1       6.808   1.471  28.394  0.00  0.00    -0.001 C 
ENDBRANCH  25  27
ENDBRANCH  15  25
ENDBRANCH  11  15
ENDBRANCH   1  13
BRANCH   3  28
ATOM     28  C   UNL     1       8.951  -0.145  23.436  0.00  0.00    +0.164 C 
BRANCH  28  29
ATOM     29  N   UNL     1       8.233  -1.438  23.490  0.00  0.00    -0.302 N 
ATOM     30  H   UNL     1       7.279  -1.454  23.144  0.00  0.00    +0.150 HD
ATOM     31  C   UNL     1       8.884  -2.654  23.558  0.00  0.00    +0.234 C 
ATOM     32  O   UNL     1      10.102  -2.756  23.623  0.00  0.00    -0.274 OA
BRANCH  31  33
ATOM     33  C   UNL     1       8.026  -3.924  23.581  0.00  0.00    +0.162 C 
BRANCH  33  34
ATOM     34  C   UNL     1       7.069  -3.990  22.351  0.00  0.00    +0.018 C 
ATOM     35  C   UNL     1       5.657  -3.466  22.686  0.00  0.00    +0.006 C 
ATOM     36  C   UNL     1       4.740  -4.491  23.336  0.00  0.00    +0.000 C 
ATOM     37  C   UNL     1       4.641  -5.789  22.551  0.00  0.00    +0.000 C 
ATOM     38  C   UNL     1       5.980  -6.371  22.105  0.00  0.00    +0.000 C 
ATOM     39  C   UNL     1       6.985  -5.335  21.593  0.00  0.00    +0.006 C 
ENDBRANCH  33  34
BRANCH  33  40
ATOM     40  N   UNL     1       7.309  -3.957  24.862  0.00  0.00    -0.298 N 
ATOM     41  H   UNL     1       6.589  -3.256  25.037  0.00  0.00    +0.150 HD
ATOM     42  C   UNL     1       7.491  -4.941  25.809  0.00  0.00    +0.264 C 
ATOM     43  O   UNL     1       8.264  -5.881  25.660  0.00  0.00    -0.268 OA
BRANCH  42  44
ATOM     44  C   UNL     1       6.695  -4.801  27.062  0.00  0.00    +0.143 A 
ATOM     45  C   UNL     1       5.805  -3.740  27.192  0.00  0.00    +0.143 A 
ATOM     46  N   UNL     1       5.019  -3.583  28.285  0.00  0.00    -0.259 NA
ATOM     47  C   UNL     1       5.145  -4.531  29.246  0.00  0.00    +0.130 A 
ATOM     48  C   UNL     1       6.043  -5.583  29.120  0.00  0.00    +0.131 A 
ATOM     49  N   UNL     1       6.838  -5.746  28.035  0.00  0.00    -0.247 NA
ENDBRANCH  42  44
ENDBRANCH  33  40
ENDBRANCH  31  33
ENDBRANCH  28  29
BRANCH  28  50
ATOM     50  C   UNL     1       9.356   0.433  24.888  0.00  0.00    -0.011 C 
ATOM     51  C   UNL     1      10.897   0.496  24.985  0.00  0.00    +0.013 C 
ATOM     52  C   UNL     1       8.849  -0.502  26.010  0.00  0.00    +0.013 C 
ATOM     53  C   UNL     1       8.845   1.844  25.275  0.00  0.00    +0.013 C 
ENDBRANCH  28  50
ENDBRANCH   3  28
TORSDOF 14
ENDMDL
MODEL 3
REMARK VINA RESULT:      -6.1      2.719      6.817
REMARK  Name = 
REMARK  18 active torsions:
REMARK  status: ('A' for Active; 'I' for Inactive)
REMARK    1  A    between atoms: C_1  and  C_2
REMARK    2  A    between atoms: C_2  and  C_3
REMARK    3  A    between atoms: C_3  and  C_4
REMARK    4  A    between atoms: C_4  and  C_6
REMARK    5  A    between atoms: C_4  and  N_14
REMARK    6  A    between atoms: C_6  and  C_8
REMARK    7  A    between atoms: N_10  and  C_11
REMARK    8  A    between atoms: C_15  and  C_17
REMARK    9  A    between atoms: C_28  and  C_30
REMARK   10  A    between atoms: C_30  and  C_31
REMARK   11  A    between atoms: C_30  and  N_35
REMARK   12  A    between atoms: C_31  and  C_32
REMARK   13  A    between atoms: C_31  and  C_33
REMARK   14  A    between atoms: C_31  and  C_34
REMARK   15  A    between atoms: C_36  and  C_38
REMARK   16  A    between atoms: C_38  and  C_40
REMARK   17  A    between atoms: C_38  and  N_46
REMARK   18  A    between atoms: C_47  and  C_49
REMARK                            x       y       z     vdW  Elec       q    Type
REMARK                         _______ _______ _______ _____ _____    ______ ____
ROOT
ATOM      1  C   UNL     1       7.112   2.492  25.150  0.00  0.00    +0.165 C 
ATOM      2  N   UNL     1       6.752   2.502  23.710  0.00  0.00    -0.288 N 
ATOM      3  C   UNL     1       7.189   1.735  22.617  0.00  0.00    +0.237 C 
ATOM      4  O   UNL     1       7.102   2.254  21.491  0.00  0.00    -0.274 OA
ATOM      5  C   UNL     1       6.351   3.870  23.334  0.00  0.00    +0.112 C 
ATOM      6  C   UNL     1       6.246   4.709  24.598  0.00  0.00    +0.012 C 
ATOM      7  C   UNL     1       7.414   5.660  24.900  0.00  0.00    +0.005 C 
ATOM      8  C   UNL     1       7.863   5.362  26.332  0.00  0.00    +0.001 C 
ATOM      9  C   UNL     1       6.796   4.449  26.910  0.00  0.00    +0.006 C 
ATOM     10  C   UNL     1       6.252   3.680  25.712  0.00  0.00    +0.023 C 
ENDROOT
BRANCH   1  13
ATOM     11  N   UNL     1       5.537   1.161  26.575  0.00  0.00    -0.304 N 
ATOM     12  H   UNL     1       4.784   1.704  26.165  0.00  0.00    +0.149 HD
ATOM     13  C   UNL     1       6.831   1.341  26.136  0.00  0.00    +0.234 C 
ATOM     14  O   UNL     1       7.776   0.771  26.685  0.00  0.00    -0.274 OA
BRANCH  11  15
ATOM     15  C   UNL     1       5.272   0.376  27.800  0.00  0.00    +0.149 C 
BRANCH  15  16
ATOM     16  C   UNL     1       3.935  -0.345  27.677  0.00  0.00    +0.237 C 
ATOM     17  O   UNL     1       3.071  -0.074  26.847  0.00  0.00    -0.285 OA
BRANCH  16  18
ATOM     18  C   UNL     1       3.675  -1.466  28.696  0.00  0.00    +0.282 C 
ATOM     19  N   UNL     1       3.811  -2.739  28.180  0.00  0.00    -0.306 N 
ATOM     20  H   UNL     1       4.038  -2.825  27.194  0.00  0.00    +0.149 HD
ATOM     21  O   UNL     1       3.364  -1.199  29.845  0.00  0.00    -0.267 OA
BRANCH  19  22
ATOM     22  C   UNL     1       3.561  -3.907  28.965  0.00  0.00    +0.073 C 
ATOM     23  C   UNL     1       4.687  -4.661  29.617  0.00  0.00    +0.024 C 
ATOM     24  C   UNL     1       3.946  -5.271  28.464  0.00  0.00    +0.024 C 
ENDBRANCH  19  22
ENDBRANCH  16  18
ENDBRANCH  15  16
BRANCH  15  25
ATOM     25  C   UNL     1       5.293   1.302  29.034  0.00  0.00    +0.030 C 
BRANCH  25  27
ATOM     26  C   UNL     1       7.402   2.381  29.935  0.00  0.00    +0.004 C 
ATOM     27  C   UNL     1       6.546   1.122  29.902  0.00  0.00    -0.001 C 
ENDBRANCH  25  27
ENDBRANCH  15  25
ENDBRANCH  11  15
ENDBRANCH   1  13
BRANCH   3  28
ATOM     28  C   UNL     1       7.720   0.249  22.706  0.00  0.00    +0.164 C 
BRANCH  28  29
ATOM     29  N   UNL     1       7.175  -0.515  23.850  0.00  0.00    -0.302 N 
ATOM     30  H   UNL     1       6.931   0.010  24.684  0.00  0.00    +0.150 HD
ATOM     31  C   UNL     1       6.588  -1.757  23.711  0.00  0.00    +0.234 C 
ATOM     32  O   UNL     1       6.512  -2.342  22.639  0.00  0.00    -0.274 OA
BRANCH  31  33
ATOM     33  C   UNL     1       6.038  -2.433  24.973  0.00  0.00    +0.162 C 
BRANCH  33  34
ATOM     34  C   UNL     1       7.169  -2.716  26.009  0.00  0.00    +0.018 C 
ATOM     35  C   UNL     1       8.557  -2.809  25.342  0.00  0.00    +0.006 C 
ATOM     36  C   UNL     1       8.885  -4.172  24.751  0.00  0.00    +0.000 C 
ATOM     37  C   UNL     1       8.706  -5.312  25.741  0.00  0.00    +0.000 C 
ATOM     38  C   UNL     1       7.390  -5.287  26.514  0.00  0.00    +0.000 C 
ATOM     39  C   UNL     1       6.953  -3.897  26.984  0.00  0.00    +0.006 C 
ENDBRANCH  33  34
BRANCH  33  40
ATOM     40  N   UNL     1       5.331  -3.650  24.557  0.00  0.00    -0.298 N 
ATOM     41  H   UNL     1       5.876  -4.436  24.205  0.00  0.00    +0.150 HD
ATOM     42  C   UNL     1       3.971  -3.825  24.699  0.00  0.00    +0.264 C 
ATOM     43  O   UNL     1       3.234  -2.979  25.195  0.00  0.00    -0.268 OA
BRANCH  42  44
ATOM     44  C   UNL     1       3.420  -5.117  24.198  0.00  0.00    +0.143 A 
ATOM     45  C   UNL     1       3.893  -6.313  24.726  0.00  0.00    +0.143 A 
ATOM     46  N   UNL     1       3.399  -7.516  24.348  0.00  0.00    -0.259 NA
ATOM     47  C   UNL     1       2.406  -7.487  23.426  0.00  0.00    +0.130 A 
ATOM     48  C   UNL     1       1.943  -6.292  22.891  0.00  0.00    +0.131 A 
ATOM     49  N   UNL     1       2.433  -5.082  23.257  0.00  0.00    -0.247 NA
ENDBRANCH  42  44
ENDBRANCH  33  40
ENDBRANCH  31  33
ENDBRANCH  28  29
BRANCH  28  50
ATOM     50  C   UNL     1       9.327   0.172  22.581  0.00  0.00    -0.011 C 
ATOM     51  C   UNL     1       9.704  -1.109  21.804  0.00  0.00    +0.013 C 
ATOM     52  C   UNL     1       9.981   0.088  23.980  0.00  0.00    +0.013 C 
ATOM     53  C   UNL     1      10.055   1.337  21.863  0.00  0.00    +0.013 C 
ENDBRANCH  28  50
ENDBRANCH   3  28
TORSDOF 14
ENDMDL
MODEL 4
REMARK VINA RESULT:      -6.0      2.342      6.212
REMARK  Name = 
REMARK  18 active torsions:
REMARK  status: ('A' for Active; 'I' for Inactive)
REMARK    1  A    between atoms: C_1  and  C_2
REMARK    2  A    between atoms: C_2  and  C_3
REMARK    3  A    between atoms: C_3  and  C_4
REMARK    4  A    between atoms: C_4  and  C_6
REMARK    5  A    between atoms: C_4  and  N_14
REMARK    6  A    between atoms: C_6  and  C_8
REMARK    7  A    between atoms: N_10  and  C_11
REMARK    8  A    between atoms: C_15  and  C_17
REMARK    9  A    between atoms: C_28  and  C_30
REMARK   10  A    between atoms: C_30  and  C_31
REMARK   11  A    between atoms: C_30  and  N_35
REMARK   12  A    between atoms: C_31  and  C_32
REMARK   13  A    between atoms: C_31  and  C_33
REMARK   14  A    between atoms: C_31  and  C_34
REMARK   15  A    between atoms: C_36  and  C_38
REMARK   16  A    between atoms: C_38  and  C_40
REMARK   17  A    between atoms: C_38  and  N_46
REMARK   18  A    between atoms: C_47  and  C_49
REMARK                            x       y       z     vdW  Elec       q    Type
REMARK                         _______ _______ _______ _____ _____    ______ ____
ROOT
ATOM      1  C   UNL     1       3.536   1.164  27.576  0.00  0.00    +0.165 C 
ATOM      2  N   UNL     1       3.707   2.597  27.920  0.00  0.00    -0.288 N 
ATOM      3  C   UNL     1       4.792   3.326  28.436  0.00  0.00    +0.237 C 
ATOM      4  O   UNL     1       4.527   4.363  29.068  0.00  0.00    -0.274 OA
ATOM      5  C   UNL     1       2.398   3.146  28.319  0.00  0.00    +0.112 C 
ATOM      6  C   UNL     1       1.327   2.108  28.024  0.00  0.00    +0.012 C 
ATOM      7  C   UNL     1       0.800   1.295  29.217  0.00  0.00    +0.005 C 
ATOM      8  C   UNL     1       0.925  -0.180  28.831  0.00  0.00    +0.001 C 
ATOM      9  C   UNL     1       1.265  -0.185  27.351  0.00  0.00    +0.006 C 
ATOM     10  C   UNL     1       2.033   1.111  27.124  0.00  0.00    +0.023 C 
ENDROOT
BRANCH   1  13
ATOM     11  N   UNL     1       4.618  -0.903  26.660  0.00  0.00    -0.304 N 
ATOM     12  H   UNL     1       4.280  -1.387  27.486  0.00  0.00    +0.149 HD
ATOM     13  C   UNL     1       4.280   0.417  26.452  0.00  0.00    +0.234 C 
ATOM     14  O   UNL     1       4.758   1.058  25.514  0.00  0.00    -0.274 OA
BRANCH  11  15
ATOM     15  C   UNL     1       5.665  -1.540  25.833  0.00  0.00    +0.149 C 
BRANCH  15  16
ATOM     16  C   UNL     1       5.022  -2.410  24.760  0.00  0.00    +0.237 C 
ATOM     17  O   UNL     1       3.890  -2.880  24.829  0.00  0.00    -0.285 OA
BRANCH  16  18
ATOM     18  C   UNL     1       5.892  -2.721  23.531  0.00  0.00    +0.282 C 
ATOM     19  N   UNL     1       6.037  -4.069  23.269  0.00  0.00    -0.306 N 
ATOM     20  H   UNL     1       5.591  -4.722  23.907  0.00  0.00    +0.149 HD
ATOM     21  O   UNL     1       6.399  -1.819  22.885  0.00  0.00    -0.267 OA
BRANCH  19  22
ATOM     22  C   UNL     1       6.848  -4.552  22.196  0.00  0.00    +0.073 C 
ATOM     23  C   UNL     1       6.277  -5.445  21.130  0.00  0.00    +0.024 C 
ATOM     24  C   UNL     1       7.254  -5.997  22.124  0.00  0.00    +0.024 C 
ENDBRANCH  19  22
ENDBRANCH  16  18
ENDBRANCH  15  16
BRANCH  15  25
ATOM     25  C   UNL     1       6.612  -2.367  26.727  0.00  0.00    +0.030 C 
BRANCH  25  27
ATOM     26  C   UNL     1       6.994  -4.868  26.875  0.00  0.00    +0.004 C 
ATOM     27  C   UNL     1       6.024  -3.723  27.137  0.00  0.00    -0.001 C 
ENDBRANCH  25  27
ENDBRANCH  15  25
ENDBRANCH  11  15
ENDBRANCH   1  13
BRANCH   3  28
ATOM     28  C   UNL     1       6.315   2.963  28.218  0.00  0.00    +0.164 C 
BRANCH  28  29
ATOM     29  N   UNL     1       6.706   2.847  26.796  0.00  0.00    -0.302 N 
ATOM     30  H   UNL     1       6.142   2.241  26.208  0.00  0.00    +0.150 HD
ATOM     31  C   UNL     1       7.467   3.799  26.148  0.00  0.00    +0.234 C 
ATOM     32  O   UNL     1       7.915   4.790  26.709  0.00  0.00    -0.274 OA
BRANCH  31  33
ATOM     33  C   UNL     1       7.782   3.574  24.664  0.00  0.00    +0.162 C 
BRANCH  33  34
ATOM     34  C   UNL     1       6.578   3.975  23.757  0.00  0.00    +0.018 C 
ATOM     35  C   UNL     1       7.024   4.322  22.322  0.00  0.00    +0.006 C 
ATOM     36  C   UNL     1       7.516   5.750  22.140  0.00  0.00    +0.000 C 
ATOM     37  C   UNL     1       6.530   6.792  22.645  0.00  0.00    +0.000 C 
ATOM     38  C   UNL     1       5.967   6.517  24.038  0.00  0.00    +0.000 C 
ATOM     39  C   UNL     1       5.612   5.051  24.303  0.00  0.00    +0.006 C 
ENDBRANCH  33  34
BRANCH  33  40
ATOM     40  N   UNL     1       8.176   2.169  24.497  0.00  0.00    -0.298 N 
ATOM     41  H   UNL     1       7.567   1.443  24.874  0.00  0.00    +0.150 HD
ATOM     42  C   UNL     1       9.282   1.771  23.779  0.00  0.00    +0.264 C 
ATOM     43  O   UNL     1      10.031   2.557  23.209  0.00  0.00    -0.268 OA
BRANCH  42  44
ATOM     44  C   UNL     1       9.543   0.303  23.737  0.00  0.00    +0.143 A 
ATOM     45  C   UNL     1       9.193  -0.485  24.827  0.00  0.00    +0.143 A 
ATOM     46  N   UNL     1       9.360  -1.830  24.831  0.00  0.00    -0.259 NA
ATOM     47  C   UNL     1       9.884  -2.366  23.702  0.00  0.00    +0.130 A 
ATOM     48  C   UNL     1      10.244  -1.575  22.618  0.00  0.00    +0.131 A 
ATOM     49  N   UNL     1      10.087  -0.229  22.605  0.00  0.00    -0.247 NA
ENDBRANCH  42  44
ENDBRANCH  33  40
ENDBRANCH  31  33
ENDBRANCH  28  29
BRANCH  28  50
ATOM     50  C   UNL     1       6.772   1.706  29.121  0.00  0.00    -0.011 C 
ATOM     51  C   UNL     1       7.785   2.198  30.179  0.00  0.00    +0.013 C 
ATOM     52  C   UNL     1       7.474   0.636  28.255  0.00  0.00    +0.013 C 
ATOM     53  C   UNL     1       5.676   0.939  29.904  0.00  0.00    +0.013 C 
ENDBRANCH  28  50
ENDBRANCH   3  28
TORSDOF 14
ENDMDL
MODEL 5
REMARK VINA RESULT:      -5.9      2.238      5.026
REMARK  Name = 
REMARK  18 active torsions:
REMARK  status: ('A' for Active; 'I' for Inactive)
REMARK    1  A    between atoms: C_1  and  C_2
REMARK    2  A    between atoms: C_2  and  C_3
REMARK    3  A    between atoms: C_3  and  C_4
REMARK    4  A    between atoms: C_4  and  C_6
REMARK    5  A    between atoms: C_4  and  N_14
REMARK    6  A    between atoms: C_6  and  C_8
REMARK    7  A    between atoms: N_10  and  C_11
REMARK    8  A    between atoms: C_15  and  C_17
REMARK    9  A    between atoms: C_28  and  C_30
REMARK   10  A    between atoms: C_30  and  C_31
REMARK   11  A    between atoms: C_30  and  N_35
REMARK   12  A    between atoms: C_31  and  C_32
REMARK   13  A    between atoms: C_31  and  C_33
REMARK   14  A    between atoms: C_31  and  C_34
REMARK   15  A    between atoms: C_36  and  C_38
REMARK   16  A    between atoms: C_38  and  C_40
REMARK   17  A    between atoms: C_38  and  N_46
REMARK   18  A    between atoms: C_47  and  C_49
REMARK                            x       y       z     vdW  Elec       q    Type
REMARK                         _______ _______ _______ _____ _____    ______ ____
ROOT
ATOM      1  C   UNL     1       5.413   2.801  24.835  0.00  0.00    +0.165 C 
ATOM      2  N   UNL     1       4.575   2.796  26.060  0.00  0.00    -0.288 N 
ATOM      3  C   UNL     1       4.451   1.885  27.122  0.00  0.00    +0.237 C 
ATOM      4  O   UNL     1       3.371   1.876  27.737  0.00  0.00    -0.274 OA
ATOM      5  C   UNL     1       3.330   3.535  25.782  0.00  0.00    +0.112 C 
ATOM      6  C   UNL     1       3.457   4.207  24.425  0.00  0.00    +0.012 C 
ATOM      7  C   UNL     1       2.743   3.532  23.244  0.00  0.00    +0.005 C 
ATOM      8  C   UNL     1       3.789   3.356  22.142  0.00  0.00    +0.001 C 
ATOM      9  C   UNL     1       4.996   4.157  22.596  0.00  0.00    +0.006 C 
ATOM     10  C   UNL     1       4.940   4.116  24.118  0.00  0.00    +0.023 C 
ENDROOT
BRANCH   1  13
ATOM     11  N   UNL     1       7.652   1.916  24.139  0.00  0.00    -0.304 N 
ATOM     12  H   UNL     1       7.154   1.217  23.598  0.00  0.00    +0.149 HD
ATOM     13  C   UNL     1       6.950   2.900  24.801  0.00  0.00    +0.234 C 
ATOM     14  O   UNL     1       7.521   3.699  25.547  0.00  0.00    -0.274 OA
BRANCH  11  15
ATOM     15  C   UNL     1       9.092   1.720  24.413  0.00  0.00    +0.149 C 
BRANCH  15  16
ATOM     16  C   UNL     1       9.920   2.249  23.248  0.00  0.00    +0.237 C 
ATOM     17  O   UNL     1      10.131   1.633  22.207  0.00  0.00    -0.285 OA
BRANCH  16  18
ATOM     18  C   UNL     1      10.540   3.643  23.437  0.00  0.00    +0.282 C 
ATOM     19  N   UNL     1       9.616   4.666  23.506  0.00  0.00    -0.306 N 
ATOM     20  H   UNL     1       8.635   4.421  23.403  0.00  0.00    +0.149 HD
ATOM     21  O   UNL     1      11.750   3.780  23.500  0.00  0.00    -0.267 OA
BRANCH  19  22
ATOM     22  C   UNL     1      10.006   6.035  23.632  0.00  0.00    +0.073 C 
ATOM     23  C   UNL     1      10.281   6.644  24.979  0.00  0.00    +0.024 C 
ATOM     24  C   UNL     1       9.065   7.058  24.205  0.00  0.00    +0.024 C 
ENDBRANCH  19  22
ENDBRANCH  16  18
ENDBRANCH  15  16
BRANCH  15  25
ATOM     25  C   UNL     1       9.381   0.226  24.668  0.00  0.00    +0.030 C 
BRANCH  25  27
ATOM     26  C   UNL     1       8.584  -1.841  25.899  0.00  0.00    +0.004 C 
ATOM     27  C   UNL     1       8.673  -0.321  25.915  0.00  0.00    -0.001 C 
ENDBRANCH  25  27
ENDBRANCH  15  25
ENDBRANCH  11  15
ENDBRANCH   1  13
BRANCH   3  28
ATOM     28  C   UNL     1       5.597   0.922  27.629  0.00  0.00    +0.164 C 
BRANCH  28  29
ATOM     29  N   UNL     1       5.238  -0.513  27.584  0.00  0.00    -0.302 N 
ATOM     30  H   UNL     1       4.857  -0.923  28.432  0.00  0.00    +0.150 HD
ATOM     31  C   UNL     1       4.978  -1.184  26.406  0.00  0.00    +0.234 C 
ATOM     32  O   UNL     1       5.068  -0.657  25.305  0.00  0.00    -0.274 OA
BRANCH  31  33
ATOM     33  C   UNL     1       4.590  -2.664  26.496  0.00  0.00    +0.162 C 
BRANCH  33  34
ATOM     34  C   UNL     1       4.852  -3.238  27.924  0.00  0.00    +0.018 C 
ATOM     35  C   UNL     1       5.785  -4.466  27.893  0.00  0.00    +0.006 C 
ATOM     36  C   UNL     1       5.085  -5.784  27.595  0.00  0.00    +0.000 C 
ATOM     37  C   UNL     1       3.900  -6.052  28.507  0.00  0.00    +0.000 C 
ATOM     38  C   UNL     1       2.937  -4.878  28.668  0.00  0.00    +0.000 C 
ATOM     39  C   UNL     1       3.616  -3.513  28.811  0.00  0.00    +0.006 C 
ENDBRANCH  33  34
BRANCH  33  40
ATOM     40  N   UNL     1       5.326  -3.386  25.451  0.00  0.00    -0.298 N 
ATOM     41  H   UNL     1       6.332  -3.514  25.560  0.00  0.00    +0.150 HD
ATOM     42  C   UNL     1       4.718  -3.981  24.367  0.00  0.00    +0.264 C 
ATOM     43  O   UNL     1       3.505  -3.966  24.186  0.00  0.00    -0.268 OA
BRANCH  42  44
ATOM     44  C   UNL     1       5.625  -4.650  23.390  0.00  0.00    +0.143 A 
ATOM     45  C   UNL     1       6.964  -4.837  23.718  0.00  0.00    +0.143 A 
ATOM     46  N   UNL     1       7.827  -5.479  22.895  0.00  0.00    -0.259 NA
ATOM     47  C   UNL     1       7.306  -5.938  21.731  0.00  0.00    +0.130 A 
ATOM     48  C   UNL     1       5.973  -5.740  21.400  0.00  0.00    +0.131 A 
ATOM     49  N   UNL     1       5.101  -5.094  22.213  0.00  0.00    -0.247 NA
ENDBRANCH  42  44
ENDBRANCH  33  40
ENDBRANCH  31  33
ENDBRANCH  28  29
BRANCH  28  50
ATOM     50  C   UNL     1       6.200   1.395  29.049  0.00  0.00    -0.011 C 
ATOM     51  C   UNL     1       7.643   0.858  29.179  0.00  0.00    +0.013 C 
ATOM     52  C   UNL     1       5.371   0.813  30.218  0.00  0.00    +0.013 C 
ATOM     53  C   UNL     1       6.284   2.917  29.331  0.00  0.00    +0.013 C 
ENDBRANCH  28  50
ENDBRANCH   3  28
TORSDOF 14
ENDMDL
MODEL 6
REMARK VINA RESULT:      -5.9      2.730      5.051
REMARK  Name = 
REMARK  18 active torsions:
REMARK  status: ('A' for Active; 'I' for Inactive)
REMARK    1  A    between atoms: C_1  and  C_2
REMARK    2  A    between atoms: C_2  and  C_3
REMARK    3  A    between atoms: C_3  and  C_4
REMARK    4  A    between atoms: C_4  and  C_6
REMARK    5  A    between atoms: C_4  and  N_14
REMARK    6  A    between atoms: C_6  and  C_8
REMARK    7  A    between atoms: N_10  and  C_11
REMARK    8  A    between atoms: C_15  and  C_17
REMARK    9  A    between atoms: C_28  and  C_30
REMARK   10  A    between atoms: C_30  and  C_31
REMARK   11  A    between atoms: C_30  and  N_35
REMARK   12  A    between atoms: C_31  and  C_32
REMARK   13  A    between atoms: C_31  and  C_33
REMARK   14  A    between atoms: C_31  and  C_34
REMARK   15  A    between atoms: C_36  and  C_38
REMARK   16  A    between atoms: C_38  and  C_40
REMARK   17  A    between atoms: C_38  and  N_46
REMARK   18  A    between atoms: C_47  and  C_49
REMARK                            x       y       z     vdW  Elec       q    Type
REMARK                         _______ _______ _______ _____ _____    ______ ____
ROOT
ATOM      1  C   UNL     1       6.279   1.366  26.261  0.00  0.00    +0.165 C 
ATOM      2  N   UNL     1       7.484   0.611  26.683  0.00  0.00    -0.288 N 
ATOM      3  C   UNL     1       8.037  -0.609  26.259  0.00  0.00    +0.237 C 
ATOM      4  O   UNL     1       8.737  -1.229  27.079  0.00  0.00    -0.274 OA
ATOM      5  C   UNL     1       7.752   0.905  28.103  0.00  0.00    +0.112 C 
ATOM      6  C   UNL     1       6.832   2.031  28.546  0.00  0.00    +0.012 C 
ATOM      7  C   UNL     1       5.595   1.636  29.368  0.00  0.00    +0.005 C 
ATOM      8  C   UNL     1       4.387   2.265  28.671  0.00  0.00    +0.001 C 
ATOM      9  C   UNL     1       4.964   3.213  27.635  0.00  0.00    +0.006 C 
ATOM     10  C   UNL     1       6.299   2.593  27.242  0.00  0.00    +0.023 C 
ENDROOT
BRANCH   1  13
ATOM     11  N   UNL     1       6.639   3.239  24.635  0.00  0.00    -0.304 N 
ATOM     12  H   UNL     1       7.276   3.642  25.315  0.00  0.00    +0.149 HD
ATOM     13  C   UNL     1       6.064   2.010  24.878  0.00  0.00    +0.234 C 
ATOM     14  O   UNL     1       5.210   1.545  24.120  0.00  0.00    -0.274 OA
BRANCH  11  15
ATOM     15  C   UNL     1       6.146   4.082  23.525  0.00  0.00    +0.149 C 
BRANCH  15  16
ATOM     16  C   UNL     1       7.323   4.696  22.776  0.00  0.00    +0.237 C 
ATOM     17  O   UNL     1       7.220   5.524  21.875  0.00  0.00    -0.285 OA
BRANCH  16  18
ATOM     18  C   UNL     1       8.719   4.201  23.187  0.00  0.00    +0.282 C 
ATOM     19  N   UNL     1       9.584   5.207  23.569  0.00  0.00    -0.306 N 
ATOM     20  H   UNL     1       9.242   6.163  23.522  0.00  0.00    +0.149 HD
ATOM     21  O   UNL     1       8.992   3.013  23.148  0.00  0.00    -0.267 OA
BRANCH  19  22
ATOM     22  C   UNL     1      10.939   4.945  23.939  0.00  0.00    +0.073 C 
ATOM     23  C   UNL     1      11.911   6.067  24.177  0.00  0.00    +0.024 C 
ATOM     24  C   UNL     1      12.064   5.187  22.972  0.00  0.00    +0.024 C 
ENDBRANCH  19  22
ENDBRANCH  16  18
ENDBRANCH  15  16
BRANCH  15  25
ATOM     25  C   UNL     1       5.203   5.174  24.071  0.00  0.00    +0.030 C 
BRANCH  25  27
ATOM     26  C   UNL     1       3.634   4.113  22.388  0.00  0.00    +0.004 C 
ATOM     27  C   UNL     1       3.746   4.990  23.628  0.00  0.00    -0.001 C 
ENDBRANCH  25  27
ENDBRANCH  15  25
ENDBRANCH  11  15
ENDBRANCH   1  13
BRANCH   3  28
ATOM     28  C   UNL     1       7.887  -1.217  24.808  0.00  0.00    +0.164 C 
BRANCH  28  29
ATOM     29  N   UNL     1       7.374  -2.605  24.789  0.00  0.00    -0.302 N 
ATOM     30  H   UNL     1       8.056  -3.353  24.863  0.00  0.00    +0.150 HD
ATOM     31  C   UNL     1       6.070  -2.926  25.112  0.00  0.00    +0.234 C 
ATOM     32  O   UNL     1       5.227  -2.086  25.396  0.00  0.00    -0.274 OA
BRANCH  31  33
ATOM     33  C   UNL     1       5.670  -4.406  25.080  0.00  0.00    +0.162 C 
BRANCH  33  34
ATOM     34  C   UNL     1       4.882  -4.756  23.779  0.00  0.00    +0.018 C 
ATOM     35  C   UNL     1       5.152  -6.200  23.309  0.00  0.00    +0.006 C 
ATOM     36  C   UNL     1       6.415  -6.369  22.478  0.00  0.00    +0.000 C 
ATOM     37  C   UNL     1       6.486  -5.415  21.296  0.00  0.00    +0.000 C 
ATOM     38  C   UNL     1       6.170  -3.959  21.630  0.00  0.00    +0.000 C 
ATOM     39  C   UNL     1       4.998  -3.767  22.596  0.00  0.00    +0.006 C 
ENDBRANCH  33  34
BRANCH  33  40
ATOM     40  N   UNL     1       4.906  -4.690  26.301  0.00  0.00    -0.298 N 
ATOM     41  H   UNL     1       4.092  -4.114  26.514  0.00  0.00    +0.150 HD
ATOM     42  C   UNL     1       5.174  -5.754  27.134  0.00  0.00    +0.264 C 
ATOM     43  O   UNL     1       6.072  -6.563  26.922  0.00  0.00    -0.268 OA
BRANCH  42  44
ATOM     44  C   UNL     1       4.311  -5.875  28.344  0.00  0.00    +0.143 A 
ATOM     45  C   UNL     1       3.527  -4.795  28.734  0.00  0.00    +0.143 A 
ATOM     46  N   UNL     1       2.686  -4.857  29.795  0.00  0.00    -0.259 NA
ATOM     47  C   UNL     1       2.648  -6.042  30.452  0.00  0.00    +0.130 A 
ATOM     48  C   UNL     1       3.441  -7.115  30.068  0.00  0.00    +0.131 A 
ATOM     49  N   UNL     1       4.289  -7.063  29.013  0.00  0.00    -0.247 NA
ENDBRANCH  42  44
ENDBRANCH  33  40
ENDBRANCH  31  33
ENDBRANCH  28  29
BRANCH  28  50
ATOM     50  C   UNL     1       9.221  -1.007  23.923  0.00  0.00    -0.011 C 
ATOM     51  C   UNL     1      10.122   0.035  24.624  0.00  0.00    +0.013 C 
ATOM     52  C   UNL     1       8.867  -0.461  22.521  0.00  0.00    +0.013 C 
ATOM     53  C   UNL     1      10.120  -2.242  23.662  0.00  0.00    +0.013 C 
ENDBRANCH  28  50
ENDBRANCH   3  28
TORSDOF 14
ENDMDL
MODEL 7
REMARK VINA RESULT:      -5.8      2.474      6.547
REMARK  Name = 
REMARK  18 active torsions:
REMARK  status: ('A' for Active; 'I' for Inactive)
REMARK    1  A    between atoms: C_1  and  C_2
REMARK    2  A    between atoms: C_2  and  C_3
REMARK    3  A    between atoms: C_3  and  C_4
REMARK    4  A    between atoms: C_4  and  C_6
REMARK    5  A    between atoms: C_4  and  N_14
REMARK    6  A    between atoms: C_6  and  C_8
REMARK    7  A    between atoms: N_10  and  C_11
REMARK    8  A    between atoms: C_15  and  C_17
REMARK    9  A    between atoms: C_28  and  C_30
REMARK   10  A    between atoms: C_30  and  C_31
REMARK   11  A    between atoms: C_30  and  N_35
REMARK   12  A    between atoms: C_31  and  C_32
REMARK   13  A    between atoms: C_31  and  C_33
REMARK   14  A    between atoms: C_31  and  C_34
REMARK   15  A    between atoms: C_36  and  C_38
REMARK   16  A    between atoms: C_38  and  C_40
REMARK   17  A    between atoms: C_38  and  N_46
REMARK   18  A    between atoms: C_47  and  C_49
REMARK                            x       y       z     vdW  Elec       q    Type
REMARK                         _______ _______ _______ _____ _____    ______ ____
ROOT
ATOM      1  C   UNL     1       6.201   1.713  23.943  0.00  0.00    +0.165 C 
ATOM      2  N   UNL     1       7.025   1.495  22.728  0.00  0.00    -0.288 N 
ATOM      3  C   UNL     1       8.305   0.949  22.534  0.00  0.00    +0.237 C 
ATOM      4  O   UNL     1       8.933   1.322  21.528  0.00  0.00    -0.274 OA
ATOM      5  C   UNL     1       6.678   2.525  21.732  0.00  0.00    +0.112 C 
ATOM      6  C   UNL     1       5.463   3.290  22.229  0.00  0.00    +0.012 C 
ATOM      7  C   UNL     1       5.717   4.673  22.850  0.00  0.00    +0.005 C 
ATOM      8  C   UNL     1       5.033   4.672  24.219  0.00  0.00    +0.001 C 
ATOM      9  C   UNL     1       4.188   3.410  24.249  0.00  0.00    +0.006 C 
ATOM     10  C   UNL     1       4.930   2.424  23.355  0.00  0.00    +0.023 C 
ENDROOT
BRANCH   1  13
ATOM     11  N   UNL     1       5.326   0.912  26.151  0.00  0.00    -0.304 N 
ATOM     12  H   UNL     1       5.394   1.873  26.471  0.00  0.00    +0.149 HD
ATOM     13  C   UNL     1       5.616   0.604  24.839  0.00  0.00    +0.234 C 
ATOM     14  O   UNL     1       5.641  -0.565  24.449  0.00  0.00    -0.274 OA
BRANCH  11  15
ATOM     15  C   UNL     1       5.166  -0.168  27.148  0.00  0.00    +0.149 C 
BRANCH  15  16
ATOM     16  C   UNL     1       3.686  -0.451  27.375  0.00  0.00    +0.237 C 
ATOM     17  O   UNL     1       2.992  -1.154  26.645  0.00  0.00    -0.285 OA
BRANCH  16  18
ATOM     18  C   UNL     1       3.046   0.227  28.597  0.00  0.00    +0.282 C 
ATOM     19  N   UNL     1       2.771   1.567  28.419  0.00  0.00    -0.306 N 
ATOM     20  H   UNL     1       3.032   1.986  27.530  0.00  0.00    +0.149 HD
ATOM     21  O   UNL     1       2.834  -0.407  29.618  0.00  0.00    -0.267 OA
BRANCH  19  22
ATOM     22  C   UNL     1       2.220   2.375  29.461  0.00  0.00    +0.073 C 
ATOM     23  C   UNL     1       2.401   3.869  29.464  0.00  0.00    +0.024 C 
ATOM     24  C   UNL     1       3.108   3.027  30.485  0.00  0.00    +0.024 C 
ENDBRANCH  19  22
ENDBRANCH  16  18
ENDBRANCH  15  16
BRANCH  15  25
ATOM     25  C   UNL     1       5.865   0.225  28.466  0.00  0.00    +0.030 C 
BRANCH  25  27
ATOM     26  C   UNL     1       7.329   1.920  29.652  0.00  0.00    +0.004 C 
ATOM     27  C   UNL     1       6.446   1.645  28.442  0.00  0.00    -0.001 C 
ENDBRANCH  25  27
ENDBRANCH  15  25
ENDBRANCH  11  15
ENDBRANCH   1  13
BRANCH   3  28
ATOM     28  C   UNL     1       8.974  -0.145  23.460  0.00  0.00    +0.164 C 
BRANCH  28  29
ATOM     29  N   UNL     1       8.238  -1.427  23.501  0.00  0.00    -0.302 N 
ATOM     30  H   UNL     1       7.291  -1.431  23.134  0.00  0.00    +0.150 HD
ATOM     31  C   UNL     1       8.870  -2.652  23.584  0.00  0.00    +0.234 C 
ATOM     32  O   UNL     1      10.085  -2.770  23.675  0.00  0.00    -0.274 OA
BRANCH  31  33
ATOM     33  C   UNL     1       7.994  -3.910  23.592  0.00  0.00    +0.162 C 
BRANCH  33  34
ATOM     34  C   UNL     1       7.031  -3.943  22.365  0.00  0.00    +0.018 C 
ATOM     35  C   UNL     1       5.614  -3.452  22.726  0.00  0.00    +0.006 C 
ATOM     36  C   UNL     1       4.715  -4.514  23.341  0.00  0.00    +0.000 C 
ATOM     37  C   UNL     1       4.630  -5.783  22.509  0.00  0.00    +0.000 C 
ATOM     38  C   UNL     1       5.975  -6.329  22.035  0.00  0.00    +0.000 C 
ATOM     39  C   UNL     1       6.963  -5.261  21.558  0.00  0.00    +0.006 C 
ENDBRANCH  33  34
BRANCH  33  40
ATOM     40  N   UNL     1       7.281  -3.952  24.874  0.00  0.00    -0.298 N 
ATOM     41  H   UNL     1       6.579  -3.239  25.067  0.00  0.00    +0.150 HD
ATOM     42  C   UNL     1       7.444  -4.959  25.801  0.00  0.00    +0.264 C 
ATOM     43  O   UNL     1       8.196  -5.913  25.631  0.00  0.00    -0.268 OA
BRANCH  42  44
ATOM     44  C   UNL     1       6.657  -4.825  27.061  0.00  0.00    +0.143 A 
ATOM     45  C   UNL     1       5.723  -3.802  27.178  0.00  0.00    +0.143 A 
ATOM     46  N   UNL     1       4.943  -3.655  28.276  0.00  0.00    -0.259 NA
ATOM     47  C   UNL     1       5.121  -4.575  29.256  0.00  0.00    +0.130 A 
ATOM     48  C   UNL     1       6.062  -5.589  29.142  0.00  0.00    +0.131 A 
ATOM     49  N   UNL     1       6.852  -5.742  28.051  0.00  0.00    -0.247 NA
ENDBRANCH  42  44
ENDBRANCH  33  40
ENDBRANCH  31  33
ENDBRANCH  28  29
BRANCH  28  50
ATOM     50  C   UNL     1       9.341   0.440  24.919  0.00  0.00    -0.011 C 
ATOM     51  C   UNL     1      10.877   0.435  25.084  0.00  0.00    +0.013 C 
ATOM     52  C   UNL     1       8.741  -0.451  26.032  0.00  0.00    +0.013 C 
ATOM     53  C   UNL     1       8.879   1.880  25.260  0.00  0.00    +0.013 C 
ENDBRANCH  28  50
ENDBRANCH   3  28
TORSDOF 14
ENDMDL
MODEL 8
REMARK VINA RESULT:      -5.8      2.165      5.982
REMARK  Name = 
REMARK  18 active torsions:
REMARK  status: ('A' for Active; 'I' for Inactive)
REMARK    1  A    between atoms: C_1  and  C_2
REMARK    2  A    between atoms: C_2  and  C_3
REMARK    3  A    between atoms: C_3  and  C_4
REMARK    4  A    between atoms: C_4  and  C_6
REMARK    5  A    between atoms: C_4  and  N_14
REMARK    6  A    between atoms: C_6  and  C_8
REMARK    7  A    between atoms: N_10  and  C_11
REMARK    8  A    between atoms: C_15  and  C_17
REMARK    9  A    between atoms: C_28  and  C_30
REMARK   10  A    between atoms: C_30  and  C_31
REMARK   11  A    between atoms: C_30  and  N_35
REMARK   12  A    between atoms: C_31  and  C_32
REMARK   13  A    between atoms: C_31  and  C_33
REMARK   14  A    between atoms: C_31  and  C_34
REMARK   15  A    between atoms: C_36  and  C_38
REMARK   16  A    between atoms: C_38  and  C_40
REMARK   17  A    between atoms: C_38  and  N_46
REMARK   18  A    between atoms: C_47  and  C_49
REMARK                            x       y       z     vdW  Elec       q    Type
REMARK                         _______ _______ _______ _____ _____    ______ ____
ROOT
ATOM      1  C   UNL     1       5.852   2.250  24.819  0.00  0.00    +0.165 C 
ATOM      2  N   UNL     1       6.079   3.146  25.980  0.00  0.00    -0.288 N 
ATOM      3  C   UNL     1       6.079   2.923  27.366  0.00  0.00    +0.237 C 
ATOM      4  O   UNL     1       5.816   3.895  28.096  0.00  0.00    -0.274 OA
ATOM      5  C   UNL     1       5.653   4.510  25.612  0.00  0.00    +0.112 C 
ATOM      6  C   UNL     1       5.344   4.536  24.124  0.00  0.00    +0.012 C 
ATOM      7  C   UNL     1       3.862   4.491  23.720  0.00  0.00    +0.005 C 
ATOM      8  C   UNL     1       3.717   3.347  22.714  0.00  0.00    +0.001 C 
ATOM      9  C   UNL     1       5.135   2.935  22.361  0.00  0.00    +0.006 C 
ATOM     10  C   UNL     1       5.952   3.245  23.609  0.00  0.00    +0.023 C 
ENDROOT
BRANCH   1  13
ATOM     11  N   UNL     1       8.087   1.343  24.139  0.00  0.00    -0.304 N 
ATOM     12  H   UNL     1       8.465   2.265  24.330  0.00  0.00    +0.149 HD
ATOM     13  C   UNL     1       6.761   1.077  24.402  0.00  0.00    +0.234 C 
ATOM     14  O   UNL     1       6.252   0.000  24.085  0.00  0.00    -0.274 OA
BRANCH  11  15
ATOM     15  C   UNL     1       8.895   0.385  23.354  0.00  0.00    +0.149 C 
BRANCH  15  16
ATOM     16  C   UNL     1       9.735  -0.477  24.289  0.00  0.00    +0.237 C 
ATOM     17  O   UNL     1      10.443  -0.039  25.191  0.00  0.00    -0.285 OA
BRANCH  16  18
ATOM     18  C   UNL     1       9.687  -1.993  24.037  0.00  0.00    +0.282 C 
ATOM     19  N   UNL     1       8.869  -2.683  24.909  0.00  0.00    -0.306 N 
ATOM     20  H   UNL     1       8.402  -2.150  25.638  0.00  0.00    +0.149 HD
ATOM     21  O   UNL     1      10.345  -2.494  23.141  0.00  0.00    -0.267 OA
BRANCH  19  22
ATOM     22  C   UNL     1       8.735  -4.105  24.860  0.00  0.00    +0.073 C 
ATOM     23  C   UNL     1       8.416  -4.898  26.097  0.00  0.00    +0.024 C 
ATOM     24  C   UNL     1       9.775  -5.001  25.472  0.00  0.00    +0.024 C 
ENDBRANCH  19  22
ENDBRANCH  16  18
ENDBRANCH  15  16
BRANCH  15  25
ATOM     25  C   UNL     1       9.784   1.146  22.348  0.00  0.00    +0.030 C 
BRANCH  25  27
ATOM     26  C   UNL     1      10.967   3.152  23.346  0.00  0.00    +0.004 C 
ATOM     27  C   UNL     1       9.762   2.666  22.553  0.00  0.00    -0.001 C 
ENDBRANCH  25  27
ENDBRANCH  15  25
ENDBRANCH  11  15
ENDBRANCH   1  13
BRANCH   3  28
ATOM     28  C   UNL     1       6.448   1.554  28.065  0.00  0.00    +0.164 C 
BRANCH  28  29
ATOM     29  N   UNL     1       5.523   0.447  27.739  0.00  0.00    -0.302 N 
ATOM     30  H   UNL     1       4.561   0.693  27.528  0.00  0.00    +0.150 HD
ATOM     31  C   UNL     1       5.956  -0.785  27.289  0.00  0.00    +0.234 C 
ATOM     32  O   UNL     1       7.140  -1.071  27.166  0.00  0.00    -0.274 OA
BRANCH  31  33
ATOM     33  C   UNL     1       4.894  -1.840  26.960  0.00  0.00    +0.162 C 
BRANCH  33  34
ATOM     34  C   UNL     1       4.632  -2.784  28.175  0.00  0.00    +0.018 C 
ATOM     35  C   UNL     1       5.460  -4.083  28.090  0.00  0.00    +0.006 C 
ATOM     36  C   UNL     1       4.841  -5.173  27.229  0.00  0.00    +0.000 C 
ATOM     37  C   UNL     1       3.406  -5.496  27.612  0.00  0.00    +0.000 C 
ATOM     38  C   UNL     1       2.502  -4.278  27.790  0.00  0.00    +0.000 C 
ATOM     39  C   UNL     1       3.157  -3.100  28.517  0.00  0.00    +0.006 C 
ENDBRANCH  33  34
BRANCH  33  40
ATOM     40  N   UNL     1       5.338  -2.565  25.763  0.00  0.00    -0.298 N 
ATOM     41  H   UNL     1       6.320  -2.828  25.687  0.00  0.00    +0.150 HD
ATOM     42  C   UNL     1       4.480  -2.991  24.773  0.00  0.00    +0.264 C 
ATOM     43  O   UNL     1       3.268  -2.809  24.809  0.00  0.00    -0.268 OA
BRANCH  42  44
ATOM     44  C   UNL     1       5.110  -3.691  23.616  0.00  0.00    +0.143 A 
ATOM     45  C   UNL     1       4.639  -4.943  23.235  0.00  0.00    +0.143 A 
ATOM     46  N   UNL     1       5.136  -5.608  22.165  0.00  0.00    -0.259 NA
ATOM     47  C   UNL     1       6.120  -4.976  21.478  0.00  0.00    +0.130 A 
ATOM     48  C   UNL     1       6.597  -3.732  21.867  0.00  0.00    +0.131 A 
ATOM     49  N   UNL     1       6.111  -3.059  22.939  0.00  0.00    -0.247 NA
ENDBRANCH  42  44
ENDBRANCH  33  40
ENDBRANCH  31  33
ENDBRANCH  28  29
BRANCH  28  50
ATOM     50  C   UNL     1       6.713   1.734  29.647  0.00  0.00    -0.011 C 
ATOM     51  C   UNL     1       8.058   1.063  30.005  0.00  0.00    +0.013 C 
ATOM     52  C   UNL     1       5.603   1.040  30.470  0.00  0.00    +0.013 C 
ATOM     53  C   UNL     1       6.791   3.176  30.210  0.00  0.00    +0.013 C 
ENDBRANCH  28  50
ENDBRANCH   3  28
TORSDOF 14
ENDMDL
MODEL 9
REMARK VINA RESULT:      -5.7      2.799      8.760
REMARK  Name = 
REMARK  18 active torsions:
REMARK  status: ('A' for Active; 'I' for Inactive)
REMARK    1  A    between atoms: C_1  and  C_2
REMARK    2  A    between atoms: C_2  and  C_3
REMARK    3  A    between atoms: C_3  and  C_4
REMARK    4  A    between atoms: C_4  and  C_6
REMARK    5  A    between atoms: C_4  and  N_14
REMARK    6  A    between atoms: C_6  and  C_8
REMARK    7  A    between atoms: N_10  and  C_11
REMARK    8  A    between atoms: C_15  and  C_17
REMARK    9  A    between atoms: C_28  and  C_30
REMARK   10  A    between atoms: C_30  and  C_31
REMARK   11  A    between atoms: C_30  and  N_35
REMARK   12  A    between atoms: C_31  and  C_32
REMARK   13  A    between atoms: C_31  and  C_33
REMARK   14  A    between atoms: C_31  and  C_34
REMARK   15  A    between atoms: C_36  and  C_38
REMARK   16  A    between atoms: C_38  and  C_40
REMARK   17  A    between atoms: C_38  and  N_46
REMARK   18  A    between atoms: C_47  and  C_49
REMARK                            x       y       z     vdW  Elec       q    Type
REMARK                         _______ _______ _______ _____ _____    ______ ____
ROOT
ATOM      1  C   UNL     1       7.877   0.094  24.043  0.00  0.00    +0.165 C 
ATOM      2  N   UNL     1       8.213   1.215  24.956  0.00  0.00    -0.288 N 
ATOM      3  C   UNL     1       7.421   2.090  25.717  0.00  0.00    +0.237 C 
ATOM      4  O   UNL     1       7.906   3.201  25.990  0.00  0.00    -0.274 OA
ATOM      5  C   UNL     1       9.481   1.823  24.508  0.00  0.00    +0.112 C 
ATOM      6  C   UNL     1      10.080   0.948  23.420  0.00  0.00    +0.012 C 
ATOM      7  C   UNL     1       9.907   1.426  21.969  0.00  0.00    +0.005 C 
ATOM      8  C   UNL     1       9.304   0.255  21.191  0.00  0.00    +0.001 C 
ATOM      9  C   UNL     1       9.387  -0.939  22.126  0.00  0.00    +0.006 C 
ATOM     10  C   UNL     1       9.293  -0.345  23.525  0.00  0.00    +0.023 C 
ENDROOT
BRANCH   1  13
ATOM     11  N   UNL     1       8.013  -2.214  25.009  0.00  0.00    -0.304 N 
ATOM     12  H   UNL     1       8.982  -2.013  25.230  0.00  0.00    +0.149 HD
ATOM     13  C   UNL     1       7.215  -1.233  24.461  0.00  0.00    +0.234 C 
ATOM     14  O   UNL     1       6.066  -1.479  24.089  0.00  0.00    -0.274 OA
BRANCH  11  15
ATOM     15  C   UNL     1       7.546  -3.617  25.042  0.00  0.00    +0.149 C 
BRANCH  15  16
ATOM     16  C   UNL     1       7.946  -4.267  26.361  0.00  0.00    +0.237 C 
ATOM     17  O   UNL     1       8.933  -3.956  27.020  0.00  0.00    -0.285 OA
BRANCH  16  18
ATOM     18  C   UNL     1       7.039  -5.407  26.856  0.00  0.00    +0.282 C 
ATOM     19  N   UNL     1       5.934  -5.633  26.061  0.00  0.00    -0.306 N 
ATOM     20  H   UNL     1       5.803  -5.028  25.255  0.00  0.00    +0.149 HD
ATOM     21  O   UNL     1       7.311  -6.016  27.876  0.00  0.00    -0.267 OA
BRANCH  19  22
ATOM     22  C   UNL     1       4.952  -6.619  26.388  0.00  0.00    +0.073 C 
ATOM     23  C   UNL     1       4.026  -7.171  25.339  0.00  0.00    +0.024 C 
ATOM     24  C   UNL     1       3.489  -6.274  26.415  0.00  0.00    +0.024 C 
ENDBRANCH  19  22
ENDBRANCH  16  18
ENDBRANCH  15  16
BRANCH  15  25
ATOM     25  C   UNL     1       8.124  -4.394  23.841  0.00  0.00    +0.030 C 
BRANCH  25  27
ATOM     26  C   UNL     1       7.086  -5.966  22.147  0.00  0.00    +0.004 C 
ATOM     27  C   UNL     1       7.129  -4.541  22.682  0.00  0.00    -0.001 C 
ENDBRANCH  25  27
ENDBRANCH  15  25
ENDBRANCH  11  15
ENDBRANCH   1  13
BRANCH   3  28
ATOM     28  C   UNL     1       5.994   1.743  26.303  0.00  0.00    +0.164 C 
BRANCH  28  29
ATOM     29  N   UNL     1       4.999   2.825  26.136  0.00  0.00    -0.302 N 
ATOM     30  H   UNL     1       5.350   3.744  25.884  0.00  0.00    +0.150 HD
ATOM     31  C   UNL     1       3.665   2.582  25.871  0.00  0.00    +0.234 C 
ATOM     32  O   UNL     1       3.194   1.455  25.799  0.00  0.00    -0.274 OA
BRANCH  31  33
ATOM     33  C   UNL     1       2.740   3.792  25.693  0.00  0.00    +0.162 C 
BRANCH  33  34
ATOM     34  C   UNL     1       1.568   3.772  26.723  0.00  0.00    +0.018 C 
ATOM     35  C   UNL     1       0.586   4.941  26.506  0.00  0.00    +0.006 C 
ATOM     36  C   UNL     1       1.009   6.251  27.154  0.00  0.00    +0.000 C 
ATOM     37  C   UNL     1       1.333   6.111  28.632  0.00  0.00    +0.000 C 
ATOM     38  C   UNL     1       2.250   4.940  28.978  0.00  0.00    +0.000 C 
ATOM     39  C   UNL     1       1.945   3.646  28.217  0.00  0.00    +0.006 C 
ENDBRANCH  33  34
BRANCH  33  40
ATOM     40  N   UNL     1       2.273   3.797  24.301  0.00  0.00    -0.298 N 
ATOM     41  H   UNL     1       1.284   3.630  24.117  0.00  0.00    +0.150 HD
ATOM     42  C   UNL     1       3.082   4.105  23.229  0.00  0.00    +0.264 C 
ATOM     43  O   UNL     1       4.264   4.410  23.347  0.00  0.00    -0.268 OA
BRANCH  42  44
ATOM     44  C   UNL     1       2.444   4.036  21.883  0.00  0.00    +0.143 A 
ATOM     45  C   UNL     1       2.282   5.201  21.142  0.00  0.00    +0.143 A 
ATOM     46  N   UNL     1       1.754   5.199  19.895  0.00  0.00    -0.259 NA
ATOM     47  C   UNL     1       1.397   3.986  19.405  0.00  0.00    +0.130 A 
ATOM     48  C   UNL     1       1.547   2.825  20.151  0.00  0.00    +0.131 A 
ATOM     49  N   UNL     1       2.069   2.816  21.402  0.00  0.00    -0.247 NA
ENDBRANCH  42  44
ENDBRANCH  33  40
ENDBRANCH  31  33
ENDBRANCH  28  29
BRANCH  28  50
ATOM     50  C   UNL     1       6.081   1.170  27.809  0.00  0.00    -0.011 C 
ATOM     51  C   UNL     1       5.242  -0.125  27.897  0.00  0.00    +0.013 C 
ATOM     52  C   UNL     1       5.493   2.185  28.817  0.00  0.00    +0.013 C 
ATOM     53  C   UNL     1       7.482   0.810  28.368  0.00  0.00    +0.013 C 
ENDBRANCH  28  50
ENDBRANCH   3  28
TORSDOF 14
ENDMDL
