MODEL 1
REMARK VINA RESULT:      -5.8      0.000      0.000
REMARK  Name = 
REMARK  11 active torsions:
REMARK  status: ('A' for Active; 'I' for Inactive)
REMARK    1  A    between atoms: C_1  and  C_2
REMARK    2  A    between atoms: N_4  and  C_5
REMARK    3  A    between atoms: C_7  and  N_26
REMARK    4  A    between atoms: C_10  and  C_23
REMARK    5  A    between atoms: C_13  and  C_15
REMARK    6  A    between atoms: C_15  and  C_17
REMARK    7  A    between atoms: C_15  and  O_22
REMARK    8  A    between atoms: C_17  and  C_19
REMARK    9  A    between atoms: C_17  and  O_21
REMARK   10  A    between atoms: C_19  and  O_20
REMARK   11  A    between atoms: C_23  and  O_25
REMARK                            x       y       z     vdW  Elec       q    Type
REMARK                         _______ _______ _______ _____ _____    ______ ____
ROOT
ATOM      1  C   UNL     1       7.352  -2.107  24.212  0.00  0.00    +0.145 C 
ATOM      2  C   UNL     1       8.858  -2.443  24.447  0.00  0.00    +0.174 C 
ATOM      3  O   UNL     1       9.236  -3.692  23.808  0.00  0.00    -0.357 OA
ATOM      4  C   UNL     1       8.451  -4.833  24.168  0.00  0.00    +0.230 C 
ATOM      5  C   UNL     1       6.965  -4.573  23.972  0.00  0.00    +0.089 C 
ATOM      6  C   UNL     1       6.547  -3.324  24.743  0.00  0.00    +0.214 C 
ENDROOT
BRANCH   6   7
ATOM      7  N   UNL     1       5.106  -3.117  24.570  0.00  0.00    -0.108 NA
ATOM      8  C   UNL     1       4.305  -3.538  25.478  0.00  0.00    +0.377 C 
ATOM      9  N   UNL     1       2.980  -3.386  25.296  0.00  0.00    -0.289 N 
ATOM     10  H   UNL     1       2.425  -3.154  26.104  0.00  0.00    +0.255 HD
ATOM     11  H   UNL     1       2.778  -2.801  24.494  0.00  0.00    +0.255 HD
ATOM     12  N   UNL     1       4.571  -4.188  26.631  0.00  0.00    -0.289 N 
ATOM     13  H   UNL     1       3.909  -4.137  27.389  0.00  0.00    +0.255 HD
ATOM     14  H   UNL     1       5.524  -4.362  26.922  0.00  0.00    +0.255 HD
ENDBRANCH   6   7
BRANCH   1  17
ATOM     15  C   UNL     1       6.223   1.415  25.117  0.00  0.00    +0.109 C 
ATOM     16  C   UNL     1       6.607   0.279  24.210  0.00  0.00    +0.210 C 
ATOM     17  N   UNL     1       6.911  -0.882  24.881  0.00  0.00    -0.307 N 
ATOM     18  H   UNL     1       6.854  -0.887  25.890  0.00  0.00    +0.149 HD
ATOM     19  O   UNL     1       6.627   0.404  22.989  0.00  0.00    -0.276 OA
ENDBRANCH   1  17
BRANCH   4  20
ATOM     20  C   UNL     1       8.771  -5.352  25.578  0.00  0.00    +0.334 C 
ATOM     21  O   UNL     1       7.943  -5.658  26.423  0.00  0.00    -0.248 OA
BRANCH  20  22
ATOM     22  O   UNL     1      10.107  -5.429  25.797  0.00  0.00    -0.479 OA
ATOM     23  H   UNL     1      10.378  -4.804  26.504  0.00  0.00    +0.295 HD
ENDBRANCH  20  22
ENDBRANCH   4  20
BRANCH   2  24
ATOM     24  C   UNL     1       9.882  -1.373  23.981  0.00  0.00    +0.176 C 
BRANCH  24  25
ATOM     25  O   UNL     1       9.914  -0.296  24.919  0.00  0.00    -0.387 OA
ATOM     26  H   UNL     1       9.573  -0.641  25.774  0.00  0.00    +0.210 HD
ENDBRANCH  24  25
BRANCH  24  27
ATOM     27  C   UNL     1       9.695  -0.936  22.501  0.00  0.00    +0.171 C 
BRANCH  27  28
ATOM     28  O   UNL     1      10.510  -1.713  21.615  0.00  0.00    -0.387 OA
ATOM     29  H   UNL     1      10.482  -1.278  20.741  0.00  0.00    +0.210 HD
ENDBRANCH  27  28
BRANCH  27  30
ATOM     30  C   UNL     1      10.058   0.539  22.293  0.00  0.00    +0.189 C 
BRANCH  30  31
ATOM     31  O   UNL     1       9.230   1.140  21.300  0.00  0.00    -0.392 OA
ATOM     32  H   UNL     1       9.669   1.977  21.044  0.00  0.00    +0.210 HD
ENDBRANCH  30  31
ENDBRANCH  27  30
ENDBRANCH  24  27
ENDBRANCH   2  24
TORSDOF 10
ENDMDL
MODEL 2
REMARK VINA RESULT:      -5.8      1.687      5.155
REMARK  Name = 
REMARK  11 active torsions:
REMARK  status: ('A' for Active; 'I' for Inactive)
REMARK    1  A    between atoms: C_1  and  C_2
REMARK    2  A    between atoms: N_4  and  C_5
REMARK    3  A    between atoms: C_7  and  N_26
REMARK    4  A    between atoms: C_10  and  C_23
REMARK    5  A    between atoms: C_13  and  C_15
REMARK    6  A    between atoms: C_15  and  C_17
REMARK    7  A    between atoms: C_15  and  O_22
REMARK    8  A    between atoms: C_17  and  C_19
REMARK    9  A    between atoms: C_17  and  O_21
REMARK   10  A    between atoms: C_19  and  O_20
REMARK   11  A    between atoms: C_23  and  O_25
REMARK                            x       y       z     vdW  Elec       q    Type
REMARK                         _______ _______ _______ _____ _____    ______ ____
ROOT
ATOM      1  C   UNL     1       7.458  -1.889  24.669  0.00  0.00    +0.145 C 
ATOM      2  C   UNL     1       8.534  -2.708  23.889  0.00  0.00    +0.174 C 
ATOM      3  O   UNL     1       9.859  -2.129  24.033  0.00  0.00    -0.357 OA
ATOM      4  C   UNL     1       9.975  -0.751  23.661  0.00  0.00    +0.230 C 
ATOM      5  C   UNL     1       8.946   0.109  24.379  0.00  0.00    +0.089 C 
ATOM      6  C   UNL     1       7.543  -0.436  24.128  0.00  0.00    +0.214 C 
ENDROOT
BRANCH   6   7
ATOM      7  N   UNL     1       6.568   0.432  24.797  0.00  0.00    -0.108 NA
ATOM      8  C   UNL     1       5.929   1.298  24.102  0.00  0.00    +0.377 C 
ATOM      9  N   UNL     1       5.067   2.124  24.726  0.00  0.00    -0.289 N 
ATOM     10  H   UNL     1       4.213   2.353  24.243  0.00  0.00    +0.255 HD
ATOM     11  H   UNL     1       4.917   1.847  25.689  0.00  0.00    +0.255 HD
ATOM     12  N   UNL     1       6.007   1.577  22.783  0.00  0.00    -0.289 N 
ATOM     13  H   UNL     1       5.222   2.011  22.324  0.00  0.00    +0.255 HD
ATOM     14  H   UNL     1       6.598   1.031  22.171  0.00  0.00    +0.255 HD
ENDBRANCH   6   7
BRANCH   1  17
ATOM     15  C   UNL     1       3.923  -3.214  25.162  0.00  0.00    +0.109 C 
ATOM     16  C   UNL     1       5.252  -2.641  25.570  0.00  0.00    +0.210 C 
ATOM     17  N   UNL     1       6.098  -2.406  24.512  0.00  0.00    -0.307 N 
ATOM     18  H   UNL     1       5.778  -2.623  23.578  0.00  0.00    +0.149 HD
ATOM     19  O   UNL     1       5.521  -2.405  26.744  0.00  0.00    -0.276 OA
ENDBRANCH   1  17
BRANCH   4  20
ATOM     20  C   UNL     1       9.949  -0.543  22.139  0.00  0.00    +0.334 C 
ATOM     21  O   UNL     1       9.617   0.487  21.573  0.00  0.00    -0.248 OA
BRANCH  20  22
ATOM     22  O   UNL     1      10.334  -1.658  21.471  0.00  0.00    -0.479 OA
ATOM     23  H   UNL     1       9.899  -2.454  21.845  0.00  0.00    +0.295 HD
ENDBRANCH  20  22
ENDBRANCH   4  20
BRANCH   2  24
ATOM     24  C   UNL     1       8.659  -4.209  24.265  0.00  0.00    +0.176 C 
BRANCH  24  25
ATOM     25  O   UNL     1       7.397  -4.855  24.087  0.00  0.00    -0.387 OA
ATOM     26  H   UNL     1       7.490  -5.777  24.417  0.00  0.00    +0.210 HD
ENDBRANCH  24  25
BRANCH  24  27
ATOM     27  C   UNL     1       9.322  -4.453  25.649  0.00  0.00    +0.171 C 
BRANCH  27  28
ATOM     28  O   UNL     1      10.190  -5.592  25.625  0.00  0.00    -0.387 OA
ATOM     29  H   UNL     1      10.251  -5.889  24.697  0.00  0.00    +0.210 HD
ENDBRANCH  27  28
BRANCH  27  30
ATOM     30  C   UNL     1       8.277  -4.687  26.747  0.00  0.00    +0.189 C 
BRANCH  30  31
ATOM     31  O   UNL     1       7.958  -6.071  26.870  0.00  0.00    -0.392 OA
ATOM     32  H   UNL     1       7.791  -6.398  25.963  0.00  0.00    +0.210 HD
ENDBRANCH  30  31
ENDBRANCH  27  30
ENDBRANCH  24  27
ENDBRANCH   2  24
TORSDOF 10
ENDMDL
MODEL 3
REMARK VINA RESULT:      -5.8      3.076      6.031
REMARK  Name = 
REMARK  11 active torsions:
REMARK  status: ('A' for Active; 'I' for Inactive)
REMARK    1  A    between atoms: C_1  and  C_2
REMARK    2  A    between atoms: N_4  and  C_5
REMARK    3  A    between atoms: C_7  and  N_26
REMARK    4  A    between atoms: C_10  and  C_23
REMARK    5  A    between atoms: C_13  and  C_15
REMARK    6  A    between atoms: C_15  and  C_17
REMARK    7  A    between atoms: C_15  and  O_22
REMARK    8  A    between atoms: C_17  and  C_19
REMARK    9  A    between atoms: C_17  and  O_21
REMARK   10  A    between atoms: C_19  and  O_20
REMARK   11  A    between atoms: C_23  and  O_25
REMARK                            x       y       z     vdW  Elec       q    Type
REMARK                         _______ _______ _______ _____ _____    ______ ____
ROOT
ATOM      1  C   UNL     1       8.063  -4.167  24.871  0.00  0.00    +0.145 C 
ATOM      2  C   UNL     1       6.639  -4.721  25.187  0.00  0.00    +0.174 C 
ATOM      3  O   UNL     1       6.206  -5.689  24.195  0.00  0.00    -0.357 OA
ATOM      4  C   UNL     1       6.229  -5.236  22.837  0.00  0.00    +0.230 C 
ATOM      5  C   UNL     1       7.590  -4.672  22.460  0.00  0.00    +0.089 C 
ATOM      6  C   UNL     1       7.989  -3.571  23.439  0.00  0.00    +0.214 C 
ENDROOT
BRANCH   6   7
ATOM      7  N   UNL     1       9.284  -3.017  23.031  0.00  0.00    -0.108 NA
ATOM      8  C   UNL     1       9.329  -1.827  22.559  0.00  0.00    +0.377 C 
ATOM      9  N   UNL     1      10.514  -1.337  22.145  0.00  0.00    -0.289 N 
ATOM     10  H   UNL     1      10.702  -0.365  22.328  0.00  0.00    +0.255 HD
ATOM     11  H   UNL     1      11.280  -1.946  22.404  0.00  0.00    +0.255 HD
ATOM     12  N   UNL     1       8.332  -0.942  22.349  0.00  0.00    -0.289 N 
ATOM     13  H   UNL     1       8.545   0.043  22.316  0.00  0.00    +0.255 HD
ATOM     14  H   UNL     1       7.383  -1.154  22.625  0.00  0.00    +0.255 HD
ENDBRANCH   6   7
BRANCH   1  17
ATOM     15  C   UNL     1       8.622  -1.015  26.933  0.00  0.00    +0.109 C 
ATOM     16  C   UNL     1       7.948  -1.903  25.924  0.00  0.00    +0.210 C 
ATOM     17  N   UNL     1       8.522  -3.148  25.816  0.00  0.00    -0.307 N 
ATOM     18  H   UNL     1       9.318  -3.366  26.400  0.00  0.00    +0.149 HD
ATOM     19  O   UNL     1       6.973  -1.528  25.281  0.00  0.00    -0.276 OA
ENDBRANCH   1  17
BRANCH   4  20
ATOM     20  C   UNL     1       5.085  -4.262  22.518  0.00  0.00    +0.334 C 
ATOM     21  O   UNL     1       5.198  -3.224  21.883  0.00  0.00    -0.248 OA
BRANCH  20  22
ATOM     22  O   UNL     1       3.905  -4.681  23.038  0.00  0.00    -0.479 OA
ATOM     23  H   UNL     1       3.992  -4.850  24.001  0.00  0.00    +0.295 HD
ENDBRANCH  20  22
ENDBRANCH   4  20
BRANCH   2  24
ATOM     24  C   UNL     1       6.456  -5.390  26.577  0.00  0.00    +0.176 C 
BRANCH  24  25
ATOM     25  O   UNL     1       7.700  -5.942  27.012  0.00  0.00    -0.387 OA
ATOM     26  H   UNL     1       7.494  -6.701  27.601  0.00  0.00    +0.210 HD
ENDBRANCH  24  25
BRANCH  24  27
ATOM     27  C   UNL     1       5.253  -6.373  26.641  0.00  0.00    +0.171 C 
BRANCH  27  28
ATOM     28  O   UNL     1       4.097  -5.835  25.989  0.00  0.00    -0.387 OA
ATOM     29  H   UNL     1       3.318  -6.296  26.356  0.00  0.00    +0.210 HD
ENDBRANCH  27  28
BRANCH  27  30
ATOM     30  C   UNL     1       4.862  -6.697  28.088  0.00  0.00    +0.189 C 
BRANCH  30  31
ATOM     31  O   UNL     1       5.720  -7.688  28.646  0.00  0.00    -0.392 OA
ATOM     32  H   UNL     1       6.511  -7.725  28.071  0.00  0.00    +0.210 HD
ENDBRANCH  30  31
ENDBRANCH  27  30
ENDBRANCH  24  27
ENDBRANCH   2  24
TORSDOF 10
ENDMDL
MODEL 4
REMARK VINA RESULT:      -5.8      4.233      6.627
REMARK  Name = 
REMARK  11 active torsions:
REMARK  status: ('A' for Active; 'I' for Inactive)
REMARK    1  A    between atoms: C_1  and  C_2
REMARK    2  A    between atoms: N_4  and  C_5
REMARK    3  A    between atoms: C_7  and  N_26
REMARK    4  A    between atoms: C_10  and  C_23
REMARK    5  A    between atoms: C_13  and  C_15
REMARK    6  A    between atoms: C_15  and  C_17
REMARK    7  A    between atoms: C_15  and  O_22
REMARK    8  A    between atoms: C_17  and  C_19
REMARK    9  A    between atoms: C_17  and  O_21
REMARK   10  A    between atoms: C_19  and  O_20
REMARK   11  A    between atoms: C_23  and  O_25
REMARK                            x       y       z     vdW  Elec       q    Type
REMARK                         _______ _______ _______ _____ _____    ______ ____
ROOT
ATOM      1  C   UNL     1       5.574  -5.306  24.935  0.00  0.00    +0.145 C 
ATOM      2  C   UNL     1       4.710  -6.313  25.757  0.00  0.00    +0.174 C 
ATOM      3  O   UNL     1       4.380  -5.791  27.072  0.00  0.00    -0.357 OA
ATOM      4  C   UNL     1       5.495  -5.385  27.873  0.00  0.00    +0.230 C 
ATOM      5  C   UNL     1       6.390  -4.406  27.129  0.00  0.00    +0.089 C 
ATOM      6  C   UNL     1       6.831  -5.008  25.798  0.00  0.00    +0.214 C 
ENDROOT
BRANCH   6   7
ATOM      7  N   UNL     1       7.723  -4.063  25.119  0.00  0.00    -0.108 NA
ATOM      8  C   UNL     1       8.968  -4.348  25.016  0.00  0.00    +0.377 C 
ATOM      9  N   UNL     1       9.792  -3.458  24.432  0.00  0.00    -0.289 N 
ATOM     10  H   UNL     1      10.527  -3.822  23.849  0.00  0.00    +0.255 HD
ATOM     11  H   UNL     1       9.276  -2.703  23.996  0.00  0.00    +0.255 HD
ATOM     12  N   UNL     1       9.646  -5.428  25.460  0.00  0.00    -0.289 N 
ATOM     13  H   UNL     1      10.512  -5.683  25.013  0.00  0.00    +0.255 HD
ATOM     14  H   UNL     1       9.165  -6.197  25.906  0.00  0.00    +0.255 HD
ENDBRANCH   6   7
BRANCH   1  17
ATOM     15  C   UNL     1       6.024  -6.007  21.220  0.00  0.00    +0.109 C 
ATOM     16  C   UNL     1       5.503  -5.295  22.437  0.00  0.00    +0.210 C 
ATOM     17  N   UNL     1       5.975  -5.811  23.621  0.00  0.00    -0.307 N 
ATOM     18  H   UNL     1       6.611  -6.595  23.588  0.00  0.00    +0.149 HD
ATOM     19  O   UNL     1       4.740  -4.338  22.349  0.00  0.00    -0.276 OA
ENDBRANCH   1  17
BRANCH   4  20
ATOM     20  C   UNL     1       6.281  -6.576  28.443  0.00  0.00    +0.334 C 
ATOM     21  O   UNL     1       5.785  -7.573  28.948  0.00  0.00    -0.248 OA
BRANCH  20  22
ATOM     22  O   UNL     1       7.620  -6.397  28.332  0.00  0.00    -0.479 OA
ATOM     23  H   UNL     1       7.820  -5.585  27.817  0.00  0.00    +0.295 HD
ENDBRANCH  20  22
ENDBRANCH   4  20
BRANCH   2  24
ATOM     24  C   UNL     1       3.374  -6.762  25.105  0.00  0.00    +0.176 C 
BRANCH  24  25
ATOM     25  O   UNL     1       3.642  -7.653  24.022  0.00  0.00    -0.387 OA
ATOM     26  H   UNL     1       3.701  -8.560  24.395  0.00  0.00    +0.210 HD
ENDBRANCH  24  25
BRANCH  24  27
ATOM     27  C   UNL     1       2.425  -5.582  24.754  0.00  0.00    +0.171 C 
BRANCH  27  28
ATOM     28  O   UNL     1       1.674  -5.151  25.895  0.00  0.00    -0.387 OA
ATOM     29  H   UNL     1       0.957  -4.575  25.568  0.00  0.00    +0.210 HD
ENDBRANCH  27  28
BRANCH  27  30
ATOM     30  C   UNL     1       1.425  -5.964  23.657  0.00  0.00    +0.189 C 
BRANCH  30  31
ATOM     31  O   UNL     1       2.052  -6.007  22.377  0.00  0.00    -0.392 OA
ATOM     32  H   UNL     1       1.333  -5.952  21.715  0.00  0.00    +0.210 HD
ENDBRANCH  30  31
ENDBRANCH  27  30
ENDBRANCH  24  27
ENDBRANCH   2  24
TORSDOF 10
ENDMDL
MODEL 5
REMARK VINA RESULT:      -5.6      2.243      5.205
REMARK  Name = 
REMARK  11 active torsions:
REMARK  status: ('A' for Active; 'I' for Inactive)
REMARK    1  A    between atoms: C_1  and  C_2
REMARK    2  A    between atoms: N_4  and  C_5
REMARK    3  A    between atoms: C_7  and  N_26
REMARK    4  A    between atoms: C_10  and  C_23
REMARK    5  A    between atoms: C_13  and  C_15
REMARK    6  A    between atoms: C_15  and  C_17
REMARK    7  A    between atoms: C_15  and  O_22
REMARK    8  A    between atoms: C_17  and  C_19
REMARK    9  A    between atoms: C_17  and  O_21
REMARK   10  A    between atoms: C_19  and  O_20
REMARK   11  A    between atoms: C_23  and  O_25
REMARK                            x       y       z     vdW  Elec       q    Type
REMARK                         _______ _______ _______ _____ _____    ______ ____
ROOT
ATOM      1  C   UNL     1       7.307  -2.388  24.369  0.00  0.00    +0.145 C 
ATOM      2  C   UNL     1       7.532  -2.532  22.831  0.00  0.00    +0.174 C 
ATOM      3  O   UNL     1       8.939  -2.687  22.506  0.00  0.00    -0.357 OA
ATOM      4  C   UNL     1       9.804  -1.658  22.999  0.00  0.00    +0.230 C 
ATOM      5  C   UNL     1       9.632  -1.455  24.497  0.00  0.00    +0.089 C 
ATOM      6  C   UNL     1       8.167  -1.176  24.821  0.00  0.00    +0.214 C 
ENDROOT
BRANCH   6   7
ATOM      7  N   UNL     1       8.033  -0.945  26.263  0.00  0.00    -0.108 NA
ATOM      8  C   UNL     1       7.934   0.258  26.692  0.00  0.00    +0.377 C 
ATOM      9  N   UNL     1       7.856   0.469  28.020  0.00  0.00    -0.289 N 
ATOM     10  H   UNL     1       7.243   1.203  28.336  0.00  0.00    +0.255 HD
ATOM     11  H   UNL     1       7.734  -0.397  28.529  0.00  0.00    +0.255 HD
ATOM     12  N   UNL     1       7.942   1.423  26.009  0.00  0.00    -0.289 N 
ATOM     13  H   UNL     1       7.508   2.236  26.418  0.00  0.00    +0.255 HD
ATOM     14  H   UNL     1       7.976   1.432  24.999  0.00  0.00    +0.255 HD
ENDBRANCH   6   7
BRANCH   1  17
ATOM     15  C   UNL     1       3.761  -2.649  25.730  0.00  0.00    +0.109 C 
ATOM     16  C   UNL     1       5.193  -3.057  25.521  0.00  0.00    +0.210 C 
ATOM     17  N   UNL     1       5.907  -2.178  24.742  0.00  0.00    -0.307 N 
ATOM     18  H   UNL     1       5.439  -1.357  24.384  0.00  0.00    +0.149 HD
ATOM     19  O   UNL     1       5.654  -4.078  26.022  0.00  0.00    -0.276 OA
ENDBRANCH   1  17
BRANCH   4  20
ATOM     20  C   UNL     1       9.672  -0.345  22.214  0.00  0.00    +0.334 C 
ATOM     21  O   UNL     1       9.745   0.777  22.695  0.00  0.00    -0.248 OA
BRANCH  20  22
ATOM     22  O   UNL     1       9.451  -0.565  20.895  0.00  0.00    -0.479 OA
ATOM     23  H   UNL     1      10.029  -1.286  20.562  0.00  0.00    +0.295 HD
ENDBRANCH  20  22
ENDBRANCH   4  20
BRANCH   2  24
ATOM     24  C   UNL     1       6.781  -3.699  22.135  0.00  0.00    +0.176 C 
BRANCH  24  25
ATOM     25  O   UNL     1       5.424  -3.322  21.894  0.00  0.00    -0.387 OA
ATOM     26  H   UNL     1       4.852  -4.018  22.285  0.00  0.00    +0.210 HD
ENDBRANCH  24  25
BRANCH  24  27
ATOM     27  C   UNL     1       6.955  -5.068  22.851  0.00  0.00    +0.171 C 
BRANCH  27  28
ATOM     28  O   UNL     1       8.292  -5.243  23.334  0.00  0.00    -0.387 OA
ATOM     29  H   UNL     1       8.226  -5.593  24.244  0.00  0.00    +0.210 HD
ENDBRANCH  27  28
BRANCH  27  30
ATOM     30  C   UNL     1       6.641  -6.242  21.916  0.00  0.00    +0.189 C 
BRANCH  30  31
ATOM     31  O   UNL     1       5.292  -6.194  21.460  0.00  0.00    -0.392 OA
ATOM     32  H   UNL     1       4.730  -6.166  22.260  0.00  0.00    +0.210 HD
ENDBRANCH  30  31
ENDBRANCH  27  30
ENDBRANCH  24  27
ENDBRANCH   2  24
TORSDOF 10
ENDMDL
MODEL 6
REMARK VINA RESULT:      -5.6      2.620      5.768
REMARK  Name = 
REMARK  11 active torsions:
REMARK  status: ('A' for Active; 'I' for Inactive)
REMARK    1  A    between atoms: C_1  and  C_2
REMARK    2  A    between atoms: N_4  and  C_5
REMARK    3  A    between atoms: C_7  and  N_26
REMARK    4  A    between atoms: C_10  and  C_23
REMARK    5  A    between atoms: C_13  and  C_15
REMARK    6  A    between atoms: C_15  and  C_17
REMARK    7  A    between atoms: C_15  and  O_22
REMARK    8  A    between atoms: C_17  and  C_19
REMARK    9  A    between atoms: C_17  and  O_21
REMARK   10  A    between atoms: C_19  and  O_20
REMARK   11  A    between atoms: C_23  and  O_25
REMARK                            x       y       z     vdW  Elec       q    Type
REMARK                         _______ _______ _______ _____ _____    ______ ____
ROOT
ATOM      1  C   UNL     1       8.466   0.323  25.363  0.00  0.00    +0.145 C 
ATOM      2  C   UNL     1       8.672  -1.072  24.693  0.00  0.00    +0.174 C 
ATOM      3  O   UNL     1      10.036  -1.247  24.226  0.00  0.00    -0.357 OA
ATOM      4  C   UNL     1      10.519  -0.236  23.335  0.00  0.00    +0.230 C 
ATOM      5  C   UNL     1      10.341   1.156  23.921  0.00  0.00    +0.089 C 
ATOM      6  C   UNL     1       8.880   1.379  24.303  0.00  0.00    +0.214 C 
ENDROOT
BRANCH   6   7
ATOM      7  N   UNL     1       8.728   2.740  24.828  0.00  0.00    -0.108 NA
ATOM      8  C   UNL     1       8.518   3.702  24.007  0.00  0.00    +0.377 C 
ATOM      9  N   UNL     1       8.423   4.956  24.489  0.00  0.00    -0.289 N 
ATOM     10  H   UNL     1       7.745   5.566  24.060  0.00  0.00    +0.255 HD
ATOM     11  H   UNL     1       8.381   4.965  25.500  0.00  0.00    +0.255 HD
ATOM     12  N   UNL     1       8.418   3.683  22.661  0.00  0.00    -0.289 N 
ATOM     13  H   UNL     1       7.913   4.420  22.195  0.00  0.00    +0.255 HD
ATOM     14  H   UNL     1       8.451   2.812  22.150  0.00  0.00    +0.255 HD
ENDBRANCH   6   7
BRANCH   1  17
ATOM     15  C   UNL     1       5.251   0.859  27.333  0.00  0.00    +0.109 C 
ATOM     16  C   UNL     1       6.726   0.649  27.127  0.00  0.00    +0.210 C 
ATOM     17  N   UNL     1       7.092   0.567  25.805  0.00  0.00    -0.307 N 
ATOM     18  H   UNL     1       6.374   0.652  25.098  0.00  0.00    +0.149 HD
ATOM     19  O   UNL     1       7.506   0.575  28.072  0.00  0.00    -0.276 OA
ENDBRANCH   1  17
BRANCH   4  20
ATOM     20  C   UNL     1       9.923  -0.355  21.924  0.00  0.00    +0.334 C 
ATOM     21  O   UNL     1       9.461   0.569  21.272  0.00  0.00    -0.248 OA
BRANCH  20  22
ATOM     22  O   UNL     1       9.956  -1.632  21.468  0.00  0.00    -0.479 OA
ATOM     23  H   UNL     1      10.883  -1.943  21.377  0.00  0.00    +0.295 HD
ENDBRANCH  20  22
ENDBRANCH   4  20
BRANCH   2  24
ATOM     24  C   UNL     1       8.336  -2.309  25.569  0.00  0.00    +0.176 C 
BRANCH  24  25
ATOM     25  O   UNL     1       8.592  -2.011  26.942  0.00  0.00    -0.387 OA
ATOM     26  H   UNL     1       9.530  -1.726  27.011  0.00  0.00    +0.210 HD
ENDBRANCH  24  25
BRANCH  24  27
ATOM     27  C   UNL     1       8.984  -3.627  25.060  0.00  0.00    +0.171 C 
BRANCH  27  28
ATOM     28  O   UNL     1       8.929  -3.725  23.632  0.00  0.00    -0.387 OA
ATOM     29  H   UNL     1       9.772  -4.121  23.337  0.00  0.00    +0.210 HD
ENDBRANCH  27  28
BRANCH  27  30
ATOM     30  C   UNL     1       8.287  -4.864  25.638  0.00  0.00    +0.189 C 
BRANCH  30  31
ATOM     31  O   UNL     1       8.286  -4.839  27.063  0.00  0.00    -0.392 OA
ATOM     32  H   UNL     1       9.152  -5.194  27.347  0.00  0.00    +0.210 HD
ENDBRANCH  30  31
ENDBRANCH  27  30
ENDBRANCH  24  27
ENDBRANCH   2  24
TORSDOF 10
ENDMDL
MODEL 7
REMARK VINA RESULT:      -5.5      2.976      6.220
REMARK  Name = 
REMARK  11 active torsions:
REMARK  status: ('A' for Active; 'I' for Inactive)
REMARK    1  A    between atoms: C_1  and  C_2
REMARK    2  A    between atoms: N_4  and  C_5
REMARK    3  A    between atoms: C_7  and  N_26
REMARK    4  A    between atoms: C_10  and  C_23
REMARK    5  A    between atoms: C_13  and  C_15
REMARK    6  A    between atoms: C_15  and  C_17
REMARK    7  A    between atoms: C_15  and  O_22
REMARK    8  A    between atoms: C_17  and  C_19
REMARK    9  A    between atoms: C_17  and  O_21
REMARK   10  A    between atoms: C_19  and  O_20
REMARK   11  A    between atoms: C_23  and  O_25
REMARK                            x       y       z     vdW  Elec       q    Type
REMARK                         _______ _______ _______ _____ _____    ______ ____
ROOT
ATOM      1  C   UNL     1       6.590  -4.253  26.139  0.00  0.00    +0.145 C 
ATOM      2  C   UNL     1       5.891  -4.961  24.936  0.00  0.00    +0.174 C 
ATOM      3  O   UNL     1       6.857  -5.550  24.025  0.00  0.00    -0.357 OA
ATOM      4  C   UNL     1       7.851  -4.656  23.514  0.00  0.00    +0.230 C 
ATOM      5  C   UNL     1       8.570  -3.921  24.636  0.00  0.00    +0.089 C 
ATOM      6  C   UNL     1       7.556  -3.204  25.524  0.00  0.00    +0.214 C 
ENDROOT
BRANCH   6   7
ATOM      7  N   UNL     1       8.275  -2.472  26.572  0.00  0.00    -0.108 NA
ATOM      8  C   UNL     1       8.394  -1.201  26.470  0.00  0.00    +0.377 C 
ATOM      9  N   UNL     1       9.093  -0.537  27.411  0.00  0.00    -0.289 N 
ATOM     10  H   UNL     1       8.748   0.367  27.691  0.00  0.00    +0.255 HD
ATOM     11  H   UNL     1       9.323  -1.135  28.196  0.00  0.00    +0.255 HD
ATOM     12  N   UNL     1       7.958  -0.366  25.503  0.00  0.00    -0.289 N 
ATOM     13  H   UNL     1       7.810   0.606  25.721  0.00  0.00    +0.255 HD
ATOM     14  H   UNL     1       7.400  -0.710  24.733  0.00  0.00    +0.255 HD
ENDBRANCH   6   7
BRANCH   1  17
ATOM     15  C   UNL     1       4.358  -3.256  29.059  0.00  0.00    +0.109 C 
ATOM     16  C   UNL     1       5.382  -4.072  28.320  0.00  0.00    +0.210 C 
ATOM     17  N   UNL     1       5.658  -3.599  27.059  0.00  0.00    -0.307 N 
ATOM     18  H   UNL     1       5.175  -2.771  26.736  0.00  0.00    +0.149 HD
ATOM     19  O   UNL     1       5.912  -5.057  28.826  0.00  0.00    -0.276 OA
ENDBRANCH   1  17
BRANCH   4  20
ATOM     20  C   UNL     1       7.296  -3.697  22.451  0.00  0.00    +0.334 C 
ATOM     21  O   UNL     1       7.647  -2.537  22.292  0.00  0.00    -0.248 OA
BRANCH  20  22
ATOM     22  O   UNL     1       6.340  -4.285  21.690  0.00  0.00    -0.479 OA
ATOM     23  H   UNL     1       6.361  -5.260  21.800  0.00  0.00    +0.295 HD
ENDBRANCH  20  22
ENDBRANCH   4  20
BRANCH   2  24
ATOM     24  C   UNL     1       4.874  -6.078  25.295  0.00  0.00    +0.176 C 
BRANCH  24  25
ATOM     25  O   UNL     1       5.358  -6.831  26.407  0.00  0.00    -0.387 OA
ATOM     26  H   UNL     1       4.671  -7.496  26.633  0.00  0.00    +0.210 HD
ENDBRANCH  24  25
BRANCH  24  27
ATOM     27  C   UNL     1       4.434  -6.935  24.075  0.00  0.00    +0.171 C 
BRANCH  27  28
ATOM     28  O   UNL     1       4.429  -6.167  22.865  0.00  0.00    -0.387 OA
ATOM     29  H   UNL     1       5.196  -5.564  22.903  0.00  0.00    +0.210 HD
ENDBRANCH  27  28
BRANCH  27  30
ATOM     30  C   UNL     1       3.026  -7.513  24.264  0.00  0.00    +0.189 C 
BRANCH  30  31
ATOM     31  O   UNL     1       3.025  -8.565  25.226  0.00  0.00    -0.392 OA
ATOM     32  H   UNL     1       2.691  -9.361  24.764  0.00  0.00    +0.210 HD
ENDBRANCH  30  31
ENDBRANCH  27  30
ENDBRANCH  24  27
ENDBRANCH   2  24
TORSDOF 10
ENDMDL
MODEL 8
REMARK VINA RESULT:      -5.4      2.265      3.494
REMARK  Name = 
REMARK  11 active torsions:
REMARK  status: ('A' for Active; 'I' for Inactive)
REMARK    1  A    between atoms: C_1  and  C_2
REMARK    2  A    between atoms: N_4  and  C_5
REMARK    3  A    between atoms: C_7  and  N_26
REMARK    4  A    between atoms: C_10  and  C_23
REMARK    5  A    between atoms: C_13  and  C_15
REMARK    6  A    between atoms: C_15  and  C_17
REMARK    7  A    between atoms: C_15  and  O_22
REMARK    8  A    between atoms: C_17  and  C_19
REMARK    9  A    between atoms: C_17  and  O_21
REMARK   10  A    between atoms: C_19  and  O_20
REMARK   11  A    between atoms: C_23  and  O_25
REMARK                            x       y       z     vdW  Elec       q    Type
REMARK                         _______ _______ _______ _____ _____    ______ ____
ROOT
ATOM      1  C   UNL     1       6.750  -0.700  24.616  0.00  0.00    +0.145 C 
ATOM      2  C   UNL     1       7.596   0.113  23.587  0.00  0.00    +0.174 C 
ATOM      3  O   UNL     1       7.724  -0.590  22.322  0.00  0.00    -0.357 OA
ATOM      4  C   UNL     1       8.255  -1.917  22.403  0.00  0.00    +0.230 C 
ATOM      5  C   UNL     1       7.482  -2.768  23.399  0.00  0.00    +0.089 C 
ATOM      6  C   UNL     1       7.450  -2.079  24.761  0.00  0.00    +0.214 C 
ENDROOT
BRANCH   6   7
ATOM      7  N   UNL     1       6.735  -2.936  25.712  0.00  0.00    -0.108 NA
ATOM      8  C   UNL     1       7.409  -3.711  26.477  0.00  0.00    +0.377 C 
ATOM      9  N   UNL     1       6.748  -4.529  27.319  0.00  0.00    -0.289 N 
ATOM     10  H   UNL     1       7.146  -4.673  28.232  0.00  0.00    +0.255 HD
ATOM     11  H   UNL     1       5.758  -4.314  27.346  0.00  0.00    +0.255 HD
ATOM     12  N   UNL     1       8.744  -3.898  26.559  0.00  0.00    -0.289 N 
ATOM     13  H   UNL     1       9.140  -4.252  27.416  0.00  0.00    +0.255 HD
ATOM     14  H   UNL     1       9.381  -3.344  26.004  0.00  0.00    +0.255 HD
ENDBRANCH   6   7
BRANCH   1  17
ATOM     15  C   UNL     1       5.667   1.268  27.691  0.00  0.00    +0.109 C 
ATOM     16  C   UNL     1       5.531   0.660  26.322  0.00  0.00    +0.210 C 
ATOM     17  N   UNL     1       6.636  -0.054  25.925  0.00  0.00    -0.307 N 
ATOM     18  H   UNL     1       7.424  -0.119  26.556  0.00  0.00    +0.149 HD
ATOM     19  O   UNL     1       4.513   0.798  25.651  0.00  0.00    -0.276 OA
ENDBRANCH   1  17
BRANCH   4  20
ATOM     20  C   UNL     1       9.767  -1.935  22.671  0.00  0.00    +0.334 C 
ATOM     21  O   UNL     1      10.332  -2.651  23.485  0.00  0.00    -0.248 OA
BRANCH  20  22
ATOM     22  O   UNL     1      10.428  -1.041  21.895  0.00  0.00    -0.479 OA
ATOM     23  H   UNL     1      11.360  -0.947  22.192  0.00  0.00    +0.295 HD
ENDBRANCH  20  22
ENDBRANCH   4  20
BRANCH   2  24
ATOM     24  C   UNL     1       7.085   1.542  23.256  0.00  0.00    +0.176 C 
BRANCH  24  25
ATOM     25  O   UNL     1       5.713   1.483  22.863  0.00  0.00    -0.387 OA
ATOM     26  H   UNL     1       5.354   0.624  23.177  0.00  0.00    +0.210 HD
ENDBRANCH  24  25
BRANCH  24  27
ATOM     27  C   UNL     1       8.007   2.322  22.277  0.00  0.00    +0.171 C 
BRANCH  27  28
ATOM     28  O   UNL     1       7.997   1.741  20.968  0.00  0.00    -0.387 OA
ATOM     29  H   UNL     1       7.237   2.124  20.488  0.00  0.00    +0.210 HD
ENDBRANCH  27  28
BRANCH  27  30
ATOM     30  C   UNL     1       9.461   2.346  22.764  0.00  0.00    +0.189 C 
BRANCH  30  31
ATOM     31  O   UNL     1      10.368   2.096  21.693  0.00  0.00    -0.392 OA
ATOM     32  H   UNL     1      11.229   2.473  21.966  0.00  0.00    +0.210 HD
ENDBRANCH  30  31
ENDBRANCH  27  30
ENDBRANCH  24  27
ENDBRANCH   2  24
TORSDOF 10
ENDMDL
MODEL 9
REMARK VINA RESULT:      -5.3      2.675      4.752
REMARK  Name = 
REMARK  11 active torsions:
REMARK  status: ('A' for Active; 'I' for Inactive)
REMARK    1  A    between atoms: C_1  and  C_2
REMARK    2  A    between atoms: N_4  and  C_5
REMARK    3  A    between atoms: C_7  and  N_26
REMARK    4  A    between atoms: C_10  and  C_23
REMARK    5  A    between atoms: C_13  and  C_15
REMARK    6  A    between atoms: C_15  and  C_17
REMARK    7  A    between atoms: C_15  and  O_22
REMARK    8  A    between atoms: C_17  and  C_19
REMARK    9  A    between atoms: C_17  and  O_21
REMARK   10  A    between atoms: C_19  and  O_20
REMARK   11  A    between atoms: C_23  and  O_25
REMARK                            x       y       z     vdW  Elec       q    Type
REMARK                         _______ _______ _______ _____ _____    ______ ____
ROOT
ATOM      1  C   UNL     1       7.173  -2.073  24.506  0.00  0.00    +0.145 C 
ATOM      2  C   UNL     1       6.713  -3.494  24.050  0.00  0.00    +0.174 C 
ATOM      3  O   UNL     1       6.748  -4.447  25.145  0.00  0.00    -0.357 OA
ATOM      4  C   UNL     1       8.005  -4.568  25.820  0.00  0.00    +0.230 C 
ATOM      5  C   UNL     1       8.521  -3.215  26.286  0.00  0.00    +0.089 C 
ATOM      6  C   UNL     1       8.594  -2.249  25.107  0.00  0.00    +0.214 C 
ENDROOT
BRANCH   6   7
ATOM      7  N   UNL     1       9.130  -0.966  25.574  0.00  0.00    -0.108 NA
ATOM      8  C   UNL     1       9.986  -0.349  24.847  0.00  0.00    +0.377 C 
ATOM      9  N   UNL     1      10.509   0.806  25.299  0.00  0.00    -0.289 N 
ATOM     10  H   UNL     1      10.672   1.536  24.624  0.00  0.00    +0.255 HD
ATOM     11  H   UNL     1      10.031   1.132  26.130  0.00  0.00    +0.255 HD
ATOM     12  N   UNL     1      10.522  -0.699  23.658  0.00  0.00    -0.289 N 
ATOM     13  H   UNL     1      10.890   0.018  23.053  0.00  0.00    +0.255 HD
ATOM     14  H   UNL     1      10.218  -1.534  23.177  0.00  0.00    +0.255 HD
ENDBRANCH   6   7
BRANCH   1  17
ATOM     15  C   UNL     1       6.810   0.999  22.285  0.00  0.00    +0.109 C 
ATOM     16  C   UNL     1       6.707   0.188  23.547  0.00  0.00    +0.210 C 
ATOM     17  N   UNL     1       7.203  -1.089  23.423  0.00  0.00    -0.307 N 
ATOM     18  H   UNL     1       7.585  -1.375  22.532  0.00  0.00    +0.149 HD
ATOM     19  O   UNL     1       6.232   0.653  24.578  0.00  0.00    -0.276 OA
ENDBRANCH   1  17
BRANCH   4  20
ATOM     20  C   UNL     1       9.049  -5.337  24.996  0.00  0.00    +0.334 C 
ATOM     21  O   UNL     1       8.892  -5.734  23.851  0.00  0.00    -0.248 OA
BRANCH  20  22
ATOM     22  O   UNL     1      10.192  -5.544  25.695  0.00  0.00    -0.479 OA
ATOM     23  H   UNL     1      10.931  -5.021  25.314  0.00  0.00    +0.295 HD
ENDBRANCH  20  22
ENDBRANCH   4  20
BRANCH   2  24
ATOM     24  C   UNL     1       5.297  -3.587  23.420  0.00  0.00    +0.176 C 
BRANCH  24  25
ATOM     25  O   UNL     1       4.313  -3.236  24.394  0.00  0.00    -0.387 OA
ATOM     26  H   UNL     1       4.572  -3.663  25.240  0.00  0.00    +0.210 HD
ENDBRANCH  24  25
BRANCH  24  27
ATOM     27  C   UNL     1       5.030  -4.930  22.684  0.00  0.00    +0.171 C 
BRANCH  27  28
ATOM     28  O   UNL     1       5.007  -6.035  23.596  0.00  0.00    -0.387 OA
ATOM     29  H   UNL     1       5.766  -6.608  23.374  0.00  0.00    +0.210 HD
ENDBRANCH  27  28
BRANCH  27  30
ATOM     30  C   UNL     1       6.101  -5.222  21.627  0.00  0.00    +0.189 C 
BRANCH  30  31
ATOM     31  O   UNL     1       6.836  -6.401  21.947  0.00  0.00    -0.392 OA
ATOM     32  H   UNL     1       6.180  -7.064  22.242  0.00  0.00    +0.210 HD
ENDBRANCH  30  31
ENDBRANCH  27  30
ENDBRANCH  24  27
ENDBRANCH   2  24
TORSDOF 10
ENDMDL
