MODEL 1
REMARK VINA RESULT:      -6.7      0.000      0.000
REMARK  Name = 
REMARK  19 active torsions:
REMARK  status: ('A' for Active; 'I' for Inactive)
REMARK    1  A    between atoms: C_1  and  C_2
REMARK    2  A    between atoms: C_2  and  C_3
REMARK    3  A    between atoms: C_2  and  C_4
REMARK    4  A    between atoms: C_4  and  N_5
REMARK    5  A    between atoms: N_5  and  C_6
REMARK    6  A    between atoms: N_5  and  S_32
REMARK    7  A    between atoms: C_6  and  C_7
REMARK    8  A    between atoms: C_7  and  C_8
REMARK    9  A    between atoms: C_7  and  O_27
REMARK   10  A    between atoms: C_8  and  C_10
REMARK   11  A    between atoms: C_8  and  N_17
REMARK   12  A    between atoms: C_10  and  C_11
REMARK   13  A    between atoms: C_18  and  O_20
REMARK   14  A    between atoms: O_20  and  C_21
REMARK   15  A    between atoms: O_27  and  P_28
REMARK   16  A    between atoms: P_28  and  O_30
REMARK   17  A    between atoms: P_28  and  O_31
REMARK   18  A    between atoms: S_32  and  C_35
REMARK   19  A    between atoms: C_38  and  N_41
REMARK                            x       y       z     vdW  Elec       q    Type
REMARK                         _______ _______ _______ _____ _____    ______ ____
ROOT
ATOM      1  C   UNL     1       6.435  -5.132  26.803  0.00  0.00    +0.166 C 
ENDROOT
BRANCH   1   2
ATOM      2  C   UNL     1       5.042  -4.581  26.285  0.00  0.00    +0.111 C 
BRANCH   2   3
ATOM      3  N   UNL     1       5.155  -3.163  25.862  0.00  0.00    -0.275 N 
ATOM      4  H   UNL     1       5.526  -2.997  24.936  0.00  0.00    +0.152 HD
ATOM      5  C   UNL     1       4.572  -2.057  26.409  0.00  0.00    +0.401 C 
ATOM      6  O   UNL     1       4.002  -2.065  27.487  0.00  0.00    -0.226 OA
BRANCH   5   7
ATOM      7  O   UNL     1       4.677  -0.984  25.566  0.00  0.00    -0.445 OA
BRANCH   7   8
ATOM      8  C   UNL     1       5.085   0.243  26.212  0.00  0.00    +0.206 C 
ATOM      9  C   UNL     1       5.241   1.418  25.244  0.00  0.00    +0.204 C 
ATOM     10  O   UNL     1       6.366   2.207  25.668  0.00  0.00    -0.376 OA
ATOM     11  C   UNL     1       6.839   1.659  26.900  0.00  0.00    +0.163 C 
ATOM     12  C   UNL     1       6.468   0.189  26.851  0.00  0.00    +0.075 C 
ENDBRANCH   7   8
ENDBRANCH   5   7
ENDBRANCH   2   3
BRANCH   2  13
ATOM     13  C   UNL     1       4.356  -5.632  25.346  0.00  0.00    +0.060 C 
BRANCH  13  14
ATOM     14  C   UNL     1       3.018  -5.389  24.678  0.00  0.00    -0.046 A 
ATOM     15  C   UNL     1       2.766  -6.054  23.455  0.00  0.00    +0.004 A 
ATOM     16  C   UNL     1       1.559  -5.893  22.773  0.00  0.00    +0.000 A 
ATOM     17  C   UNL     1       0.585  -5.050  23.292  0.00  0.00    +0.000 A 
ATOM     18  C   UNL     1       0.835  -4.366  24.485  0.00  0.00    +0.000 A 
ATOM     19  C   UNL     1       2.041  -4.526  25.171  0.00  0.00    +0.004 A 
ENDBRANCH  13  14
ENDBRANCH   2  13
ENDBRANCH   1   2
BRANCH   1  20
ATOM     20  O   UNL     1       6.232  -6.422  27.383  0.00  0.00    -0.280 OA
BRANCH  20  21
ATOM     21  P   UNL     1       5.897  -6.580  28.940  0.00  0.00    +0.473 P 
ATOM     22  O   UNL     1       5.859  -5.326  29.741  0.00  0.00    -0.228 OA
BRANCH  21  23
ATOM     23  O   UNL     1       4.513  -7.372  29.017  0.00  0.00    -0.303 OA
ATOM     24  H   UNL     1       4.548  -8.165  28.451  0.00  0.00    +0.222 HD
ENDBRANCH  21  23
BRANCH  21  25
ATOM     25  O   UNL     1       6.914  -7.637  29.557  0.00  0.00    -0.303 OA
ATOM     26  H   UNL     1       7.481  -8.012  28.856  0.00  0.00    +0.222 HD
ENDBRANCH  21  25
ENDBRANCH  20  21
ENDBRANCH   1  20
BRANCH   1  27
ATOM     27  C   UNL     1       7.496  -5.197  25.675  0.00  0.00    +0.143 C 
BRANCH  27  28
ATOM     28  N   UNL     1       7.460  -4.229  24.480  0.00  0.00    -0.174 NA
BRANCH  28  29
ATOM     29  S   UNL     1       8.913  -3.173  24.734  0.00  0.00    +0.061 S 
ATOM     30  O   UNL     1      10.066  -3.993  24.412  0.00  0.00    -0.153 OA
ATOM     31  O   UNL     1       8.793  -2.549  26.037  0.00  0.00    -0.153 OA
BRANCH  29  32
ATOM     32  C   UNL     1       8.827  -1.846  23.564  0.00  0.00    +0.106 A 
ATOM     33  C   UNL     1       9.875  -1.651  22.657  0.00  0.00    +0.030 A 
ATOM     34  C   UNL     1       9.864  -0.537  21.810  0.00  0.00    +0.024 A 
ATOM     35  C   UNL     1       8.798   0.367  21.837  0.00  0.00    +0.025 A 
ATOM     36  C   UNL     1       7.833   0.234  22.842  0.00  0.00    +0.024 A 
ATOM     37  C   UNL     1       7.834  -0.875  23.697  0.00  0.00    +0.030 A 
BRANCH  35  38
ATOM     38  N   UNL     1       8.826   1.512  21.032  0.00  0.00    -0.358 N 
ATOM     39  H   UNL     1       9.665   1.588  20.464  0.00  0.00    +0.142 HD
ATOM     40  H   UNL     1       7.985   1.633  20.475  0.00  0.00    +0.142 HD
ENDBRANCH  35  38
ENDBRANCH  29  32
ENDBRANCH  28  29
BRANCH  28  41
ATOM     41  C   UNL     1       7.488  -4.829  23.081  0.00  0.00    +0.112 C 
BRANCH  41  43
ATOM     42  C   UNL     1       5.683  -3.403  21.946  0.00  0.00    +0.008 C 
ATOM     43  C   UNL     1       6.156  -4.812  22.294  0.00  0.00    -0.001 C 
ATOM     44  C   UNL     1       6.238  -5.595  20.969  0.00  0.00    +0.008 C 
ENDBRANCH  41  43
ENDBRANCH  28  41
ENDBRANCH  27  28
ENDBRANCH   1  27
TORSDOF 17
ENDMDL
MODEL 2
REMARK VINA RESULT:      -6.5      4.071      7.731
REMARK  Name = 
REMARK  19 active torsions:
REMARK  status: ('A' for Active; 'I' for Inactive)
REMARK    1  A    between atoms: C_1  and  C_2
REMARK    2  A    between atoms: C_2  and  C_3
REMARK    3  A    between atoms: C_2  and  C_4
REMARK    4  A    between atoms: C_4  and  N_5
REMARK    5  A    between atoms: N_5  and  C_6
REMARK    6  A    between atoms: N_5  and  S_32
REMARK    7  A    between atoms: C_6  and  C_7
REMARK    8  A    between atoms: C_7  and  C_8
REMARK    9  A    between atoms: C_7  and  O_27
REMARK   10  A    between atoms: C_8  and  C_10
REMARK   11  A    between atoms: C_8  and  N_17
REMARK   12  A    between atoms: C_10  and  C_11
REMARK   13  A    between atoms: C_18  and  O_20
REMARK   14  A    between atoms: O_20  and  C_21
REMARK   15  A    between atoms: O_27  and  P_28
REMARK   16  A    between atoms: P_28  and  O_30
REMARK   17  A    between atoms: P_28  and  O_31
REMARK   18  A    between atoms: S_32  and  C_35
REMARK   19  A    between atoms: C_38  and  N_41
REMARK                            x       y       z     vdW  Elec       q    Type
REMARK                         _______ _______ _______ _____ _____    ______ ____
ROOT
ATOM      1  C   UNL     1       7.298   0.378  23.882  0.00  0.00    +0.166 C 
ENDROOT
BRANCH   1   2
ATOM      2  C   UNL     1       6.523  -0.774  24.648  0.00  0.00    +0.111 C 
BRANCH   2   3
ATOM      3  N   UNL     1       5.902  -1.725  23.691  0.00  0.00    -0.275 N 
ATOM      4  H   UNL     1       6.380  -1.853  22.809  0.00  0.00    +0.152 HD
ATOM      5  C   UNL     1       4.944  -2.669  23.922  0.00  0.00    +0.401 C 
ATOM      6  O   UNL     1       4.305  -2.735  24.959  0.00  0.00    -0.226 OA
BRANCH   5   7
ATOM      7  O   UNL     1       4.852  -3.536  22.867  0.00  0.00    -0.445 OA
BRANCH   7   8
ATOM      8  C   UNL     1       6.108  -4.131  22.474  0.00  0.00    +0.206 C 
ATOM      9  C   UNL     1       6.073  -4.763  21.080  0.00  0.00    +0.204 C 
ATOM     10  O   UNL     1       6.866  -5.962  21.107  0.00  0.00    -0.376 OA
ATOM     11  C   UNL     1       7.482  -6.045  22.394  0.00  0.00    +0.163 C 
ATOM     12  C   UNL     1       6.542  -5.314  23.333  0.00  0.00    +0.075 C 
ENDBRANCH   7   8
ENDBRANCH   5   7
ENDBRANCH   2   3
BRANCH   2  13
ATOM     13  C   UNL     1       7.384  -1.309  25.843  0.00  0.00    +0.060 C 
BRANCH  13  14
ATOM     14  C   UNL     1       8.092  -2.649  25.813  0.00  0.00    -0.046 A 
ATOM     15  C   UNL     1       9.078  -2.846  24.819  0.00  0.00    +0.004 A 
ATOM     16  C   UNL     1       9.784  -4.046  24.720  0.00  0.00    +0.000 A 
ATOM     17  C   UNL     1       9.505  -5.081  25.605  0.00  0.00    +0.000 A 
ATOM     18  C   UNL     1       8.511  -4.907  26.572  0.00  0.00    +0.000 A 
ATOM     19  C   UNL     1       7.805  -3.705  26.675  0.00  0.00    +0.004 A 
ENDBRANCH  13  14
ENDBRANCH   2  13
ENDBRANCH   1   2
BRANCH   1  20
ATOM     20  O   UNL     1       7.709  -0.115  22.606  0.00  0.00    -0.280 OA
BRANCH  20  21
ATOM     21  P   UNL     1       9.145   0.255  22.005  0.00  0.00    +0.473 P 
ATOM     22  O   UNL     1      10.229   0.519  22.991  0.00  0.00    -0.228 OA
BRANCH  21  23
ATOM     23  O   UNL     1       9.529  -0.933  21.011  0.00  0.00    -0.303 OA
ATOM     24  H   UNL     1      10.456  -0.844  20.725  0.00  0.00    +0.222 HD
ENDBRANCH  21  23
BRANCH  21  25
ATOM     25  O   UNL     1       8.958   1.476  21.001  0.00  0.00    -0.303 OA
ATOM     26  H   UNL     1       8.010   1.675  20.883  0.00  0.00    +0.222 HD
ENDBRANCH  21  25
ENDBRANCH  20  21
ENDBRANCH   1  20
BRANCH   1  27
ATOM     27  C   UNL     1       6.440   1.659  23.727  0.00  0.00    +0.143 C 
BRANCH  27  28
ATOM     28  N   UNL     1       6.759   2.941  24.516  0.00  0.00    -0.174 NA
BRANCH  28  29
ATOM     29  S   UNL     1       7.045   4.184  23.225  0.00  0.00    +0.061 S 
ATOM     30  O   UNL     1       6.100   5.255  23.483  0.00  0.00    -0.153 OA
ATOM     31  O   UNL     1       7.058   3.506  21.944  0.00  0.00    -0.153 OA
BRANCH  29  32
ATOM     32  C   UNL     1       8.683   4.821  23.441  0.00  0.00    +0.106 A 
ATOM     33  C   UNL     1       9.776   3.948  23.427  0.00  0.00    +0.030 A 
ATOM     34  C   UNL     1      11.057   4.432  23.711  0.00  0.00    +0.024 A 
ATOM     35  C   UNL     1      11.263   5.789  23.979  0.00  0.00    +0.025 A 
ATOM     36  C   UNL     1      10.145   6.618  24.126  0.00  0.00    +0.024 A 
ATOM     37  C   UNL     1       8.858   6.145  23.846  0.00  0.00    +0.030 A 
BRANCH  35  38
ATOM     38  N   UNL     1      12.537   6.253  24.325  0.00  0.00    -0.358 N 
ATOM     39  H   UNL     1      13.291   5.676  23.963  0.00  0.00    +0.142 HD
ATOM     40  H   UNL     1      12.681   7.235  24.109  0.00  0.00    +0.142 HD
ENDBRANCH  35  38
ENDBRANCH  29  32
ENDBRANCH  28  29
BRANCH  28  41
ATOM     41  C   UNL     1       5.716   3.444  25.503  0.00  0.00    +0.112 C 
BRANCH  41  43
ATOM     42  C   UNL     1       6.930   2.528  27.568  0.00  0.00    +0.008 C 
ATOM     43  C   UNL     1       6.204   3.717  26.946  0.00  0.00    -0.001 C 
ATOM     44  C   UNL     1       7.163   4.921  27.031  0.00  0.00    +0.008 C 
ENDBRANCH  41  43
ENDBRANCH  28  41
ENDBRANCH  27  28
ENDBRANCH   1  27
TORSDOF 17
ENDMDL
MODEL 3
REMARK VINA RESULT:      -6.5      2.712      5.945
REMARK  Name = 
REMARK  19 active torsions:
REMARK  status: ('A' for Active; 'I' for Inactive)
REMARK    1  A    between atoms: C_1  and  C_2
REMARK    2  A    between atoms: C_2  and  C_3
REMARK    3  A    between atoms: C_2  and  C_4
REMARK    4  A    between atoms: C_4  and  N_5
REMARK    5  A    between atoms: N_5  and  C_6
REMARK    6  A    between atoms: N_5  and  S_32
REMARK    7  A    between atoms: C_6  and  C_7
REMARK    8  A    between atoms: C_7  and  C_8
REMARK    9  A    between atoms: C_7  and  O_27
REMARK   10  A    between atoms: C_8  and  C_10
REMARK   11  A    between atoms: C_8  and  N_17
REMARK   12  A    between atoms: C_10  and  C_11
REMARK   13  A    between atoms: C_18  and  O_20
REMARK   14  A    between atoms: O_20  and  C_21
REMARK   15  A    between atoms: O_27  and  P_28
REMARK   16  A    between atoms: P_28  and  O_30
REMARK   17  A    between atoms: P_28  and  O_31
REMARK   18  A    between atoms: S_32  and  C_35
REMARK   19  A    between atoms: C_38  and  N_41
REMARK                            x       y       z     vdW  Elec       q    Type
REMARK                         _______ _______ _______ _____ _____    ______ ____
ROOT
ATOM      1  C   UNL     1       6.761  -1.668  25.220  0.00  0.00    +0.166 C 
ENDROOT
BRANCH   1   2
ATOM      2  C   UNL     1       7.963  -2.694  25.348  0.00  0.00    +0.111 C 
BRANCH   2   3
ATOM      3  N   UNL     1       7.678  -3.722  26.379  0.00  0.00    -0.275 N 
ATOM      4  H   UNL     1       6.729  -3.765  26.723  0.00  0.00    +0.152 HD
ATOM      5  C   UNL     1       8.423  -4.810  26.733  0.00  0.00    +0.401 C 
ATOM      6  O   UNL     1       9.570  -4.986  26.357  0.00  0.00    -0.226 OA
BRANCH   5   7
ATOM      7  O   UNL     1       7.691  -5.671  27.505  0.00  0.00    -0.445 OA
BRANCH   7   8
ATOM      8  C   UNL     1       6.279  -5.369  27.557  0.00  0.00    +0.206 C 
ATOM      9  C   UNL     1       5.652  -5.625  28.930  0.00  0.00    +0.204 C 
ATOM     10  O   UNL     1       4.329  -6.151  28.732  0.00  0.00    -0.376 OA
ATOM     11  C   UNL     1       4.058  -6.125  27.329  0.00  0.00    +0.163 C 
ATOM     12  C   UNL     1       5.413  -6.247  26.659  0.00  0.00    +0.075 C 
ENDBRANCH   7   8
ENDBRANCH   5   7
ENDBRANCH   2   3
BRANCH   2  13
ATOM     13  C   UNL     1       8.467  -3.122  23.926  0.00  0.00    +0.060 C 
BRANCH  13  14
ATOM     14  C   UNL     1       7.672  -4.031  23.011  0.00  0.00    -0.046 A 
ATOM     15  C   UNL     1       6.799  -3.423  22.080  0.00  0.00    +0.004 A 
ATOM     16  C   UNL     1       6.032  -4.181  21.194  0.00  0.00    +0.000 A 
ATOM     17  C   UNL     1       6.112  -5.568  21.234  0.00  0.00    +0.000 A 
ATOM     18  C   UNL     1       6.949  -6.181  22.169  0.00  0.00    +0.000 A 
ATOM     19  C   UNL     1       7.720  -5.423  23.056  0.00  0.00    +0.004 A 
ENDBRANCH  13  14
ENDBRANCH   2  13
ENDBRANCH   1   2
BRANCH   1  20
ATOM     20  O   UNL     1       6.085  -1.595  26.476  0.00  0.00    -0.280 OA
BRANCH  20  21
ATOM     21  P   UNL     1       4.505  -1.823  26.575  0.00  0.00    +0.473 P 
ATOM     22  O   UNL     1       4.017  -2.573  27.765  0.00  0.00    -0.228 OA
BRANCH  21  23
ATOM     23  O   UNL     1       3.840  -0.376  26.475  0.00  0.00    -0.303 OA
ATOM     24  H   UNL     1       4.147   0.079  25.670  0.00  0.00    +0.222 HD
ENDBRANCH  21  23
BRANCH  21  25
ATOM     25  O   UNL     1       4.020  -2.501  25.219  0.00  0.00    -0.303 OA
ATOM     26  H   UNL     1       3.212  -2.063  24.890  0.00  0.00    +0.222 HD
ENDBRANCH  21  25
ENDBRANCH  20  21
ENDBRANCH   1  20
BRANCH   1  27
ATOM     27  C   UNL     1       7.235  -0.263  24.767  0.00  0.00    +0.143 C 
BRANCH  27  28
ATOM     28  N   UNL     1       6.520   0.502  23.640  0.00  0.00    -0.174 NA
BRANCH  28  29
ATOM     29  S   UNL     1       5.827   1.956  24.476  0.00  0.00    +0.061 S 
ATOM     30  O   UNL     1       5.875   1.663  25.896  0.00  0.00    -0.153 OA
ATOM     31  O   UNL     1       4.571   2.288  23.834  0.00  0.00    -0.153 OA
BRANCH  29  32
ATOM     32  C   UNL     1       6.901   3.327  24.154  0.00  0.00    +0.106 A 
ATOM     33  C   UNL     1       6.703   4.112  23.012  0.00  0.00    +0.030 A 
ATOM     34  C   UNL     1       7.617   5.123  22.696  0.00  0.00    +0.024 A 
ATOM     35  C   UNL     1       8.711   5.379  23.527  0.00  0.00    +0.025 A 
ATOM     36  C   UNL     1       8.970   4.498  24.582  0.00  0.00    +0.024 A 
ATOM     37  C   UNL     1       8.065   3.481  24.909  0.00  0.00    +0.030 A 
BRANCH  35  38
ATOM     38  N   UNL     1       9.655   6.349  23.168  0.00  0.00    -0.358 N 
ATOM     39  H   UNL     1      10.586   6.162  23.528  0.00  0.00    +0.142 HD
ATOM     40  H   UNL     1       9.671   6.546  22.172  0.00  0.00    +0.142 HD
ENDBRANCH  35  38
ENDBRANCH  29  32
ENDBRANCH  28  29
BRANCH  28  41
ATOM     41  C   UNL     1       7.350   0.936  22.440  0.00  0.00    +0.112 C 
BRANCH  41  43
ATOM     42  C   UNL     1       9.233  -0.558  21.542  0.00  0.00    +0.008 C 
ATOM     43  C   UNL     1       8.857   0.586  22.480  0.00  0.00    -0.001 C 
ATOM     44  C   UNL     1       9.755   1.783  22.106  0.00  0.00    +0.008 C 
ENDBRANCH  41  43
ENDBRANCH  28  41
ENDBRANCH  27  28
ENDBRANCH   1  27
TORSDOF 17
ENDMDL
MODEL 4
REMARK VINA RESULT:      -6.5      2.932      5.428
REMARK  Name = 
REMARK  19 active torsions:
REMARK  status: ('A' for Active; 'I' for Inactive)
REMARK    1  A    between atoms: C_1  and  C_2
REMARK    2  A    between atoms: C_2  and  C_3
REMARK    3  A    between atoms: C_2  and  C_4
REMARK    4  A    between atoms: C_4  and  N_5
REMARK    5  A    between atoms: N_5  and  C_6
REMARK    6  A    between atoms: N_5  and  S_32
REMARK    7  A    between atoms: C_6  and  C_7
REMARK    8  A    between atoms: C_7  and  C_8
REMARK    9  A    between atoms: C_7  and  O_27
REMARK   10  A    between atoms: C_8  and  C_10
REMARK   11  A    between atoms: C_8  and  N_17
REMARK   12  A    between atoms: C_10  and  C_11
REMARK   13  A    between atoms: C_18  and  O_20
REMARK   14  A    between atoms: O_20  and  C_21
REMARK   15  A    between atoms: O_27  and  P_28
REMARK   16  A    between atoms: P_28  and  O_30
REMARK   17  A    between atoms: P_28  and  O_31
REMARK   18  A    between atoms: S_32  and  C_35
REMARK   19  A    between atoms: C_38  and  N_41
REMARK                            x       y       z     vdW  Elec       q    Type
REMARK                         _______ _______ _______ _____ _____    ______ ____
ROOT
ATOM      1  C   UNL     1       5.812  -4.008  23.601  0.00  0.00    +0.166 C 
ENDROOT
BRANCH   1   2
ATOM      2  C   UNL     1       4.657  -4.317  24.642  0.00  0.00    +0.111 C 
BRANCH   2   3
ATOM      3  N   UNL     1       5.108  -5.296  25.663  0.00  0.00    -0.275 N 
ATOM      4  H   UNL     1       5.437  -4.914  26.539  0.00  0.00    +0.152 HD
ATOM      5  C   UNL     1       4.884  -6.641  25.717  0.00  0.00    +0.401 C 
ATOM      6  O   UNL     1       4.418  -7.281  24.789  0.00  0.00    -0.226 OA
BRANCH   5   7
ATOM      7  O   UNL     1       5.204  -7.138  26.952  0.00  0.00    -0.445 OA
BRANCH   7   8
ATOM      8  C   UNL     1       5.315  -6.136  27.986  0.00  0.00    +0.206 C 
ATOM      9  C   UNL     1       6.490  -6.370  28.938  0.00  0.00    +0.204 C 
ATOM     10  O   UNL     1       6.080  -5.998  30.265  0.00  0.00    -0.376 OA
ATOM     11  C   UNL     1       4.767  -5.440  30.171  0.00  0.00    +0.163 C 
ATOM     12  C   UNL     1       4.140  -6.100  28.958  0.00  0.00    +0.075 C 
ENDBRANCH   7   8
ENDBRANCH   5   7
ENDBRANCH   2   3
BRANCH   2  13
ATOM     13  C   UNL     1       3.950  -2.989  25.083  0.00  0.00    +0.060 C 
BRANCH  13  14
ATOM     14  C   UNL     1       3.507  -2.726  26.507  0.00  0.00    -0.046 A 
ATOM     15  C   UNL     1       2.128  -2.846  26.797  0.00  0.00    +0.004 A 
ATOM     16  C   UNL     1       1.630  -2.627  28.082  0.00  0.00    +0.000 A 
ATOM     17  C   UNL     1       2.501  -2.267  29.102  0.00  0.00    +0.000 A 
ATOM     18  C   UNL     1       3.862  -2.116  28.821  0.00  0.00    +0.000 A 
ATOM     19  C   UNL     1       4.363  -2.337  27.535  0.00  0.00    +0.004 A 
ENDBRANCH  13  14
ENDBRANCH   2  13
ENDBRANCH   1   2
BRANCH   1  20
ATOM     20  O   UNL     1       5.384  -4.425  22.304  0.00  0.00    -0.280 OA
BRANCH  20  21
ATOM     21  P   UNL     1       6.198  -5.531  21.484  0.00  0.00    +0.473 P 
ATOM     22  O   UNL     1       5.921  -5.612  20.023  0.00  0.00    -0.228 OA
BRANCH  21  23
ATOM     23  O   UNL     1       7.742  -5.253  21.777  0.00  0.00    -0.303 OA
ATOM     24  H   UNL     1       7.927  -5.357  22.728  0.00  0.00    +0.222 HD
ENDBRANCH  21  23
BRANCH  21  25
ATOM     25  O   UNL     1       5.976  -6.935  22.199  0.00  0.00    -0.303 OA
ATOM     26  H   UNL     1       6.147  -6.859  23.157  0.00  0.00    +0.222 HD
ENDBRANCH  21  25
ENDBRANCH  20  21
ENDBRANCH   1  20
BRANCH   1  27
ATOM     27  C   UNL     1       6.210  -2.510  23.595  0.00  0.00    +0.143 C 
BRANCH  27  28
ATOM     28  N   UNL     1       7.348  -1.977  24.483  0.00  0.00    -0.174 NA
BRANCH  28  29
ATOM     29  S   UNL     1       8.786  -1.956  23.378  0.00  0.00    +0.061 S 
ATOM     30  O   UNL     1       8.294  -2.354  22.072  0.00  0.00    -0.153 OA
ATOM     31  O   UNL     1       9.856  -2.696  24.018  0.00  0.00    -0.153 OA
BRANCH  29  32
ATOM     32  C   UNL     1       9.363  -0.285  23.271  0.00  0.00    +0.106 A 
ATOM     33  C   UNL     1       9.223   0.423  22.072  0.00  0.00    +0.030 A 
ATOM     34  C   UNL     1       9.780   1.700  21.951  0.00  0.00    +0.024 A 
ATOM     35  C   UNL     1      10.446   2.293  23.027  0.00  0.00    +0.025 A 
ATOM     36  C   UNL     1      10.696   1.519  24.166  0.00  0.00    +0.024 A 
ATOM     37  C   UNL     1      10.147   0.238  24.300  0.00  0.00    +0.030 A 
BRANCH  35  38
ATOM     38  N   UNL     1      11.054   3.545  22.876  0.00  0.00    -0.358 N 
ATOM     39  H   UNL     1      11.932   3.633  23.380  0.00  0.00    +0.142 HD
ATOM     40  H   UNL     1      11.149   3.831  21.906  0.00  0.00    +0.142 HD
ENDBRANCH  35  38
ENDBRANCH  29  32
ENDBRANCH  28  29
BRANCH  28  41
ATOM     41  C   UNL     1       7.163  -0.609  25.125  0.00  0.00    +0.112 C 
BRANCH  41  43
ATOM     42  C   UNL     1       5.109   0.699  25.932  0.00  0.00    +0.008 C 
ATOM     43  C   UNL     1       5.889   0.174  24.729  0.00  0.00    -0.001 C 
ATOM     44  C   UNL     1       6.194   1.389  23.830  0.00  0.00    +0.008 C 
ENDBRANCH  41  43
ENDBRANCH  28  41
ENDBRANCH  27  28
ENDBRANCH   1  27
TORSDOF 17
ENDMDL
MODEL 5
REMARK VINA RESULT:      -6.4      1.724      4.801
REMARK  Name = 
REMARK  19 active torsions:
REMARK  status: ('A' for Active; 'I' for Inactive)
REMARK    1  A    between atoms: C_1  and  C_2
REMARK    2  A    between atoms: C_2  and  C_3
REMARK    3  A    between atoms: C_2  and  C_4
REMARK    4  A    between atoms: C_4  and  N_5
REMARK    5  A    between atoms: N_5  and  C_6
REMARK    6  A    between atoms: N_5  and  S_32
REMARK    7  A    between atoms: C_6  and  C_7
REMARK    8  A    between atoms: C_7  and  C_8
REMARK    9  A    between atoms: C_7  and  O_27
REMARK   10  A    between atoms: C_8  and  C_10
REMARK   11  A    between atoms: C_8  and  N_17
REMARK   12  A    between atoms: C_10  and  C_11
REMARK   13  A    between atoms: C_18  and  O_20
REMARK   14  A    between atoms: O_20  and  C_21
REMARK   15  A    between atoms: O_27  and  P_28
REMARK   16  A    between atoms: P_28  and  O_30
REMARK   17  A    between atoms: P_28  and  O_31
REMARK   18  A    between atoms: S_32  and  C_35
REMARK   19  A    between atoms: C_38  and  N_41
REMARK                            x       y       z     vdW  Elec       q    Type
REMARK                         _______ _______ _______ _____ _____    ______ ____
ROOT
ATOM      1  C   UNL     1       6.385  -5.001  26.798  0.00  0.00    +0.166 C 
ENDROOT
BRANCH   1   2
ATOM      2  C   UNL     1       5.203  -4.021  26.402  0.00  0.00    +0.111 C 
BRANCH   2   3
ATOM      3  N   UNL     1       3.903  -4.737  26.382  0.00  0.00    -0.275 N 
ATOM      4  H   UNL     1       3.492  -4.951  27.280  0.00  0.00    +0.152 HD
ATOM      5  C   UNL     1       3.032  -4.901  25.343  0.00  0.00    +0.401 C 
ATOM      6  O   UNL     1       3.308  -4.626  24.188  0.00  0.00    -0.226 OA
BRANCH   5   7
ATOM      7  O   UNL     1       1.821  -5.356  25.791  0.00  0.00    -0.445 OA
BRANCH   7   8
ATOM      8  C   UNL     1       1.566  -6.749  25.504  0.00  0.00    +0.206 C 
ATOM      9  C   UNL     1       2.833  -7.607  25.478  0.00  0.00    +0.204 C 
ATOM     10  O   UNL     1       2.695  -8.587  24.435  0.00  0.00    -0.376 OA
ATOM     11  C   UNL     1       1.377  -8.463  23.896  0.00  0.00    +0.163 C 
ATOM     12  C   UNL     1       0.993  -7.012  24.116  0.00  0.00    +0.075 C 
ENDBRANCH   7   8
ENDBRANCH   5   7
ENDBRANCH   2   3
BRANCH   2  13
ATOM     13  C   UNL     1       5.341  -2.662  27.170  0.00  0.00    +0.060 C 
BRANCH  13  14
ATOM     14  C   UNL     1       5.793  -1.380  26.501  0.00  0.00    -0.046 A 
ATOM     15  C   UNL     1       5.659  -1.293  25.095  0.00  0.00    +0.004 A 
ATOM     16  C   UNL     1       6.044  -0.149  24.395  0.00  0.00    +0.000 A 
ATOM     17  C   UNL     1       6.587   0.928  25.086  0.00  0.00    +0.000 A 
ATOM     18  C   UNL     1       6.751   0.841  26.471  0.00  0.00    +0.000 A 
ATOM     19  C   UNL     1       6.364  -0.303  27.175  0.00  0.00    +0.004 A 
ENDBRANCH  13  14
ENDBRANCH   2  13
ENDBRANCH   1   2
BRANCH   1  20
ATOM     20  O   UNL     1       5.826  -6.225  27.275  0.00  0.00    -0.280 OA
BRANCH  20  21
ATOM     21  P   UNL     1       5.717  -6.526  28.843  0.00  0.00    +0.473 P 
ATOM     22  O   UNL     1       5.735  -5.343  29.747  0.00  0.00    -0.228 OA
BRANCH  21  23
ATOM     23  O   UNL     1       4.394  -7.397  29.037  0.00  0.00    -0.303 OA
ATOM     24  H   UNL     1       3.862  -7.385  28.221  0.00  0.00    +0.222 HD
ENDBRANCH  21  23
BRANCH  21  25
ATOM     25  O   UNL     1       6.857  -7.569  29.224  0.00  0.00    -0.303 OA
ATOM     26  H   UNL     1       6.483  -8.468  29.296  0.00  0.00    +0.222 HD
ENDBRANCH  21  25
ENDBRANCH  20  21
ENDBRANCH   1  20
BRANCH   1  27
ATOM     27  C   UNL     1       7.352  -5.260  25.615  0.00  0.00    +0.143 C 
BRANCH  27  28
ATOM     28  N   UNL     1       7.548  -4.225  24.494  0.00  0.00    -0.174 NA
BRANCH  28  29
ATOM     29  S   UNL     1       9.111  -3.411  24.924  0.00  0.00    +0.061 S 
ATOM     30  O   UNL     1      10.164  -4.316  24.502  0.00  0.00    -0.153 OA
ATOM     31  O   UNL     1       9.025  -2.973  26.303  0.00  0.00    -0.153 OA
BRANCH  29  32
ATOM     32  C   UNL     1       9.231  -1.929  23.962  0.00  0.00    +0.106 A 
ATOM     33  C   UNL     1       9.020  -1.979  22.580  0.00  0.00    +0.030 A 
ATOM     34  C   UNL     1       9.227  -0.834  21.803  0.00  0.00    +0.024 A 
ATOM     35  C   UNL     1       9.611   0.371  22.398  0.00  0.00    +0.025 A 
ATOM     36  C   UNL     1       9.952   0.367  23.755  0.00  0.00    +0.024 A 
ATOM     37  C   UNL     1       9.751  -0.772  24.543  0.00  0.00    +0.030 A 
BRANCH  35  38
ATOM     38  N   UNL     1       9.877   1.494  21.605  0.00  0.00    -0.358 N 
ATOM     39  H   UNL     1       9.275   1.567  20.790  0.00  0.00    +0.142 HD
ATOM     40  H   UNL     1       9.901   2.362  22.132  0.00  0.00    +0.142 HD
ENDBRANCH  35  38
ENDBRANCH  29  32
ENDBRANCH  28  29
BRANCH  28  41
ATOM     41  C   UNL     1       7.601  -4.735  23.061  0.00  0.00    +0.112 C 
BRANCH  41  43
ATOM     42  C   UNL     1       5.760  -3.412  21.860  0.00  0.00    +0.008 C 
ATOM     43  C   UNL     1       6.258  -4.788  22.295  0.00  0.00    -0.001 C 
ATOM     44  C   UNL     1       6.332  -5.658  21.024  0.00  0.00    +0.008 C 
ENDBRANCH  41  43
ENDBRANCH  28  41
ENDBRANCH  27  28
ENDBRANCH   1  27
TORSDOF 17
ENDMDL
MODEL 6
REMARK VINA RESULT:      -6.4      2.402      5.187
REMARK  Name = 
REMARK  19 active torsions:
REMARK  status: ('A' for Active; 'I' for Inactive)
REMARK    1  A    between atoms: C_1  and  C_2
REMARK    2  A    between atoms: C_2  and  C_3
REMARK    3  A    between atoms: C_2  and  C_4
REMARK    4  A    between atoms: C_4  and  N_5
REMARK    5  A    between atoms: N_5  and  C_6
REMARK    6  A    between atoms: N_5  and  S_32
REMARK    7  A    between atoms: C_6  and  C_7
REMARK    8  A    between atoms: C_7  and  C_8
REMARK    9  A    between atoms: C_7  and  O_27
REMARK   10  A    between atoms: C_8  and  C_10
REMARK   11  A    between atoms: C_8  and  N_17
REMARK   12  A    between atoms: C_10  and  C_11
REMARK   13  A    between atoms: C_18  and  O_20
REMARK   14  A    between atoms: O_20  and  C_21
REMARK   15  A    between atoms: O_27  and  P_28
REMARK   16  A    between atoms: P_28  and  O_30
REMARK   17  A    between atoms: P_28  and  O_31
REMARK   18  A    between atoms: S_32  and  C_35
REMARK   19  A    between atoms: C_38  and  N_41
REMARK                            x       y       z     vdW  Elec       q    Type
REMARK                         _______ _______ _______ _____ _____    ______ ____
ROOT
ATOM      1  C   UNL     1       8.208  -2.648  25.997  0.00  0.00    +0.166 C 
ENDROOT
BRANCH   1   2
ATOM      2  C   UNL     1       6.959  -1.700  26.231  0.00  0.00    +0.111 C 
BRANCH   2   3
ATOM      3  N   UNL     1       5.957  -2.347  27.114  0.00  0.00    -0.275 N 
ATOM      4  H   UNL     1       6.246  -2.531  28.065  0.00  0.00    +0.152 HD
ATOM      5  C   UNL     1       4.611  -2.478  26.931  0.00  0.00    +0.401 C 
ATOM      6  O   UNL     1       4.052  -2.231  25.876  0.00  0.00    -0.226 OA
BRANCH   5   7
ATOM      7  O   UNL     1       3.997  -2.865  28.091  0.00  0.00    -0.445 OA
BRANCH   7   8
ATOM      8  C   UNL     1       4.533  -4.074  28.673  0.00  0.00    +0.206 C 
ATOM      9  C   UNL     1       3.921  -5.352  28.092  0.00  0.00    +0.204 C 
ATOM     10  O   UNL     1       3.779  -6.309  29.155  0.00  0.00    -0.376 OA
ATOM     11  C   UNL     1       4.371  -5.746  30.328  0.00  0.00    +0.163 C 
ATOM     12  C   UNL     1       4.236  -4.244  30.159  0.00  0.00    +0.075 C 
ENDBRANCH   7   8
ENDBRANCH   5   7
ENDBRANCH   2   3
BRANCH   2  13
ATOM     13  C   UNL     1       7.434  -0.234  26.520  0.00  0.00    +0.060 C 
BRANCH  13  14
ATOM     14  C   UNL     1       7.177   0.917  25.569  0.00  0.00    -0.046 A 
ATOM     15  C   UNL     1       7.599   2.205  25.971  0.00  0.00    +0.004 A 
ATOM     16  C   UNL     1       7.409   3.323  25.157  0.00  0.00    +0.000 A 
ATOM     17  C   UNL     1       6.777   3.176  23.928  0.00  0.00    +0.000 A 
ATOM     18  C   UNL     1       6.329   1.912  23.534  0.00  0.00    +0.000 A 
ATOM     19  C   UNL     1       6.521   0.791  24.346  0.00  0.00    +0.004 A 
ENDBRANCH  13  14
ENDBRANCH   2  13
ENDBRANCH   1   2
BRANCH   1  20
ATOM     20  O   UNL     1       8.186  -3.686  26.978  0.00  0.00    -0.280 OA
BRANCH  20  21
ATOM     21  P   UNL     1       7.684  -5.159  26.605  0.00  0.00    +0.473 P 
ATOM     22  O   UNL     1       6.476  -5.248  25.739  0.00  0.00    -0.228 OA
BRANCH  21  23
ATOM     23  O   UNL     1       8.935  -5.903  25.952  0.00  0.00    -0.303 OA
ATOM     24  H   UNL     1       8.950  -5.751  24.989  0.00  0.00    +0.222 HD
ENDBRANCH  21  23
BRANCH  21  25
ATOM     25  O   UNL     1       7.491  -5.970  27.961  0.00  0.00    -0.303 OA
ATOM     26  H   UNL     1       8.088  -5.624  28.652  0.00  0.00    +0.222 HD
ENDBRANCH  21  25
ENDBRANCH  20  21
ENDBRANCH   1  20
BRANCH   1  27
ATOM     27  C   UNL     1       8.234  -3.242  24.566  0.00  0.00    +0.143 C 
BRANCH  27  28
ATOM     28  N   UNL     1       7.854  -2.397  23.338  0.00  0.00    -0.174 NA
BRANCH  28  29
ATOM     29  S   UNL     1       9.453  -1.974  22.592  0.00  0.00    +0.061 S 
ATOM     30  O   UNL     1       9.296  -2.179  21.164  0.00  0.00    -0.153 OA
ATOM     31  O   UNL     1      10.491  -2.670  23.326  0.00  0.00    -0.153 OA
BRANCH  29  32
ATOM     32  C   UNL     1       9.744  -0.250  22.878  0.00  0.00    +0.106 A 
ATOM     33  C   UNL     1       9.497   0.675  21.858  0.00  0.00    +0.030 A 
ATOM     34  C   UNL     1       9.833   2.020  22.044  0.00  0.00    +0.024 A 
ATOM     35  C   UNL     1      10.386   2.457  23.252  0.00  0.00    +0.025 A 
ATOM     36  C   UNL     1      10.754   1.499  24.203  0.00  0.00    +0.024 A 
ATOM     37  C   UNL     1      10.424   0.149  24.029  0.00  0.00    +0.030 A 
BRANCH  35  38
ATOM     38  N   UNL     1      10.778   3.792  23.404  0.00  0.00    -0.358 N 
ATOM     39  H   UNL     1      10.340   4.422  22.739  0.00  0.00    +0.142 HD
ATOM     40  H   UNL     1      10.687   4.132  24.357  0.00  0.00    +0.142 HD
ENDBRANCH  35  38
ENDBRANCH  29  32
ENDBRANCH  28  29
BRANCH  28  41
ATOM     41  C   UNL     1       6.944  -3.032  22.296  0.00  0.00    +0.112 C 
BRANCH  41  43
ATOM     42  C   UNL     1       4.848  -4.420  22.805  0.00  0.00    +0.008 C 
ATOM     43  C   UNL     1       6.365  -4.425  22.640  0.00  0.00    -0.001 C 
ATOM     44  C   UNL     1       6.695  -5.486  21.571  0.00  0.00    +0.008 C 
ENDBRANCH  41  43
ENDBRANCH  28  41
ENDBRANCH  27  28
ENDBRANCH   1  27
TORSDOF 17
ENDMDL
MODEL 7
REMARK VINA RESULT:      -6.4      2.341      4.833
REMARK  Name = 
REMARK  19 active torsions:
REMARK  status: ('A' for Active; 'I' for Inactive)
REMARK    1  A    between atoms: C_1  and  C_2
REMARK    2  A    between atoms: C_2  and  C_3
REMARK    3  A    between atoms: C_2  and  C_4
REMARK    4  A    between atoms: C_4  and  N_5
REMARK    5  A    between atoms: N_5  and  C_6
REMARK    6  A    between atoms: N_5  and  S_32
REMARK    7  A    between atoms: C_6  and  C_7
REMARK    8  A    between atoms: C_7  and  C_8
REMARK    9  A    between atoms: C_7  and  O_27
REMARK   10  A    between atoms: C_8  and  C_10
REMARK   11  A    between atoms: C_8  and  N_17
REMARK   12  A    between atoms: C_10  and  C_11
REMARK   13  A    between atoms: C_18  and  O_20
REMARK   14  A    between atoms: O_20  and  C_21
REMARK   15  A    between atoms: O_27  and  P_28
REMARK   16  A    between atoms: P_28  and  O_30
REMARK   17  A    between atoms: P_28  and  O_31
REMARK   18  A    between atoms: S_32  and  C_35
REMARK   19  A    between atoms: C_38  and  N_41
REMARK                            x       y       z     vdW  Elec       q    Type
REMARK                         _______ _______ _______ _____ _____    ______ ____
ROOT
ATOM      1  C   UNL     1       6.837  -3.823  24.317  0.00  0.00    +0.166 C 
ENDROOT
BRANCH   1   2
ATOM      2  C   UNL     1       5.564  -4.767  24.372  0.00  0.00    +0.111 C 
BRANCH   2   3
ATOM      3  N   UNL     1       5.589  -5.625  25.583  0.00  0.00    -0.275 N 
ATOM      4  H   UNL     1       5.963  -5.208  26.424  0.00  0.00    +0.152 HD
ATOM      5  C   UNL     1       4.926  -6.796  25.816  0.00  0.00    +0.401 C 
ATOM      6  O   UNL     1       4.341  -7.419  24.947  0.00  0.00    -0.226 OA
BRANCH   5   7
ATOM      7  O   UNL     1       4.973  -7.124  27.144  0.00  0.00    -0.445 OA
BRANCH   7   8
ATOM      8  C   UNL     1       5.288  -6.019  28.020  0.00  0.00    +0.206 C 
ATOM      9  C   UNL     1       6.262  -6.390  29.142  0.00  0.00    +0.204 C 
ATOM     10  O   UNL     1       5.871  -5.683  30.331  0.00  0.00    -0.376 OA
ATOM     11  C   UNL     1       4.793  -4.812  29.984  0.00  0.00    +0.163 C 
ATOM     12  C   UNL     1       4.100  -5.484  28.813  0.00  0.00    +0.075 C 
ENDBRANCH   7   8
ENDBRANCH   5   7
ENDBRANCH   2   3
BRANCH   2  13
ATOM     13  C   UNL     1       4.271  -3.959  24.006  0.00  0.00    +0.060 C 
BRANCH  13  14
ATOM     14  C   UNL     1       3.153  -3.701  24.997  0.00  0.00    -0.046 A 
ATOM     15  C   UNL     1       1.913  -4.340  24.765  0.00  0.00    +0.004 A 
ATOM     16  C   UNL     1       0.829  -4.165  25.627  0.00  0.00    +0.000 A 
ATOM     17  C   UNL     1       0.960  -3.332  26.732  0.00  0.00    +0.000 A 
ATOM     18  C   UNL     1       2.172  -2.673  26.954  0.00  0.00    +0.000 A 
ATOM     19  C   UNL     1       3.259  -2.849  26.094  0.00  0.00    +0.004 A 
ENDBRANCH  13  14
ENDBRANCH   2  13
ENDBRANCH   1   2
BRANCH   1  20
ATOM     20  O   UNL     1       8.006  -4.637  24.209  0.00  0.00    -0.280 OA
BRANCH  20  21
ATOM     21  P   UNL     1       9.012  -4.801  25.442  0.00  0.00    +0.473 P 
ATOM     22  O   UNL     1      10.449  -4.992  25.104  0.00  0.00    -0.228 OA
BRANCH  21  23
ATOM     23  O   UNL     1       8.788  -3.523  26.371  0.00  0.00    -0.303 OA
ATOM     24  H   UNL     1       9.642  -3.096  26.564  0.00  0.00    +0.222 HD
ENDBRANCH  21  23
BRANCH  21  25
ATOM     25  O   UNL     1       8.468  -5.978  26.366  0.00  0.00    -0.303 OA
ATOM     26  H   UNL     1       9.032  -6.075  27.157  0.00  0.00    +0.222 HD
ENDBRANCH  21  25
ENDBRANCH  20  21
ENDBRANCH   1  20
BRANCH   1  27
ATOM     27  C   UNL     1       6.763  -2.806  23.151  0.00  0.00    +0.143 C 
BRANCH  27  28
ATOM     28  N   UNL     1       7.675  -1.568  23.104  0.00  0.00    -0.174 NA
BRANCH  28  29
ATOM     29  S   UNL     1       7.002  -0.487  24.398  0.00  0.00    +0.061 S 
ATOM     30  O   UNL     1       7.867  -0.656  25.551  0.00  0.00    -0.153 OA
ATOM     31  O   UNL     1       5.579  -0.741  24.501  0.00  0.00    -0.153 OA
BRANCH  29  32
ATOM     32  C   UNL     1       7.147   1.186  23.833  0.00  0.00    +0.106 A 
ATOM     33  C   UNL     1       6.685   1.531  22.558  0.00  0.00    +0.030 A 
ATOM     34  C   UNL     1       6.901   2.822  22.066  0.00  0.00    +0.024 A 
ATOM     35  C   UNL     1       7.547   3.784  22.849  0.00  0.00    +0.025 A 
ATOM     36  C   UNL     1       8.123   3.384  24.060  0.00  0.00    +0.024 A 
ATOM     37  C   UNL     1       7.916   2.093  24.562  0.00  0.00    +0.030 A 
BRANCH  35  38
ATOM     38  N   UNL     1       7.815   5.054  22.325  0.00  0.00    -0.358 N 
ATOM     39  H   UNL     1       7.600   5.812  22.966  0.00  0.00    +0.142 HD
ATOM     40  H   UNL     1       8.752   5.142  21.943  0.00  0.00    +0.142 HD
ENDBRANCH  35  38
ENDBRANCH  29  32
ENDBRANCH  28  29
BRANCH  28  41
ATOM     41  C   UNL     1       9.166  -1.778  23.322  0.00  0.00    +0.112 C 
BRANCH  41  43
ATOM     42  C   UNL     1       9.455  -0.187  21.330  0.00  0.00    +0.008 C 
ATOM     43  C   UNL     1      10.118  -0.842  22.539  0.00  0.00    -0.001 C 
ATOM     44  C   UNL     1      10.680   0.298  23.412  0.00  0.00    +0.008 C 
ENDBRANCH  41  43
ENDBRANCH  28  41
ENDBRANCH  27  28
ENDBRANCH   1  27
TORSDOF 17
ENDMDL
MODEL 8
REMARK VINA RESULT:      -6.4      2.599      5.737
REMARK  Name = 
REMARK  19 active torsions:
REMARK  status: ('A' for Active; 'I' for Inactive)
REMARK    1  A    between atoms: C_1  and  C_2
REMARK    2  A    between atoms: C_2  and  C_3
REMARK    3  A    between atoms: C_2  and  C_4
REMARK    4  A    between atoms: C_4  and  N_5
REMARK    5  A    between atoms: N_5  and  C_6
REMARK    6  A    between atoms: N_5  and  S_32
REMARK    7  A    between atoms: C_6  and  C_7
REMARK    8  A    between atoms: C_7  and  C_8
REMARK    9  A    between atoms: C_7  and  O_27
REMARK   10  A    between atoms: C_8  and  C_10
REMARK   11  A    between atoms: C_8  and  N_17
REMARK   12  A    between atoms: C_10  and  C_11
REMARK   13  A    between atoms: C_18  and  O_20
REMARK   14  A    between atoms: O_20  and  C_21
REMARK   15  A    between atoms: O_27  and  P_28
REMARK   16  A    between atoms: P_28  and  O_30
REMARK   17  A    between atoms: P_28  and  O_31
REMARK   18  A    between atoms: S_32  and  C_35
REMARK   19  A    between atoms: C_38  and  N_41
REMARK                            x       y       z     vdW  Elec       q    Type
REMARK                         _______ _______ _______ _____ _____    ______ ____
ROOT
ATOM      1  C   UNL     1       6.964  -1.925  25.966  0.00  0.00    +0.166 C 
ENDROOT
BRANCH   1   2
ATOM      2  C   UNL     1       7.440  -3.437  25.961  0.00  0.00    +0.111 C 
BRANCH   2   3
ATOM      3  N   UNL     1       6.356  -4.338  26.425  0.00  0.00    -0.275 N 
ATOM      4  H   UNL     1       5.455  -4.225  25.982  0.00  0.00    +0.152 HD
ATOM      5  C   UNL     1       6.452  -5.489  27.154  0.00  0.00    +0.401 C 
ATOM      6  O   UNL     1       7.478  -5.848  27.706  0.00  0.00    -0.226 OA
BRANCH   5   7
ATOM      7  O   UNL     1       5.273  -6.182  27.125  0.00  0.00    -0.445 OA
BRANCH   7   8
ATOM      8  C   UNL     1       4.443  -5.898  25.977  0.00  0.00    +0.206 C 
ATOM      9  C   UNL     1       2.944  -6.013  26.265  0.00  0.00    +0.204 C 
ATOM     10  O   UNL     1       2.303  -6.577  25.109  0.00  0.00    -0.376 OA
ATOM     11  C   UNL     1       3.292  -6.708  24.085  0.00  0.00    +0.163 C 
ATOM     12  C   UNL     1       4.606  -6.881  24.822  0.00  0.00    +0.075 C 
ENDBRANCH   7   8
ENDBRANCH   5   7
ENDBRANCH   2   3
BRANCH   2  13
ATOM     13  C   UNL     1       8.219  -3.758  24.639  0.00  0.00    +0.060 C 
BRANCH  13  14
ATOM     14  C   UNL     1       7.554  -4.352  23.415  0.00  0.00    -0.046 A 
ATOM     15  C   UNL     1       6.754  -3.495  22.624  0.00  0.00    +0.004 A 
ATOM     16  C   UNL     1       6.107  -3.955  21.475  0.00  0.00    +0.000 A 
ATOM     17  C   UNL     1       6.234  -5.288  21.104  0.00  0.00    +0.000 A 
ATOM     18  C   UNL     1       6.999  -6.150  21.895  0.00  0.00    +0.000 A 
ATOM     19  C   UNL     1       7.649  -5.692  23.044  0.00  0.00    +0.004 A 
ENDBRANCH  13  14
ENDBRANCH   2  13
ENDBRANCH   1   2
BRANCH   1  20
ATOM     20  O   UNL     1       6.279  -1.664  27.193  0.00  0.00    -0.280 OA
BRANCH  20  21
ATOM     21  P   UNL     1       4.686  -1.521  27.231  0.00  0.00    +0.473 P 
ATOM     22  O   UNL     1       4.148  -0.245  27.780  0.00  0.00    -0.228 OA
BRANCH  21  23
ATOM     23  O   UNL     1       4.181  -1.782  25.740  0.00  0.00    -0.303 OA
ATOM     24  H   UNL     1       4.927  -1.716  25.117  0.00  0.00    +0.222 HD
ENDBRANCH  21  23
BRANCH  21  25
ATOM     25  O   UNL     1       4.097  -2.782  28.003  0.00  0.00    -0.303 OA
ATOM     26  H   UNL     1       3.643  -2.499  28.820  0.00  0.00    +0.222 HD
ENDBRANCH  21  25
ENDBRANCH  20  21
ENDBRANCH   1  20
BRANCH   1  27
ATOM     27  C   UNL     1       8.143  -0.938  25.774  0.00  0.00    +0.143 C 
BRANCH  27  28
ATOM     28  N   UNL     1       8.184   0.045  24.590  0.00  0.00    -0.174 NA
BRANCH  28  29
ATOM     29  S   UNL     1       7.000   1.337  25.059  0.00  0.00    +0.061 S 
ATOM     30  O   UNL     1       7.366   1.749  26.401  0.00  0.00    -0.153 OA
ATOM     31  O   UNL     1       5.665   0.847  24.777  0.00  0.00    -0.153 OA
BRANCH  29  32
ATOM     32  C   UNL     1       7.241   2.712  23.969  0.00  0.00    +0.106 A 
ATOM     33  C   UNL     1       7.913   3.851  24.425  0.00  0.00    +0.030 A 
ATOM     34  C   UNL     1       8.004   4.980  23.605  0.00  0.00    +0.024 A 
ATOM     35  C   UNL     1       7.457   4.972  22.318  0.00  0.00    +0.025 A 
ATOM     36  C   UNL     1       6.670   3.881  21.934  0.00  0.00    +0.024 A 
ATOM     37  C   UNL     1       6.570   2.745  22.746  0.00  0.00    +0.030 A 
BRANCH  35  38
ATOM     38  N   UNL     1       7.497   6.128  21.530  0.00  0.00    -0.358 N 
ATOM     39  H   UNL     1       7.679   6.975  22.060  0.00  0.00    +0.142 HD
ATOM     40  H   UNL     1       8.117   6.048  20.729  0.00  0.00    +0.142 HD
ENDBRANCH  35  38
ENDBRANCH  29  32
ENDBRANCH  28  29
BRANCH  28  41
ATOM     41  C   UNL     1       9.526   0.670  24.235  0.00  0.00    +0.112 C 
BRANCH  41  43
ATOM     42  C   UNL     1       9.146  -0.495  21.981  0.00  0.00    +0.008 C 
ATOM     43  C   UNL     1      10.024   0.460  22.785  0.00  0.00    -0.001 C 
ATOM     44  C   UNL     1      10.099   1.777  21.986  0.00  0.00    +0.008 C 
ENDBRANCH  41  43
ENDBRANCH  28  41
ENDBRANCH  27  28
ENDBRANCH   1  27
TORSDOF 17
ENDMDL
MODEL 9
REMARK VINA RESULT:      -6.3      2.814      5.216
REMARK  Name = 
REMARK  19 active torsions:
REMARK  status: ('A' for Active; 'I' for Inactive)
REMARK    1  A    between atoms: C_1  and  C_2
REMARK    2  A    between atoms: C_2  and  C_3
REMARK    3  A    between atoms: C_2  and  C_4
REMARK    4  A    between atoms: C_4  and  N_5
REMARK    5  A    between atoms: N_5  and  C_6
REMARK    6  A    between atoms: N_5  and  S_32
REMARK    7  A    between atoms: C_6  and  C_7
REMARK    8  A    between atoms: C_7  and  C_8
REMARK    9  A    between atoms: C_7  and  O_27
REMARK   10  A    between atoms: C_8  and  C_10
REMARK   11  A    between atoms: C_8  and  N_17
REMARK   12  A    between atoms: C_10  and  C_11
REMARK   13  A    between atoms: C_18  and  O_20
REMARK   14  A    between atoms: O_20  and  C_21
REMARK   15  A    between atoms: O_27  and  P_28
REMARK   16  A    between atoms: P_28  and  O_30
REMARK   17  A    between atoms: P_28  and  O_31
REMARK   18  A    between atoms: S_32  and  C_35
REMARK   19  A    between atoms: C_38  and  N_41
REMARK                            x       y       z     vdW  Elec       q    Type
REMARK                         _______ _______ _______ _____ _____    ______ ____
ROOT
ATOM      1  C   UNL     1       8.008  -2.466  26.356  0.00  0.00    +0.166 C 
ENDROOT
BRANCH   1   2
ATOM      2  C   UNL     1       6.451  -2.763  26.357  0.00  0.00    +0.111 C 
BRANCH   2   3
ATOM      3  N   UNL     1       5.951  -2.991  24.978  0.00  0.00    -0.275 N 
ATOM      4  H   UNL     1       6.600  -3.411  24.326  0.00  0.00    +0.152 HD
ATOM      5  C   UNL     1       4.665  -2.986  24.521  0.00  0.00    +0.401 C 
ATOM      6  O   UNL     1       3.721  -2.590  25.183  0.00  0.00    -0.226 OA
BRANCH   5   7
ATOM      7  O   UNL     1       4.593  -3.526  23.265  0.00  0.00    -0.445 OA
BRANCH   7   8
ATOM      8  C   UNL     1       5.694  -4.397  22.928  0.00  0.00    +0.206 C 
ATOM      9  C   UNL     1       6.227  -4.185  21.509  0.00  0.00    +0.204 C 
ATOM     10  O   UNL     1       6.590  -5.465  20.965  0.00  0.00    -0.376 OA
ATOM     11  C   UNL     1       6.426  -6.438  22.000  0.00  0.00    +0.163 C 
ATOM     12  C   UNL     1       5.340  -5.881  22.900  0.00  0.00    +0.075 C 
ENDBRANCH   7   8
ENDBRANCH   5   7
ENDBRANCH   2   3
BRANCH   2  13
ATOM     13  C   UNL     1       6.089  -3.770  27.502  0.00  0.00    +0.060 C 
BRANCH  13  14
ATOM     14  C   UNL     1       5.035  -4.848  27.347  0.00  0.00    -0.046 A 
ATOM     15  C   UNL     1       3.800  -4.656  28.007  0.00  0.00    +0.004 A 
ATOM     16  C   UNL     1       2.770  -5.594  27.917  0.00  0.00    +0.000 A 
ATOM     17  C   UNL     1       2.963  -6.754  27.176  0.00  0.00    +0.000 A 
ATOM     18  C   UNL     1       4.190  -6.968  26.543  0.00  0.00    +0.000 A 
ATOM     19  C   UNL     1       5.222  -6.029  26.631  0.00  0.00    +0.004 A 
ENDBRANCH  13  14
ENDBRANCH   2  13
ENDBRANCH   1   2
BRANCH   1  20
ATOM     20  O   UNL     1       8.614  -3.200  25.291  0.00  0.00    -0.280 OA
BRANCH  20  21
ATOM     21  P   UNL     1       9.105  -4.708  25.505  0.00  0.00    +0.473 P 
ATOM     22  O   UNL     1       8.185  -5.778  25.033  0.00  0.00    -0.228 OA
BRANCH  21  23
ATOM     23  O   UNL     1      10.538  -4.811  24.809  0.00  0.00    -0.303 OA
ATOM     24  H   UNL     1      11.239  -4.603  25.452  0.00  0.00    +0.222 HD
ENDBRANCH  21  23
BRANCH  21  25
ATOM     25  O   UNL     1       9.474  -4.891  27.043  0.00  0.00    -0.303 OA
ATOM     26  H   UNL     1       8.713  -5.257  27.533  0.00  0.00    +0.222 HD
ENDBRANCH  21  25
ENDBRANCH  20  21
ENDBRANCH   1  20
BRANCH   1  27
ATOM     27  C   UNL     1       8.317  -0.953  26.227  0.00  0.00    +0.143 C 
BRANCH  27  28
ATOM     28  N   UNL     1       8.097  -0.197  24.906  0.00  0.00    -0.174 NA
BRANCH  28  29
ATOM     29  S   UNL     1       6.685   0.888  25.257  0.00  0.00    +0.061 S 
ATOM     30  O   UNL     1       6.833   1.304  26.639  0.00  0.00    -0.153 OA
ATOM     31  O   UNL     1       5.480   0.214  24.815  0.00  0.00    -0.153 OA
BRANCH  29  32
ATOM     32  C   UNL     1       6.833   2.319  24.225  0.00  0.00    +0.106 A 
ATOM     33  C   UNL     1       6.413   2.261  22.891  0.00  0.00    +0.030 A 
ATOM     34  C   UNL     1       6.635   3.352  22.044  0.00  0.00    +0.024 A 
ATOM     35  C   UNL     1       7.243   4.515  22.525  0.00  0.00    +0.025 A 
ATOM     36  C   UNL     1       7.780   4.504  23.817  0.00  0.00    +0.024 A 
ATOM     37  C   UNL     1       7.567   3.418  24.674  0.00  0.00    +0.030 A 
BRANCH  35  38
ATOM     38  N   UNL     1       7.517   5.577  21.655  0.00  0.00    -0.358 N 
ATOM     39  H   UNL     1       8.305   5.402  21.038  0.00  0.00    +0.142 HD
ATOM     40  H   UNL     1       6.702   5.896  21.140  0.00  0.00    +0.142 HD
ENDBRANCH  35  38
ENDBRANCH  29  32
ENDBRANCH  28  29
BRANCH  28  41
ATOM     41  C   UNL     1       9.258   0.619  24.355  0.00  0.00    +0.112 C 
BRANCH  41  43
ATOM     42  C   UNL     1       8.748  -0.626  22.170  0.00  0.00    +0.008 C 
ATOM     43  C   UNL     1       9.726   0.275  22.920  0.00  0.00    -0.001 C 
ATOM     44  C   UNL     1       9.939   1.528  22.048  0.00  0.00    +0.008 C 
ENDBRANCH  41  43
ENDBRANCH  28  41
ENDBRANCH  27  28
ENDBRANCH   1  27
TORSDOF 17
ENDMDL
