MODEL 1
REMARK VINA RESULT:      -6.3      0.000      0.000
REMARK  Name = 
REMARK  6 active torsions:
REMARK  status: ('A' for Active; 'I' for Inactive)
REMARK    1  A    between atoms: C_3  and  C_19
REMARK    2  A    between atoms: N_5  and  C1*_6
REMARK    3  A    between atoms: C2*_8  and  O2*_18
REMARK    4  A    between atoms: C3*_10  and  O3*_17
REMARK    5  A    between atoms: C4*_12  and  C5*_15
REMARK    6  A    between atoms: C5*_15  and  O5*_16
REMARK                            x       y       z     vdW  Elec       q    Type
REMARK                         _______ _______ _______ _____ _____    ______ ____
ROOT
ATOM      1  C1* UNL     1      10.226  -0.576  23.642  0.00  0.00    +0.270 C 
ATOM      2  O4* UNL     1      10.258   0.596  24.483  0.00  0.00    -0.344 OA
ATOM      3  C4* UNL     1      10.240   1.752  23.607  0.00  0.00    +0.177 C 
ATOM      4  C3* UNL     1      10.123   1.219  22.172  0.00  0.00    +0.178 C 
ATOM      5  C2* UNL     1       9.521  -0.173  22.355  0.00  0.00    +0.196 C 
ENDROOT
BRANCH   1   7
ATOM      6  C   UNL     1       8.823  -1.617  25.424  0.00  0.00    +0.223 A 
ATOM      7  N   UNL     1       9.641  -1.705  24.339  0.00  0.00    -0.220 N 
ATOM      8  N   UNL     1       9.857  -2.989  23.991  0.00  0.00    -0.142 NA
ATOM      9  C   UNL     1       9.136  -3.655  24.925  0.00  0.00    +0.236 A 
ATOM     10  N   UNL     1       8.483  -2.817  25.821  0.00  0.00    -0.211 NA
BRANCH   9  11
ATOM     11  C   UNL     1       9.021  -5.123  25.029  0.00  0.00    +0.281 C 
ATOM     12  N   UNL     1       8.760  -5.565  26.301  0.00  0.00    -0.323 N 
ATOM     13  H   UNL     1       8.681  -6.554  26.474  0.00  0.00    +0.145 HD
ATOM     14  H   UNL     1       8.681  -4.896  27.061  0.00  0.00    +0.145 HD
ATOM     15  O   UNL     1       9.136  -5.922  24.100  0.00  0.00    -0.267 OA
ENDBRANCH   9  11
ENDBRANCH   1   7
BRANCH   4  16
ATOM     16  O3* UNL     1       9.396   2.032  21.267  0.00  0.00    -0.386 OA
ATOM     17  H3* UNL     1       9.082   1.462  20.535  0.00  0.00    +0.210 HD
ENDBRANCH   4  16
BRANCH   5  18
ATOM     18  O2* UNL     1       9.816  -1.063  21.278  0.00  0.00    -0.385 OA
ATOM     19  H2* UNL     1       9.579  -0.642  20.433  0.00  0.00    +0.210 HD
ENDBRANCH   5  18
BRANCH   3  20
ATOM     20  C5* UNL     1       9.124   2.699  24.044  0.00  0.00    +0.190 C 
BRANCH  20  21
ATOM     21  O5* UNL     1       9.191   3.915  23.304  0.00  0.00    -0.392 OA
ATOM     22  H5* UNL     1       8.377   3.956  22.762  0.00  0.00    +0.210 HD
ENDBRANCH  20  21
ENDBRANCH   3  20
TORSDOF 6
ENDMDL
MODEL 2
REMARK VINA RESULT:      -6.0      2.693      2.936
REMARK  Name = 
REMARK  6 active torsions:
REMARK  status: ('A' for Active; 'I' for Inactive)
REMARK    1  A    between atoms: C_3  and  C_19
REMARK    2  A    between atoms: N_5  and  C1*_6
REMARK    3  A    between atoms: C2*_8  and  O2*_18
REMARK    4  A    between atoms: C3*_10  and  O3*_17
REMARK    5  A    between atoms: C4*_12  and  C5*_15
REMARK    6  A    between atoms: C5*_15  and  O5*_16
REMARK                            x       y       z     vdW  Elec       q    Type
REMARK                         _______ _______ _______ _____ _____    ______ ____
ROOT
ATOM      1  C1* UNL     1       9.547  -2.225  23.752  0.00  0.00    +0.270 C 
ATOM      2  O4* UNL     1       9.196  -1.527  24.966  0.00  0.00    -0.344 OA
ATOM      3  C4* UNL     1       9.681  -0.166  24.833  0.00  0.00    +0.177 C 
ATOM      4  C3* UNL     1      10.292  -0.050  23.429  0.00  0.00    +0.178 C 
ATOM      5  C2* UNL     1       9.620  -1.178  22.650  0.00  0.00    +0.196 C 
ENDROOT
BRANCH   1   7
ATOM      6  C   UNL     1       8.503  -4.426  24.290  0.00  0.00    +0.223 A 
ATOM      7  N   UNL     1       8.638  -3.326  23.500  0.00  0.00    -0.220 N 
ATOM      8  N   UNL     1       7.821  -3.387  22.429  0.00  0.00    -0.142 NA
ATOM      9  C   UNL     1       7.203  -4.578  22.619  0.00  0.00    +0.236 A 
ATOM     10  N   UNL     1       7.612  -5.235  23.774  0.00  0.00    -0.211 NA
BRANCH   9  11
ATOM     11  C   UNL     1       6.191  -5.168  21.721  0.00  0.00    +0.281 C 
ATOM     12  N   UNL     1       5.632  -6.322  22.208  0.00  0.00    -0.323 N 
ATOM     13  H   UNL     1       4.941  -6.806  21.657  0.00  0.00    +0.145 HD
ATOM     14  H   UNL     1       5.938  -6.693  23.102  0.00  0.00    +0.145 HD
ATOM     15  O   UNL     1       5.842  -4.714  20.633  0.00  0.00    -0.267 OA
ENDBRANCH   9  11
ENDBRANCH   1   7
BRANCH   4  16
ATOM     16  O3* UNL     1      10.169   1.216  22.804  0.00  0.00    -0.386 OA
ATOM     17  H3* UNL     1       9.914   1.868  23.489  0.00  0.00    +0.210 HD
ENDBRANCH   4  16
BRANCH   5  18
ATOM     18  O2* UNL     1      10.386  -1.627  21.531  0.00  0.00    -0.385 OA
ATOM     19  H2* UNL     1      10.848  -0.871  21.128  0.00  0.00    +0.210 HD
ENDBRANCH   5  18
BRANCH   3  20
ATOM     20  C5* UNL     1       8.543   0.807  25.132  0.00  0.00    +0.190 C 
BRANCH  20  21
ATOM     21  O5* UNL     1       9.039   2.141  25.198  0.00  0.00    -0.392 OA
ATOM     22  H5* UNL     1       9.997   2.073  25.392  0.00  0.00    +0.210 HD
ENDBRANCH  20  21
ENDBRANCH   3  20
TORSDOF 6
ENDMDL
MODEL 3
REMARK VINA RESULT:      -5.9      1.696      2.560
REMARK  Name = 
REMARK  6 active torsions:
REMARK  status: ('A' for Active; 'I' for Inactive)
REMARK    1  A    between atoms: C_3  and  C_19
REMARK    2  A    between atoms: N_5  and  C1*_6
REMARK    3  A    between atoms: C2*_8  and  O2*_18
REMARK    4  A    between atoms: C3*_10  and  O3*_17
REMARK    5  A    between atoms: C4*_12  and  C5*_15
REMARK    6  A    between atoms: C5*_15  and  O5*_16
REMARK                            x       y       z     vdW  Elec       q    Type
REMARK                         _______ _______ _______ _____ _____    ______ ____
ROOT
ATOM      1  C1* UNL     1       8.157  -0.703  24.295  0.00  0.00    +0.270 C 
ATOM      2  O4* UNL     1       8.036  -0.246  22.932  0.00  0.00    -0.344 OA
ATOM      3  C4* UNL     1       8.678   1.053  22.857  0.00  0.00    +0.177 C 
ATOM      4  C3* UNL     1       9.267   1.336  24.247  0.00  0.00    +0.178 C 
ATOM      5  C2* UNL     1       9.409  -0.052  24.866  0.00  0.00    +0.196 C 
ENDROOT
BRANCH   1   7
ATOM      6  C   UNL     1       7.679  -2.974  23.377  0.00  0.00    +0.223 A 
ATOM      7  N   UNL     1       8.127  -2.151  24.365  0.00  0.00    -0.220 N 
ATOM      8  N   UNL     1       8.534  -2.853  25.442  0.00  0.00    -0.142 NA
ATOM      9  C   UNL     1       8.298  -4.128  25.046  0.00  0.00    +0.236 A 
ATOM     10  N   UNL     1       7.771  -4.221  23.764  0.00  0.00    -0.211 NA
BRANCH   9  11
ATOM     11  C   UNL     1       8.555  -5.335  25.856  0.00  0.00    +0.281 C 
ATOM     12  N   UNL     1       9.820  -5.842  25.699  0.00  0.00    -0.323 N 
ATOM     13  H   UNL     1      10.083  -6.676  26.200  0.00  0.00    +0.145 HD
ATOM     14  H   UNL     1      10.467  -5.394  25.059  0.00  0.00    +0.145 HD
ATOM     15  O   UNL     1       7.753  -5.876  26.617  0.00  0.00    -0.267 OA
ENDBRANCH   9  11
ENDBRANCH   1   7
BRANCH   4  16
ATOM     16  O3* UNL     1      10.467   2.088  24.269  0.00  0.00    -0.386 OA
ATOM     17  H3* UNL     1      11.131   1.583  24.783  0.00  0.00    +0.210 HD
ENDBRANCH   4  16
BRANCH   5  18
ATOM     18  O2* UNL     1       9.405  -0.038  26.294  0.00  0.00    -0.385 OA
ATOM     19  H2* UNL     1       9.254   0.870  26.611  0.00  0.00    +0.210 HD
ENDBRANCH   5  18
BRANCH   3  20
ATOM     20  C5* UNL     1       9.686   1.054  21.710  0.00  0.00    +0.190 C 
BRANCH  20  21
ATOM     21  O5* UNL     1      10.276   2.344  21.572  0.00  0.00    -0.392 OA
ATOM     22  H5* UNL     1       9.902   2.735  20.756  0.00  0.00    +0.210 HD
ENDBRANCH  20  21
ENDBRANCH   3  20
TORSDOF 6
ENDMDL
MODEL 4
REMARK VINA RESULT:      -5.8      3.459      6.722
REMARK  Name = 
REMARK  6 active torsions:
REMARK  status: ('A' for Active; 'I' for Inactive)
REMARK    1  A    between atoms: C_3  and  C_19
REMARK    2  A    between atoms: N_5  and  C1*_6
REMARK    3  A    between atoms: C2*_8  and  O2*_18
REMARK    4  A    between atoms: C3*_10  and  O3*_17
REMARK    5  A    between atoms: C4*_12  and  C5*_15
REMARK    6  A    between atoms: C5*_15  and  O5*_16
REMARK                            x       y       z     vdW  Elec       q    Type
REMARK                         _______ _______ _______ _____ _____    ______ ____
ROOT
ATOM      1  C1* UNL     1       7.413  -2.586  23.260  0.00  0.00    +0.270 C 
ATOM      2  O4* UNL     1       7.841  -3.850  22.709  0.00  0.00    -0.344 OA
ATOM      3  C4* UNL     1       6.709  -4.754  22.783  0.00  0.00    +0.177 C 
ATOM      4  C3* UNL     1       5.533  -3.946  23.351  0.00  0.00    +0.178 C 
ATOM      5  C2* UNL     1       5.910  -2.499  23.041  0.00  0.00    +0.196 C 
ENDROOT
BRANCH   1   7
ATOM      6  C   UNL     1       9.401  -1.607  22.114  0.00  0.00    +0.223 A 
ATOM      7  N   UNL     1       8.183  -1.488  22.709  0.00  0.00    -0.220 N 
ATOM      8  N   UNL     1       7.774  -0.204  22.738  0.00  0.00    -0.142 NA
ATOM      9  C   UNL     1       8.811   0.431  22.140  0.00  0.00    +0.236 A 
ATOM     10  N   UNL     1       9.829  -0.427  21.742  0.00  0.00    -0.211 NA
BRANCH   9  11
ATOM     11  C   UNL     1       8.903   1.886  21.909  0.00  0.00    +0.281 C 
ATOM     12  N   UNL     1      10.187   2.330  21.715  0.00  0.00    -0.323 N 
ATOM     13  H   UNL     1      10.351   3.313  21.566  0.00  0.00    +0.145 HD
ATOM     14  H   UNL     1      10.959   1.673  21.753  0.00  0.00    +0.145 HD
ATOM     15  O   UNL     1       7.957   2.673  21.882  0.00  0.00    -0.267 OA
ENDBRANCH   9  11
ENDBRANCH   1   7
BRANCH   4  16
ATOM     16  O3* UNL     1       4.248  -4.307  22.876  0.00  0.00    -0.386 OA
ATOM     17  H3* UNL     1       4.364  -4.821  22.051  0.00  0.00    +0.210 HD
ENDBRANCH   4  16
BRANCH   5  18
ATOM     18  O2* UNL     1       5.293  -1.555  23.917  0.00  0.00    -0.385 OA
ATOM     19  H2* UNL     1       5.875  -0.782  24.027  0.00  0.00    +0.210 HD
ENDBRANCH   5  18
BRANCH   3  20
ATOM     20  C5* UNL     1       6.469  -5.377  21.410  0.00  0.00    +0.190 C 
BRANCH  20  21
ATOM     21  O5* UNL     1       5.616  -6.513  21.525  0.00  0.00    -0.392 OA
ATOM     22  H5* UNL     1       4.700  -6.184  21.424  0.00  0.00    +0.210 HD
ENDBRANCH  20  21
ENDBRANCH   3  20
TORSDOF 6
ENDMDL
MODEL 5
REMARK VINA RESULT:      -5.7      2.239      2.859
REMARK  Name = 
REMARK  6 active torsions:
REMARK  status: ('A' for Active; 'I' for Inactive)
REMARK    1  A    between atoms: C_3  and  C_19
REMARK    2  A    between atoms: N_5  and  C1*_6
REMARK    3  A    between atoms: C2*_8  and  O2*_18
REMARK    4  A    between atoms: C3*_10  and  O3*_17
REMARK    5  A    between atoms: C4*_12  and  C5*_15
REMARK    6  A    between atoms: C5*_15  and  O5*_16
REMARK                            x       y       z     vdW  Elec       q    Type
REMARK                         _______ _______ _______ _____ _____    ______ ____
ROOT
ATOM      1  C1* UNL     1       7.549  -1.637  22.548  0.00  0.00    +0.270 C 
ATOM      2  O4* UNL     1       8.694  -1.201  21.786  0.00  0.00    -0.344 OA
ATOM      3  C4* UNL     1       8.679   0.249  21.782  0.00  0.00    +0.177 C 
ATOM      4  C3* UNL     1       7.490   0.682  22.652  0.00  0.00    +0.178 C 
ATOM      5  C2* UNL     1       7.240  -0.530  23.546  0.00  0.00    +0.196 C 
ENDROOT
BRANCH   1   7
ATOM      6  C   UNL     1       7.454  -4.130  22.538  0.00  0.00    +0.223 A 
ATOM      7  N   UNL     1       7.774  -2.946  23.128  0.00  0.00    -0.220 N 
ATOM      8  N   UNL     1       8.325  -3.138  24.344  0.00  0.00    -0.142 NA
ATOM      9  C   UNL     1       8.307  -4.489  24.447  0.00  0.00    +0.236 A 
ATOM     10  N   UNL     1       7.773  -5.122  23.331  0.00  0.00    -0.211 NA
BRANCH   9  11
ATOM     11  C   UNL     1       8.791  -5.264  25.606  0.00  0.00    +0.281 C 
ATOM     12  N   UNL     1      10.152  -5.439  25.619  0.00  0.00    -0.323 N 
ATOM     13  H   UNL     1      10.574  -5.970  26.365  0.00  0.00    +0.145 HD
ATOM     14  H   UNL     1      10.716  -5.061  24.866  0.00  0.00    +0.145 HD
ATOM     15  O   UNL     1       8.091  -5.731  26.504  0.00  0.00    -0.267 OA
ENDBRANCH   9  11
ENDBRANCH   1   7
BRANCH   4  16
ATOM     16  O3* UNL     1       7.658   1.889  23.374  0.00  0.00    -0.386 OA
ATOM     17  H3* UNL     1       7.101   2.575  22.950  0.00  0.00    +0.210 HD
ENDBRANCH   4  16
BRANCH   5  18
ATOM     18  O2* UNL     1       5.900  -0.605  24.035  0.00  0.00    -0.385 OA
ATOM     19  H2* UNL     1       5.513   0.288  24.066  0.00  0.00    +0.210 HD
ENDBRANCH   5  18
BRANCH   3  20
ATOM     20  C5* UNL     1      10.041   0.770  22.234  0.00  0.00    +0.190 C 
BRANCH  20  21
ATOM     21  O5* UNL     1      10.256   2.088  21.735  0.00  0.00    -0.392 OA
ATOM     22  H5* UNL     1       9.812   2.697  22.359  0.00  0.00    +0.210 HD
ENDBRANCH  20  21
ENDBRANCH   3  20
TORSDOF 6
ENDMDL
MODEL 6
REMARK VINA RESULT:      -5.5      2.482      6.336
REMARK  Name = 
REMARK  6 active torsions:
REMARK  status: ('A' for Active; 'I' for Inactive)
REMARK    1  A    between atoms: C_3  and  C_19
REMARK    2  A    between atoms: N_5  and  C1*_6
REMARK    3  A    between atoms: C2*_8  and  O2*_18
REMARK    4  A    between atoms: C3*_10  and  O3*_17
REMARK    5  A    between atoms: C4*_12  and  C5*_15
REMARK    6  A    between atoms: C5*_15  and  O5*_16
REMARK                            x       y       z     vdW  Elec       q    Type
REMARK                         _______ _______ _______ _____ _____    ______ ____
ROOT
ATOM      1  C1* UNL     1       8.195  -3.853  24.260  0.00  0.00    +0.270 C 
ATOM      2  O4* UNL     1       6.866  -3.634  24.777  0.00  0.00    -0.344 OA
ATOM      3  C4* UNL     1       6.661  -4.590  25.849  0.00  0.00    +0.177 C 
ATOM      4  C3* UNL     1       7.976  -5.366  26.008  0.00  0.00    +0.178 C 
ATOM      5  C2* UNL     1       9.020  -4.430  25.402  0.00  0.00    +0.196 C 
ENDROOT
BRANCH   1   7
ATOM      6  C   UNL     1       8.637  -2.318  22.343  0.00  0.00    +0.223 A 
ATOM      7  N   UNL     1       8.729  -2.645  23.662  0.00  0.00    -0.220 N 
ATOM      8  N   UNL     1       9.398  -1.702  24.356  0.00  0.00    -0.142 NA
ATOM      9  C   UNL     1       9.704  -0.808  23.385  0.00  0.00    +0.236 A 
ATOM     10  N   UNL     1       9.234  -1.173  22.129  0.00  0.00    -0.211 NA
BRANCH   9  11
ATOM     11  C   UNL     1      10.459   0.444  23.584  0.00  0.00    +0.281 C 
ATOM     12  N   UNL     1      10.242   1.379  22.604  0.00  0.00    -0.323 N 
ATOM     13  H   UNL     1      10.727   2.261  22.646  0.00  0.00    +0.145 HD
ATOM     14  H   UNL     1       9.620   1.163  21.831  0.00  0.00    +0.145 HD
ATOM     15  O   UNL     1      11.222   0.684  24.520  0.00  0.00    -0.267 OA
ENDBRANCH   9  11
ENDBRANCH   1   7
BRANCH   4  16
ATOM     16  O3* UNL     1       8.293  -5.784  27.325  0.00  0.00    -0.386 OA
ATOM     17  H3* UNL     1       8.847  -5.090  27.737  0.00  0.00    +0.210 HD
ENDBRANCH   4  16
BRANCH   5  18
ATOM     18  O2* UNL     1      10.185  -5.111  24.933  0.00  0.00    -0.385 OA
ATOM     19  H2* UNL     1      10.178  -6.029  25.256  0.00  0.00    +0.210 HD
ENDBRANCH   5  18
BRANCH   3  20
ATOM     20  C5* UNL     1       6.183  -3.853  27.099  0.00  0.00    +0.190 C 
BRANCH  20  21
ATOM     21  O5* UNL     1       5.764  -4.785  28.092  0.00  0.00    -0.392 OA
ATOM     22  H5* UNL     1       4.983  -5.248  27.726  0.00  0.00    +0.210 HD
ENDBRANCH  20  21
ENDBRANCH   3  20
TORSDOF 6
ENDMDL
MODEL 7
REMARK VINA RESULT:      -5.5      2.744      3.394
REMARK  Name = 
REMARK  6 active torsions:
REMARK  status: ('A' for Active; 'I' for Inactive)
REMARK    1  A    between atoms: C_3  and  C_19
REMARK    2  A    between atoms: N_5  and  C1*_6
REMARK    3  A    between atoms: C2*_8  and  O2*_18
REMARK    4  A    between atoms: C3*_10  and  O3*_17
REMARK    5  A    between atoms: C4*_12  and  C5*_15
REMARK    6  A    between atoms: C5*_15  and  O5*_16
REMARK                            x       y       z     vdW  Elec       q    Type
REMARK                         _______ _______ _______ _____ _____    ______ ____
ROOT
ATOM      1  C1* UNL     1       7.896  -1.332  23.645  0.00  0.00    +0.270 C 
ATOM      2  O4* UNL     1       7.955  -0.510  22.460  0.00  0.00    -0.344 OA
ATOM      3  C4* UNL     1       8.712   0.680  22.801  0.00  0.00    +0.177 C 
ATOM      4  C3* UNL     1       9.178   0.506  24.254  0.00  0.00    +0.178 C 
ATOM      5  C2* UNL     1       9.135  -1.005  24.466  0.00  0.00    +0.196 C 
ENDROOT
BRANCH   1   7
ATOM      6  C   UNL     1       8.446  -3.757  23.843  0.00  0.00    +0.223 A 
ATOM      7  N   UNL     1       7.732  -2.731  23.303  0.00  0.00    -0.220 N 
ATOM      8  N   UNL     1       6.848  -3.176  22.388  0.00  0.00    -0.142 NA
ATOM      9  C   UNL     1       7.078  -4.512  22.406  0.00  0.00    +0.236 A 
ATOM     10  N   UNL     1       8.065  -4.890  23.309  0.00  0.00    -0.211 NA
BRANCH   9  11
ATOM     11  C   UNL     1       6.381  -5.510  21.572  0.00  0.00    +0.281 C 
ATOM     12  N   UNL     1       6.166  -6.705  22.211  0.00  0.00    -0.323 N 
ATOM     13  H   UNL     1       5.710  -7.454  21.715  0.00  0.00    +0.145 HD
ATOM     14  H   UNL     1       6.493  -6.834  23.163  0.00  0.00    +0.145 HD
ATOM     15  O   UNL     1       6.005  -5.343  20.412  0.00  0.00    -0.267 OA
ENDBRANCH   9  11
ENDBRANCH   1   7
BRANCH   4  16
ATOM     16  O3* UNL     1      10.431   1.085  24.575  0.00  0.00    -0.386 OA
ATOM     17  H3* UNL     1      10.942   1.179  23.745  0.00  0.00    +0.210 HD
ENDBRANCH   4  16
BRANCH   5  18
ATOM     18  O2* UNL     1       8.986  -1.379  25.837  0.00  0.00    -0.385 OA
ATOM     19  H2* UNL     1       9.188  -0.617  26.407  0.00  0.00    +0.210 HD
ENDBRANCH   5  18
BRANCH   3  20
ATOM     20  C5* UNL     1       9.828   0.879  21.778  0.00  0.00    +0.190 C 
BRANCH  20  21
ATOM     21  O5* UNL     1      10.199   2.254  21.713  0.00  0.00    -0.392 OA
ATOM     22  H5* UNL     1      10.836   2.404  22.441  0.00  0.00    +0.210 HD
ENDBRANCH  20  21
ENDBRANCH   3  20
TORSDOF 6
ENDMDL
MODEL 8
REMARK VINA RESULT:      -5.4      2.643      6.371
REMARK  Name = 
REMARK  6 active torsions:
REMARK  status: ('A' for Active; 'I' for Inactive)
REMARK    1  A    between atoms: C_3  and  C_19
REMARK    2  A    between atoms: N_5  and  C1*_6
REMARK    3  A    between atoms: C2*_8  and  O2*_18
REMARK    4  A    between atoms: C3*_10  and  O3*_17
REMARK    5  A    between atoms: C4*_12  and  C5*_15
REMARK    6  A    between atoms: C5*_15  and  O5*_16
REMARK                            x       y       z     vdW  Elec       q    Type
REMARK                         _______ _______ _______ _____ _____    ______ ____
ROOT
ATOM      1  C1* UNL     1       7.888  -3.186  24.002  0.00  0.00    +0.270 C 
ATOM      2  O4* UNL     1       6.930  -3.894  24.816  0.00  0.00    -0.344 OA
ATOM      3  C4* UNL     1       7.639  -4.983  25.461  0.00  0.00    +0.177 C 
ATOM      4  C3* UNL     1       9.113  -4.859  25.048  0.00  0.00    +0.178 C 
ATOM      5  C2* UNL     1       9.250  -3.392  24.649  0.00  0.00    +0.196 C 
ENDROOT
BRANCH   1   7
ATOM      6  C   UNL     1       6.405  -1.216  24.380  0.00  0.00    +0.223 A 
ATOM      7  N   UNL     1       7.495  -1.803  23.815  0.00  0.00    -0.220 N 
ATOM      8  N   UNL     1       8.173  -0.935  23.037  0.00  0.00    -0.142 NA
ATOM      9  C   UNL     1       7.427   0.190  23.162  0.00  0.00    +0.236 A 
ATOM     10  N   UNL     1       6.327   0.034  23.998  0.00  0.00    -0.211 NA
BRANCH   9  11
ATOM     11  C   UNL     1       7.707   1.479  22.500  0.00  0.00    +0.281 C 
ATOM     12  N   UNL     1       7.472   2.569  23.299  0.00  0.00    -0.323 N 
ATOM     13  H   UNL     1       7.620   3.494  22.928  0.00  0.00    +0.145 HD
ATOM     14  H   UNL     1       7.124   2.437  24.243  0.00  0.00    +0.145 HD
ATOM     15  O   UNL     1       8.114   1.623  21.348  0.00  0.00    -0.267 OA
ENDBRANCH   9  11
ENDBRANCH   1   7
BRANCH   4  16
ATOM     16  O3* UNL     1      10.063  -5.272  26.014  0.00  0.00    -0.386 OA
ATOM     17  H3* UNL     1      10.932  -4.895  25.764  0.00  0.00    +0.210 HD
ENDBRANCH   4  16
BRANCH   5  18
ATOM     18  O2* UNL     1      10.322  -3.153  23.735  0.00  0.00    -0.385 OA
ATOM     19  H2* UNL     1      10.883  -3.946  23.676  0.00  0.00    +0.210 HD
ENDBRANCH   5  18
BRANCH   3  20
ATOM     20  C5* UNL     1       7.377  -4.936  26.965  0.00  0.00    +0.190 C 
BRANCH  20  21
ATOM     21  O5* UNL     1       7.859  -6.124  27.588  0.00  0.00    -0.392 OA
ATOM     22  H5* UNL     1       8.825  -6.011  27.693  0.00  0.00    +0.210 HD
ENDBRANCH  20  21
ENDBRANCH   3  20
TORSDOF 6
ENDMDL
MODEL 9
REMARK VINA RESULT:      -5.4      2.348      6.247
REMARK  Name = 
REMARK  6 active torsions:
REMARK  status: ('A' for Active; 'I' for Inactive)
REMARK    1  A    between atoms: C_3  and  C_19
REMARK    2  A    between atoms: N_5  and  C1*_6
REMARK    3  A    between atoms: C2*_8  and  O2*_18
REMARK    4  A    between atoms: C3*_10  and  O3*_17
REMARK    5  A    between atoms: C4*_12  and  C5*_15
REMARK    6  A    between atoms: C5*_15  and  O5*_16
REMARK                            x       y       z     vdW  Elec       q    Type
REMARK                         _______ _______ _______ _____ _____    ______ ____
ROOT
ATOM      1  C1* UNL     1       9.363  -2.749  24.531  0.00  0.00    +0.270 C 
ATOM      2  O4* UNL     1       8.990  -3.929  23.789  0.00  0.00    -0.344 OA
ATOM      3  C4* UNL     1       8.217  -4.770  24.682  0.00  0.00    +0.177 C 
ATOM      4  C3* UNL     1       8.075  -4.000  26.003  0.00  0.00    +0.178 C 
ATOM      5  C2* UNL     1       8.295  -2.545  25.595  0.00  0.00    +0.196 C 
ENDROOT
BRANCH   1   7
ATOM      6  C   UNL     1       9.561  -1.678  22.286  0.00  0.00    +0.223 A 
ATOM      7  N   UNL     1       9.577  -1.620  23.646  0.00  0.00    -0.220 N 
ATOM      8  N   UNL     1       9.831  -0.370  24.081  0.00  0.00    -0.142 NA
ATOM      9  C   UNL     1       9.974   0.306  22.915  0.00  0.00    +0.236 A 
ATOM     10  N   UNL     1       9.804  -0.491  21.790  0.00  0.00    -0.211 NA
BRANCH   9  11
ATOM     11  C   UNL     1      10.279   1.745  22.794  0.00  0.00    +0.281 C 
ATOM     12  N   UNL     1       9.978   2.268  21.563  0.00  0.00    -0.323 N 
ATOM     13  H   UNL     1      10.167   3.241  21.380  0.00  0.00    +0.145 HD
ATOM     14  H   UNL     1       9.597   1.668  20.839  0.00  0.00    +0.145 HD
ATOM     15  O   UNL     1      10.757   2.457  23.677  0.00  0.00    -0.267 OA
ENDBRANCH   9  11
ENDBRANCH   1   7
BRANCH   4  16
ATOM     16  O3* UNL     1       6.868  -4.209  26.715  0.00  0.00    -0.386 OA
ATOM     17  H3* UNL     1       7.073  -4.181  27.673  0.00  0.00    +0.210 HD
ENDBRANCH   4  16
BRANCH   5  18
ATOM     18  O2* UNL     1       8.753  -1.720  26.667  0.00  0.00    -0.385 OA
ATOM     19  H2* UNL     1       8.703  -2.215  27.504  0.00  0.00    +0.210 HD
ENDBRANCH   5  18
BRANCH   3  20
ATOM     20  C5* UNL     1       6.902  -5.151  24.006  0.00  0.00    +0.190 C 
BRANCH  20  21
ATOM     21  O5* UNL     1       6.804  -4.524  22.730  0.00  0.00    -0.392 OA
ATOM     22  H5* UNL     1       7.721  -4.383  22.418  0.00  0.00    +0.210 HD
ENDBRANCH  20  21
ENDBRANCH   3  20
TORSDOF 6
ENDMDL
