MODEL 1
REMARK VINA RESULT:      -6.5      0.000      0.000
REMARK  Name = 
REMARK  11 active torsions:
REMARK  status: ('A' for Active; 'I' for Inactive)
REMARK    1  A    between atoms: C_1  and  C_2
REMARK    2  A    between atoms: C_2  and  C_3
REMARK    3  A    between atoms: C_2  and  C_4
REMARK    4  A    between atoms: C_4  and  C_6
REMARK    5  A    between atoms: C_4  and  N_24
REMARK    6  A    between atoms: C_6  and  O_8
REMARK    7  A    between atoms: O_8  and  C_9
REMARK    8  A    between atoms: C_9  and  C_10
REMARK    9  A    between atoms: C_10  and  O_11
REMARK   10  A    between atoms: O_11  and  C_12
REMARK   11  A    between atoms: C_12  and  N_13
REMARK                            x       y       z     vdW  Elec       q    Type
REMARK                         _______ _______ _______ _____ _____    ______ ____
ROOT
ATOM      1  C   UNL     1       5.858  -4.569  22.649  0.00  0.00    +0.287 C 
ENDROOT
BRANCH   1   2
ATOM      2  N   UNL     1       5.753  -4.805  24.074  0.00  0.00    -0.291 N 
ATOM      3  C   UNL     1       6.783  -5.061  24.934  0.00  0.00    +0.171 A 
ATOM      4  N   UNL     1       8.100  -5.163  24.624  0.00  0.00    -0.196 NA
ATOM      5  C   UNL     1       8.853  -5.417  25.661  0.00  0.00    +0.195 A 
ATOM      6  N   UNL     1      10.193  -5.566  25.509  0.00  0.00    -0.329 N 
ATOM      7  H   UNL     1      10.789  -5.307  26.283  0.00  0.00    +0.145 HD
ATOM      8  H   UNL     1      10.531  -5.241  24.609  0.00  0.00    +0.145 HD
ATOM      9  N   UNL     1       8.373  -5.547  26.950  0.00  0.00    -0.293 N 
ATOM     10  H   UNL     1       8.999  -5.768  27.705  0.00  0.00    +0.172 HD
ATOM     11  C   UNL     1       7.035  -5.467  27.307  0.00  0.00    +0.280 A 
ATOM     12  O   UNL     1       6.663  -5.615  28.466  0.00  0.00    -0.265 OA
ATOM     13  C   UNL     1       6.184  -5.201  26.167  0.00  0.00    +0.172 A 
ATOM     14  N   UNL     1       4.821  -5.072  26.086  0.00  0.00    -0.229 NA
ATOM     15  C   UNL     1       4.594  -4.840  24.809  0.00  0.00    +0.203 A 
ENDBRANCH   1   2
BRANCH   1  16
ATOM     16  O   UNL     1       5.794  -3.163  22.421  0.00  0.00    -0.356 OA
BRANCH  16  17
ATOM     17  C   UNL     1       7.087  -2.585  22.231  0.00  0.00    +0.203 C 
BRANCH  17  18
ATOM     18  C   UNL     1       7.340  -1.594  23.367  0.00  0.00    +0.260 C 
BRANCH  18  19
ATOM     19  O   UNL     1       8.592  -1.870  24.021  0.00  0.00    -0.461 OA
BRANCH  19  20
ATOM     20  C   UNL     1       9.668  -1.195  23.531  0.00  0.00    +0.324 C 
ATOM     21  O   UNL     1      10.544  -1.686  22.826  0.00  0.00    -0.249 OA
BRANCH  20  22
ATOM     22  C   UNL     1       9.628   0.282  23.965  0.00  0.00    +0.163 C 
BRANCH  22  24
ATOM     23  C   UNL     1       9.098   1.333  21.705  0.00  0.00    +0.009 C 
ATOM     24  C   UNL     1      10.145   1.191  22.820  0.00  0.00    +0.010 C 
ATOM     25  C   UNL     1      10.527   2.593  23.312  0.00  0.00    +0.009 C 
ENDBRANCH  22  24
BRANCH  22  26
ATOM     26  N   UNL     1      10.433   0.408  25.201  0.00  0.00    -0.318 NA
ATOM     27  H   UNL     1      11.242  -0.212  25.126  0.00  0.00    +0.119 HD
ATOM     28  H   UNL     1      10.798   1.353  25.289  0.00  0.00    +0.119 HD
ENDBRANCH  22  26
ENDBRANCH  20  22
ENDBRANCH  19  20
ENDBRANCH  18  19
ENDBRANCH  17  18
ENDBRANCH  16  17
ENDBRANCH   1  16
TORSDOF 9
ENDMDL
MODEL 2
REMARK VINA RESULT:      -6.4      1.653      2.008
REMARK  Name = 
REMARK  11 active torsions:
REMARK  status: ('A' for Active; 'I' for Inactive)
REMARK    1  A    between atoms: C_1  and  C_2
REMARK    2  A    between atoms: C_2  and  C_3
REMARK    3  A    between atoms: C_2  and  C_4
REMARK    4  A    between atoms: C_4  and  C_6
REMARK    5  A    between atoms: C_4  and  N_24
REMARK    6  A    between atoms: C_6  and  O_8
REMARK    7  A    between atoms: O_8  and  C_9
REMARK    8  A    between atoms: C_9  and  C_10
REMARK    9  A    between atoms: C_10  and  O_11
REMARK   10  A    between atoms: O_11  and  C_12
REMARK   11  A    between atoms: C_12  and  N_13
REMARK                            x       y       z     vdW  Elec       q    Type
REMARK                         _______ _______ _______ _____ _____    ______ ____
ROOT
ATOM      1  C   UNL     1       7.089  -3.223  22.213  0.00  0.00    +0.287 C 
ENDROOT
BRANCH   1   2
ATOM      2  N   UNL     1       6.579  -3.875  23.400  0.00  0.00    -0.291 N 
ATOM      3  C   UNL     1       7.316  -4.502  24.365  0.00  0.00    +0.171 A 
ATOM      4  N   UNL     1       8.664  -4.654  24.393  0.00  0.00    -0.196 NA
ATOM      5  C   UNL     1       9.086  -5.302  25.446  0.00  0.00    +0.195 A 
ATOM      6  N   UNL     1      10.410  -5.550  25.607  0.00  0.00    -0.329 N 
ATOM      7  H   UNL     1      10.768  -5.613  26.551  0.00  0.00    +0.145 HD
ATOM      8  H   UNL     1      10.997  -5.003  24.986  0.00  0.00    +0.145 HD
ATOM      9  N   UNL     1       8.257  -5.768  26.448  0.00  0.00    -0.293 N 
ATOM     10  H   UNL     1       8.638  -6.283  27.223  0.00  0.00    +0.172 HD
ATOM     11  C   UNL     1       6.875  -5.650  26.449  0.00  0.00    +0.280 A 
ATOM     12  O   UNL     1       6.186  -6.105  27.356  0.00  0.00    -0.265 OA
ATOM     13  C   UNL     1       6.389  -4.947  25.282  0.00  0.00    +0.172 A 
ATOM     14  N   UNL     1       5.108  -4.643  24.896  0.00  0.00    -0.229 NA
ATOM     15  C   UNL     1       5.259  -4.002  23.754  0.00  0.00    +0.203 A 
ENDBRANCH   1   2
BRANCH   1  16
ATOM     16  O   UNL     1       7.698  -1.993  22.601  0.00  0.00    -0.356 OA
BRANCH  16  17
ATOM     17  C   UNL     1       8.967  -1.795  21.974  0.00  0.00    +0.203 C 
BRANCH  17  18
ATOM     18  C   UNL     1       9.963  -1.344  23.043  0.00  0.00    +0.260 C 
BRANCH  18  19
ATOM     19  O   UNL     1      10.493  -0.042  22.735  0.00  0.00    -0.461 OA
BRANCH  19  20
ATOM     20  C   UNL     1      10.364   0.890  23.719  0.00  0.00    +0.324 C 
ATOM     21  O   UNL     1      10.533   0.676  24.915  0.00  0.00    -0.249 OA
BRANCH  20  22
ATOM     22  C   UNL     1       9.995   2.263  23.124  0.00  0.00    +0.163 C 
BRANCH  22  24
ATOM     23  C   UNL     1       7.586   1.475  23.395  0.00  0.00    +0.009 C 
ATOM     24  C   UNL     1       8.556   2.658  23.542  0.00  0.00    +0.010 C 
ATOM     25  C   UNL     1       8.484   3.170  24.986  0.00  0.00    +0.009 C 
ENDBRANCH  22  24
BRANCH  22  26
ATOM     26  N   UNL     1      10.161   2.174  21.657  0.00  0.00    -0.318 NA
ATOM     27  H   UNL     1       9.642   1.360  21.320  0.00  0.00    +0.119 HD
ATOM     28  H   UNL     1       9.750   2.988  21.206  0.00  0.00    +0.119 HD
ENDBRANCH  22  26
ENDBRANCH  20  22
ENDBRANCH  19  20
ENDBRANCH  18  19
ENDBRANCH  17  18
ENDBRANCH  16  17
ENDBRANCH   1  16
TORSDOF 9
ENDMDL
MODEL 3
REMARK VINA RESULT:      -6.2      2.099      2.519
REMARK  Name = 
REMARK  11 active torsions:
REMARK  status: ('A' for Active; 'I' for Inactive)
REMARK    1  A    between atoms: C_1  and  C_2
REMARK    2  A    between atoms: C_2  and  C_3
REMARK    3  A    between atoms: C_2  and  C_4
REMARK    4  A    between atoms: C_4  and  C_6
REMARK    5  A    between atoms: C_4  and  N_24
REMARK    6  A    between atoms: C_6  and  O_8
REMARK    7  A    between atoms: O_8  and  C_9
REMARK    8  A    between atoms: C_9  and  C_10
REMARK    9  A    between atoms: C_10  and  O_11
REMARK   10  A    between atoms: O_11  and  C_12
REMARK   11  A    between atoms: C_12  and  N_13
REMARK                            x       y       z     vdW  Elec       q    Type
REMARK                         _______ _______ _______ _____ _____    ______ ____
ROOT
ATOM      1  C   UNL     1       5.566  -1.547  26.644  0.00  0.00    +0.287 C 
ENDROOT
BRANCH   1   2
ATOM      2  N   UNL     1       5.416  -2.833  27.292  0.00  0.00    -0.291 N 
ATOM      3  C   UNL     1       6.313  -3.864  27.272  0.00  0.00    +0.171 A 
ATOM      4  N   UNL     1       7.507  -3.895  26.630  0.00  0.00    -0.196 NA
ATOM      5  C   UNL     1       8.148  -5.022  26.793  0.00  0.00    +0.195 A 
ATOM      6  N   UNL     1       9.352  -5.213  26.196  0.00  0.00    -0.329 N 
ATOM      7  H   UNL     1      10.016  -5.821  26.655  0.00  0.00    +0.145 HD
ATOM      8  H   UNL     1       9.762  -4.355  25.843  0.00  0.00    +0.145 HD
ATOM      9  N   UNL     1       7.679  -6.072  27.558  0.00  0.00    -0.293 N 
ATOM     10  H   UNL     1       8.206  -6.925  27.626  0.00  0.00    +0.172 HD
ATOM     11  C   UNL     1       6.458  -6.088  28.215  0.00  0.00    +0.280 A 
ATOM     12  O   UNL     1       6.082  -7.060  28.862  0.00  0.00    -0.265 OA
ATOM     13  C   UNL     1       5.728  -4.852  28.034  0.00  0.00    +0.172 A 
ATOM     14  N   UNL     1       4.491  -4.475  28.491  0.00  0.00    -0.229 NA
ATOM     15  C   UNL     1       4.331  -3.254  28.020  0.00  0.00    +0.203 A 
ENDBRANCH   1   2
BRANCH   1  16
ATOM     16  O   UNL     1       5.265  -1.702  25.260  0.00  0.00    -0.356 OA
BRANCH  16  17
ATOM     17  C   UNL     1       6.052  -0.843  24.433  0.00  0.00    +0.203 C 
BRANCH  17  18
ATOM     18  C   UNL     1       7.133  -1.687  23.758  0.00  0.00    +0.260 C 
BRANCH  18  19
ATOM     19  O   UNL     1       8.424  -1.430  24.341  0.00  0.00    -0.461 OA
BRANCH  19  20
ATOM     20  C   UNL     1       9.465  -2.104  23.777  0.00  0.00    +0.324 C 
ATOM     21  O   UNL     1       9.679  -3.304  23.913  0.00  0.00    -0.249 OA
BRANCH  20  22
ATOM     22  C   UNL     1      10.329  -1.158  22.923  0.00  0.00    +0.163 C 
BRANCH  22  24
ATOM     23  C   UNL     1      11.081   0.857  24.291  0.00  0.00    +0.009 C 
ATOM     24  C   UNL     1      10.039   0.318  23.300  0.00  0.00    +0.010 C 
ATOM     25  C   UNL     1      10.009   1.239  22.074  0.00  0.00    +0.009 C 
ENDBRANCH  22  24
BRANCH  22  26
ATOM     26  N   UNL     1      10.043  -1.452  21.502  0.00  0.00    -0.318 NA
ATOM     27  H   UNL     1      10.121  -2.460  21.356  0.00  0.00    +0.119 HD
ATOM     28  H   UNL     1       9.084  -1.198  21.275  0.00  0.00    +0.119 HD
ENDBRANCH  22  26
ENDBRANCH  20  22
ENDBRANCH  19  20
ENDBRANCH  18  19
ENDBRANCH  17  18
ENDBRANCH  16  17
ENDBRANCH   1  16
TORSDOF 9
ENDMDL
MODEL 4
REMARK VINA RESULT:      -6.2      1.809      2.986
REMARK  Name = 
REMARK  11 active torsions:
REMARK  status: ('A' for Active; 'I' for Inactive)
REMARK    1  A    between atoms: C_1  and  C_2
REMARK    2  A    between atoms: C_2  and  C_3
REMARK    3  A    between atoms: C_2  and  C_4
REMARK    4  A    between atoms: C_4  and  C_6
REMARK    5  A    between atoms: C_4  and  N_24
REMARK    6  A    between atoms: C_6  and  O_8
REMARK    7  A    between atoms: O_8  and  C_9
REMARK    8  A    between atoms: C_9  and  C_10
REMARK    9  A    between atoms: C_10  and  O_11
REMARK   10  A    between atoms: O_11  and  C_12
REMARK   11  A    between atoms: C_12  and  N_13
REMARK                            x       y       z     vdW  Elec       q    Type
REMARK                         _______ _______ _______ _____ _____    ______ ____
ROOT
ATOM      1  C   UNL     1       8.799  -3.445  24.342  0.00  0.00    +0.287 C 
ENDROOT
BRANCH   1   2
ATOM      2  N   UNL     1       8.079  -4.248  25.307  0.00  0.00    -0.291 N 
ATOM      3  C   UNL     1       6.967  -5.006  25.069  0.00  0.00    +0.171 A 
ATOM      4  N   UNL     1       6.308  -5.140  23.891  0.00  0.00    -0.196 NA
ATOM      5  C   UNL     1       5.273  -5.934  23.970  0.00  0.00    +0.195 A 
ATOM      6  N   UNL     1       4.500  -6.156  22.876  0.00  0.00    -0.329 N 
ATOM      7  H   UNL     1       4.034  -7.049  22.800  0.00  0.00    +0.145 HD
ATOM      8  H   UNL     1       4.935  -5.848  22.013  0.00  0.00    +0.145 HD
ATOM      9  N   UNL     1       4.893  -6.594  25.122  0.00  0.00    -0.293 N 
ATOM     10  H   UNL     1       4.071  -7.172  25.128  0.00  0.00    +0.172 HD
ATOM     11  C   UNL     1       5.527  -6.470  26.350  0.00  0.00    +0.280 A 
ATOM     12  O   UNL     1       5.130  -7.062  27.347  0.00  0.00    -0.265 OA
ATOM     13  C   UNL     1       6.668  -5.582  26.284  0.00  0.00    +0.172 A 
ATOM     14  N   UNL     1       7.537  -5.179  27.265  0.00  0.00    -0.229 NA
ATOM     15  C   UNL     1       8.372  -4.370  26.643  0.00  0.00    +0.203 A 
ENDBRANCH   1   2
BRANCH   1  16
ATOM     16  O   UNL     1       8.690  -2.076  24.725  0.00  0.00    -0.356 OA
BRANCH  16  17
ATOM     17  C   UNL     1       7.409  -1.525  24.412  0.00  0.00    +0.203 C 
BRANCH  17  18
ATOM     18  C   UNL     1       7.320  -1.354  22.896  0.00  0.00    +0.260 C 
BRANCH  18  19
ATOM     19  O   UNL     1       7.887  -0.096  22.486  0.00  0.00    -0.461 OA
BRANCH  19  20
ATOM     20  C   UNL     1       9.101  -0.173  21.875  0.00  0.00    +0.324 C 
ATOM     21  O   UNL     1       9.426  -1.036  21.066  0.00  0.00    -0.249 OA
BRANCH  20  22
ATOM     22  C   UNL     1      10.011   0.986  22.322  0.00  0.00    +0.163 C 
BRANCH  22  24
ATOM     23  C   UNL     1      10.977   0.720  24.666  0.00  0.00    +0.009 C 
ATOM     24  C   UNL     1       9.811   1.273  23.832  0.00  0.00    +0.010 C 
ATOM     25  C   UNL     1       9.666   2.770  24.130  0.00  0.00    +0.009 C 
ENDBRANCH  22  24
BRANCH  22  26
ATOM     26  N   UNL     1       9.696   2.155  21.472  0.00  0.00    -0.318 NA
ATOM     27  H   UNL     1      10.326   2.920  21.724  0.00  0.00    +0.119 HD
ATOM     28  H   UNL     1       9.877   1.939  20.494  0.00  0.00    +0.119 HD
ENDBRANCH  22  26
ENDBRANCH  20  22
ENDBRANCH  19  20
ENDBRANCH  18  19
ENDBRANCH  17  18
ENDBRANCH  16  17
ENDBRANCH   1  16
TORSDOF 9
ENDMDL
MODEL 5
REMARK VINA RESULT:      -6.2      2.157      3.572
REMARK  Name = 
REMARK  11 active torsions:
REMARK  status: ('A' for Active; 'I' for Inactive)
REMARK    1  A    between atoms: C_1  and  C_2
REMARK    2  A    between atoms: C_2  and  C_3
REMARK    3  A    between atoms: C_2  and  C_4
REMARK    4  A    between atoms: C_4  and  C_6
REMARK    5  A    between atoms: C_4  and  N_24
REMARK    6  A    between atoms: C_6  and  O_8
REMARK    7  A    between atoms: O_8  and  C_9
REMARK    8  A    between atoms: C_9  and  C_10
REMARK    9  A    between atoms: C_10  and  O_11
REMARK   10  A    between atoms: O_11  and  C_12
REMARK   11  A    between atoms: C_12  and  N_13
REMARK                            x       y       z     vdW  Elec       q    Type
REMARK                         _______ _______ _______ _____ _____    ______ ____
ROOT
ATOM      1  C   UNL     1       7.538  -4.401  26.731  0.00  0.00    +0.287 C 
ENDROOT
BRANCH   1   2
ATOM      2  N   UNL     1       6.454  -5.327  26.480  0.00  0.00    -0.291 N 
ATOM      3  C   UNL     1       5.940  -5.668  25.261  0.00  0.00    +0.171 A 
ATOM      4  N   UNL     1       6.330  -5.197  24.050  0.00  0.00    -0.196 NA
ATOM      5  C   UNL     1       5.651  -5.709  23.058  0.00  0.00    +0.195 A 
ATOM      6  N   UNL     1       5.912  -5.321  21.784  0.00  0.00    -0.329 N 
ATOM      7  H   UNL     1       5.752  -5.991  21.044  0.00  0.00    +0.145 HD
ATOM      8  H   UNL     1       6.787  -4.816  21.692  0.00  0.00    +0.145 HD
ATOM      9  N   UNL     1       4.654  -6.651  23.210  0.00  0.00    -0.293 N 
ATOM     10  H   UNL     1       4.148  -6.990  22.410  0.00  0.00    +0.172 HD
ATOM     11  C   UNL     1       4.213  -7.146  24.429  0.00  0.00    +0.280 A 
ATOM     12  O   UNL     1       3.305  -7.967  24.506  0.00  0.00    -0.265 OA
ATOM     13  C   UNL     1       4.945  -6.579  25.542  0.00  0.00    +0.172 A 
ATOM     14  N   UNL     1       4.808  -6.782  26.891  0.00  0.00    -0.229 NA
ATOM     15  C   UNL     1       5.729  -6.006  27.428  0.00  0.00    +0.203 A 
ENDBRANCH   1   2
BRANCH   1  16
ATOM     16  O   UNL     1       8.761  -5.134  26.743  0.00  0.00    -0.356 OA
BRANCH  16  17
ATOM     17  C   UNL     1       9.589  -4.825  25.619  0.00  0.00    +0.203 C 
BRANCH  17  18
ATOM     18  C   UNL     1       9.251  -3.410  25.150  0.00  0.00    +0.260 C 
BRANCH  18  19
ATOM     19  O   UNL     1       9.514  -3.258  23.743  0.00  0.00    -0.461 OA
BRANCH  19  20
ATOM     20  C   UNL     1       8.883  -2.213  23.140  0.00  0.00    +0.324 C 
ATOM     21  O   UNL     1       7.667  -2.101  23.024  0.00  0.00    -0.249 OA
BRANCH  20  22
ATOM     22  C   UNL     1       9.904  -1.175  22.639  0.00  0.00    +0.163 C 
BRANCH  22  24
ATOM     23  C   UNL     1      10.457   0.278  24.658  0.00  0.00    +0.009 C 
ATOM     24  C   UNL     1       9.671   0.187  23.342  0.00  0.00    +0.010 C 
ATOM     25  C   UNL     1      10.063   1.377  22.457  0.00  0.00    +0.009 C 
ENDBRANCH  22  24
BRANCH  22  26
ATOM     26  N   UNL     1       9.769  -1.089  21.168  0.00  0.00    -0.318 NA
ATOM     27  H   UNL     1       9.883  -0.113  20.888  0.00  0.00    +0.119 HD
ATOM     28  H   UNL     1      10.515  -1.611  20.714  0.00  0.00    +0.119 HD
ENDBRANCH  22  26
ENDBRANCH  20  22
ENDBRANCH  19  20
ENDBRANCH  18  19
ENDBRANCH  17  18
ENDBRANCH  16  17
ENDBRANCH   1  16
TORSDOF 9
ENDMDL
MODEL 6
REMARK VINA RESULT:      -6.1      2.199      3.584
REMARK  Name = 
REMARK  11 active torsions:
REMARK  status: ('A' for Active; 'I' for Inactive)
REMARK    1  A    between atoms: C_1  and  C_2
REMARK    2  A    between atoms: C_2  and  C_3
REMARK    3  A    between atoms: C_2  and  C_4
REMARK    4  A    between atoms: C_4  and  C_6
REMARK    5  A    between atoms: C_4  and  N_24
REMARK    6  A    between atoms: C_6  and  O_8
REMARK    7  A    between atoms: O_8  and  C_9
REMARK    8  A    between atoms: C_9  and  C_10
REMARK    9  A    between atoms: C_10  and  O_11
REMARK   10  A    between atoms: O_11  and  C_12
REMARK   11  A    between atoms: C_12  and  N_13
REMARK                            x       y       z     vdW  Elec       q    Type
REMARK                         _______ _______ _______ _____ _____    ______ ____
ROOT
ATOM      1  C   UNL     1       9.573  -2.306  23.497  0.00  0.00    +0.287 C 
ENDROOT
BRANCH   1   2
ATOM      2  N   UNL     1       8.355  -3.063  23.299  0.00  0.00    -0.291 N 
ATOM      3  C   UNL     1       7.817  -3.979  24.158  0.00  0.00    +0.171 A 
ATOM      4  N   UNL     1       8.324  -4.374  25.352  0.00  0.00    -0.196 NA
ATOM      5  C   UNL     1       7.586  -5.270  25.952  0.00  0.00    +0.195 A 
ATOM      6  N   UNL     1       7.972  -5.777  27.150  0.00  0.00    -0.329 N 
ATOM      7  H   UNL     1       7.250  -6.077  27.791  0.00  0.00    +0.145 HD
ATOM      8  H   UNL     1       8.710  -5.240  27.592  0.00  0.00    +0.145 HD
ATOM      9  N   UNL     1       6.397  -5.755  25.445  0.00  0.00    -0.293 N 
ATOM     10  H   UNL     1       5.885  -6.464  25.940  0.00  0.00    +0.172 HD
ATOM     11  C   UNL     1       5.853  -5.392  24.221  0.00  0.00    +0.280 A 
ATOM     12  O   UNL     1       4.804  -5.874  23.809  0.00  0.00    -0.265 OA
ATOM     13  C   UNL     1       6.666  -4.410  23.536  0.00  0.00    +0.172 A 
ATOM     14  N   UNL     1       6.497  -3.815  22.312  0.00  0.00    -0.229 NA
ATOM     15  C   UNL     1       7.537  -3.013  22.197  0.00  0.00    +0.203 A 
ENDBRANCH   1   2
BRANCH   1  16
ATOM     16  O   UNL     1       9.228  -0.931  23.654  0.00  0.00    -0.356 OA
BRANCH  16  17
ATOM     17  C   UNL     1       9.578  -0.429  24.945  0.00  0.00    +0.203 C 
BRANCH  17  18
ATOM     18  C   UNL     1      10.560   0.728  24.759  0.00  0.00    +0.260 C 
BRANCH  18  19
ATOM     19  O   UNL     1      10.717   1.049  23.364  0.00  0.00    -0.461 OA
BRANCH  19  20
ATOM     20  C   UNL     1      10.338   2.307  23.008  0.00  0.00    +0.324 C 
ATOM     21  O   UNL     1      10.868   3.340  23.406  0.00  0.00    -0.249 OA
BRANCH  20  22
ATOM     22  C   UNL     1       9.161   2.262  22.015  0.00  0.00    +0.163 C 
BRANCH  22  24
ATOM     23  C   UNL     1       7.157   3.804  22.332  0.00  0.00    +0.009 C 
ATOM     24  C   UNL     1       7.822   2.488  22.762  0.00  0.00    +0.010 C 
ATOM     25  C   UNL     1       6.826   1.343  22.537  0.00  0.00    +0.009 C 
ENDBRANCH  22  24
BRANCH  22  26
ATOM     26  N   UNL     1       9.214   0.957  21.319  0.00  0.00    -0.318 NA
ATOM     27  H   UNL     1      10.139   0.548  21.466  0.00  0.00    +0.119 HD
ATOM     28  H   UNL     1       8.541   0.313  21.727  0.00  0.00    +0.119 HD
ENDBRANCH  22  26
ENDBRANCH  20  22
ENDBRANCH  19  20
ENDBRANCH  18  19
ENDBRANCH  17  18
ENDBRANCH  16  17
ENDBRANCH   1  16
TORSDOF 9
ENDMDL
MODEL 7
REMARK VINA RESULT:      -6.0      2.289      3.354
REMARK  Name = 
REMARK  11 active torsions:
REMARK  status: ('A' for Active; 'I' for Inactive)
REMARK    1  A    between atoms: C_1  and  C_2
REMARK    2  A    between atoms: C_2  and  C_3
REMARK    3  A    between atoms: C_2  and  C_4
REMARK    4  A    between atoms: C_4  and  C_6
REMARK    5  A    between atoms: C_4  and  N_24
REMARK    6  A    between atoms: C_6  and  O_8
REMARK    7  A    between atoms: O_8  and  C_9
REMARK    8  A    between atoms: C_9  and  C_10
REMARK    9  A    between atoms: C_10  and  O_11
REMARK   10  A    between atoms: O_11  and  C_12
REMARK   11  A    between atoms: C_12  and  N_13
REMARK                            x       y       z     vdW  Elec       q    Type
REMARK                         _______ _______ _______ _____ _____    ______ ____
ROOT
ATOM      1  C   UNL     1       8.071  -2.749  24.819  0.00  0.00    +0.287 C 
ENDROOT
BRANCH   1   2
ATOM      2  N   UNL     1       7.145  -3.834  25.062  0.00  0.00    -0.291 N 
ATOM      3  C   UNL     1       6.596  -4.662  24.123  0.00  0.00    +0.171 A 
ATOM      4  N   UNL     1       6.795  -4.620  22.782  0.00  0.00    -0.196 NA
ATOM      5  C   UNL     1       6.133  -5.542  22.136  0.00  0.00    +0.195 A 
ATOM      6  N   UNL     1       6.215  -5.618  20.783  0.00  0.00    -0.329 N 
ATOM      7  H   UNL     1       6.110  -6.527  20.353  0.00  0.00    +0.145 HD
ATOM      8  H   UNL     1       6.979  -5.072  20.399  0.00  0.00    +0.145 HD
ATOM      9  N   UNL     1       5.329  -6.485  22.746  0.00  0.00    -0.293 N 
ATOM     10  H   UNL     1       4.823  -7.155  22.193  0.00  0.00    +0.172 HD
ATOM     11  C   UNL     1       5.085  -6.551  24.110  0.00  0.00    +0.280 A 
ATOM     12  O   UNL     1       4.341  -7.397  24.595  0.00  0.00    -0.265 OA
ATOM     13  C   UNL     1       5.799  -5.527  24.840  0.00  0.00    +0.172 A 
ATOM     14  N   UNL     1       5.815  -5.238  26.181  0.00  0.00    -0.229 NA
ATOM     15  C   UNL     1       6.631  -4.207  26.279  0.00  0.00    +0.203 A 
ENDBRANCH   1   2
BRANCH   1  16
ATOM     16  O   UNL     1       9.343  -3.307  24.498  0.00  0.00    -0.356 OA
BRANCH  16  17
ATOM     17  C   UNL     1      10.068  -2.504  23.564  0.00  0.00    +0.203 C 
BRANCH  17  18
ATOM     18  C   UNL     1       9.289  -1.208  23.342  0.00  0.00    +0.260 C 
BRANCH  18  19
ATOM     19  O   UNL     1      10.152  -0.167  22.847  0.00  0.00    -0.461 OA
BRANCH  19  20
ATOM     20  C   UNL     1      10.425   0.834  23.729  0.00  0.00    +0.324 C 
ATOM     21  O   UNL     1      10.946   0.678  24.828  0.00  0.00    -0.249 OA
BRANCH  20  22
ATOM     22  C   UNL     1      10.011   2.199  23.149  0.00  0.00    +0.163 C 
BRANCH  22  24
ATOM     23  C   UNL     1       8.651   3.600  24.787  0.00  0.00    +0.009 C 
ATOM     24  C   UNL     1       8.591   2.581  23.639  0.00  0.00    +0.010 C 
ATOM     25  C   UNL     1       7.721   3.161  22.518  0.00  0.00    +0.009 C 
ENDBRANCH  22  24
BRANCH  22  26
ATOM     26  N   UNL     1      10.100   2.105  21.675  0.00  0.00    -0.318 NA
ATOM     27  H   UNL     1       9.347   1.499  21.342  0.00  0.00    +0.119 HD
ATOM     28  H   UNL     1       9.947   3.018  21.253  0.00  0.00    +0.119 HD
ENDBRANCH  22  26
ENDBRANCH  20  22
ENDBRANCH  19  20
ENDBRANCH  18  19
ENDBRANCH  17  18
ENDBRANCH  16  17
ENDBRANCH   1  16
TORSDOF 9
ENDMDL
MODEL 8
REMARK VINA RESULT:      -5.9      2.067      2.868
REMARK  Name = 
REMARK  11 active torsions:
REMARK  status: ('A' for Active; 'I' for Inactive)
REMARK    1  A    between atoms: C_1  and  C_2
REMARK    2  A    between atoms: C_2  and  C_3
REMARK    3  A    between atoms: C_2  and  C_4
REMARK    4  A    between atoms: C_4  and  C_6
REMARK    5  A    between atoms: C_4  and  N_24
REMARK    6  A    between atoms: C_6  and  O_8
REMARK    7  A    between atoms: O_8  and  C_9
REMARK    8  A    between atoms: C_9  and  C_10
REMARK    9  A    between atoms: C_10  and  O_11
REMARK   10  A    between atoms: O_11  and  C_12
REMARK   11  A    between atoms: C_12  and  N_13
REMARK                            x       y       z     vdW  Elec       q    Type
REMARK                         _______ _______ _______ _____ _____    ______ ____
ROOT
ATOM      1  C   UNL     1       8.291  -3.462  23.568  0.00  0.00    +0.287 C 
ENDROOT
BRANCH   1   2
ATOM      2  N   UNL     1       7.199  -4.412  23.514  0.00  0.00    -0.291 N 
ATOM      3  C   UNL     1       6.683  -5.119  24.563  0.00  0.00    +0.171 A 
ATOM      4  N   UNL     1       7.100  -5.088  25.853  0.00  0.00    -0.196 NA
ATOM      5  C   UNL     1       6.412  -5.877  26.634  0.00  0.00    +0.195 A 
ATOM      6  N   UNL     1       6.722  -5.968  27.953  0.00  0.00    -0.329 N 
ATOM      7  H   UNL     1       5.975  -6.178  28.601  0.00  0.00    +0.145 HD
ATOM      8  H   UNL     1       7.339  -5.229  28.269  0.00  0.00    +0.145 HD
ATOM      9  N   UNL     1       5.350  -6.650  26.208  0.00  0.00    -0.293 N 
ATOM     10  H   UNL     1       4.875  -7.258  26.851  0.00  0.00    +0.172 HD
ATOM     11  C   UNL     1       4.904  -6.726  24.897  0.00  0.00    +0.280 A 
ATOM     12  O   UNL     1       3.969  -7.450  24.571  0.00  0.00    -0.265 OA
ATOM     13  C   UNL     1       5.664  -5.868  24.014  0.00  0.00    +0.172 A 
ATOM     14  N   UNL     1       5.561  -5.669  22.661  0.00  0.00    -0.229 NA
ATOM     15  C   UNL     1       6.505  -4.790  22.391  0.00  0.00    +0.203 A 
ENDBRANCH   1   2
BRANCH   1  16
ATOM     16  O   UNL     1       7.749  -2.168  23.816  0.00  0.00    -0.356 OA
BRANCH  16  17
ATOM     17  C   UNL     1       7.729  -1.353  22.642  0.00  0.00    +0.203 C 
BRANCH  17  18
ATOM     18  C   UNL     1       9.051  -1.550  21.901  0.00  0.00    +0.260 C 
BRANCH  18  19
ATOM     19  O   UNL     1       9.702  -0.288  21.666  0.00  0.00    -0.461 OA
BRANCH  19  20
ATOM     20  C   UNL     1      10.207   0.324  22.773  0.00  0.00    +0.324 C 
ATOM     21  O   UNL     1      10.697  -0.258  23.735  0.00  0.00    -0.249 OA
BRANCH  20  22
ATOM     22  C   UNL     1      10.099   1.855  22.645  0.00  0.00    +0.163 C 
BRANCH  22  24
ATOM     23  C   UNL     1       9.551   3.999  23.911  0.00  0.00    +0.009 C 
ATOM     24  C   UNL     1       9.544   2.464  23.959  0.00  0.00    +0.010 C 
ATOM     25  C   UNL     1       8.117   1.993  24.265  0.00  0.00    +0.009 C 
ENDBRANCH  22  24
BRANCH  22  26
ATOM     26  N   UNL     1       9.243   2.148  21.474  0.00  0.00    -0.318 NA
ATOM     27  H   UNL     1       9.765   1.919  20.626  0.00  0.00    +0.119 HD
ATOM     28  H   UNL     1       8.421   1.549  21.481  0.00  0.00    +0.119 HD
ENDBRANCH  22  26
ENDBRANCH  20  22
ENDBRANCH  19  20
ENDBRANCH  18  19
ENDBRANCH  17  18
ENDBRANCH  16  17
ENDBRANCH   1  16
TORSDOF 9
ENDMDL
MODEL 9
REMARK VINA RESULT:      -5.9      1.922      3.053
REMARK  Name = 
REMARK  11 active torsions:
REMARK  status: ('A' for Active; 'I' for Inactive)
REMARK    1  A    between atoms: C_1  and  C_2
REMARK    2  A    between atoms: C_2  and  C_3
REMARK    3  A    between atoms: C_2  and  C_4
REMARK    4  A    between atoms: C_4  and  C_6
REMARK    5  A    between atoms: C_4  and  N_24
REMARK    6  A    between atoms: C_6  and  O_8
REMARK    7  A    between atoms: O_8  and  C_9
REMARK    8  A    between atoms: C_9  and  C_10
REMARK    9  A    between atoms: C_10  and  O_11
REMARK   10  A    between atoms: O_11  and  C_12
REMARK   11  A    between atoms: C_12  and  N_13
REMARK                            x       y       z     vdW  Elec       q    Type
REMARK                         _______ _______ _______ _____ _____    ______ ____
ROOT
ATOM      1  C   UNL     1       7.928  -4.212  26.528  0.00  0.00    +0.287 C 
ENDROOT
BRANCH   1   2
ATOM      2  N   UNL     1       6.841  -5.162  26.418  0.00  0.00    -0.291 N 
ATOM      3  C   UNL     1       6.211  -5.550  25.269  0.00  0.00    +0.171 A 
ATOM      4  N   UNL     1       6.466  -5.111  24.011  0.00  0.00    -0.196 NA
ATOM      5  C   UNL     1       5.698  -5.664  23.110  0.00  0.00    +0.195 A 
ATOM      6  N   UNL     1       5.820  -5.313  21.805  0.00  0.00    -0.329 N 
ATOM      7  H   UNL     1       5.597  -6.009  21.106  0.00  0.00    +0.145 HD
ATOM      8  H   UNL     1       6.671  -4.798  21.608  0.00  0.00    +0.145 HD
ATOM      9  N   UNL     1       4.740  -6.617  23.393  0.00  0.00    -0.293 N 
ATOM     10  H   UNL     1       4.161  -6.988  22.660  0.00  0.00    +0.172 HD
ATOM     11  C   UNL     1       4.436  -7.079  24.665  0.00  0.00    +0.280 A 
ATOM     12  O   UNL     1       3.556  -7.911  24.860  0.00  0.00    -0.265 OA
ATOM     13  C   UNL     1       5.267  -6.466  25.678  0.00  0.00    +0.172 A 
ATOM     14  N   UNL     1       5.274  -6.628  27.040  0.00  0.00    -0.229 NA
ATOM     15  C   UNL     1       6.231  -5.822  27.456  0.00  0.00    +0.203 A 
ENDBRANCH   1   2
BRANCH   1  16
ATOM     16  O   UNL     1       7.375  -2.924  26.790  0.00  0.00    -0.356 OA
BRANCH  16  17
ATOM     17  C   UNL     1       7.853  -1.933  25.878  0.00  0.00    +0.203 C 
BRANCH  17  18
ATOM     18  C   UNL     1       8.888  -2.586  24.962  0.00  0.00    +0.260 C 
BRANCH  18  19
ATOM     19  O   UNL     1       8.730  -2.136  23.604  0.00  0.00    -0.461 OA
BRANCH  19  20
ATOM     20  C   UNL     1       9.776  -1.427  23.096  0.00  0.00    +0.324 C 
ATOM     21  O   UNL     1      10.699  -1.907  22.447  0.00  0.00    -0.249 OA
BRANCH  20  22
ATOM     22  C   UNL     1       9.633   0.070  23.429  0.00  0.00    +0.163 C 
BRANCH  22  24
ATOM     23  C   UNL     1       8.172   1.293  21.736  0.00  0.00    +0.009 C 
ATOM     24  C   UNL     1       9.608   0.908  22.125  0.00  0.00    +0.010 C 
ATOM     25  C   UNL     1      10.443   2.189  22.236  0.00  0.00    +0.009 C 
ENDBRANCH  22  24
BRANCH  22  26
ATOM     26  N   UNL     1      10.752   0.438  24.323  0.00  0.00    -0.318 NA
ATOM     27  H   UNL     1      10.658   1.425  24.572  0.00  0.00    +0.119 HD
ATOM     28  H   UNL     1      10.697  -0.088  25.192  0.00  0.00    +0.119 HD
ENDBRANCH  22  26
ENDBRANCH  20  22
ENDBRANCH  19  20
ENDBRANCH  18  19
ENDBRANCH  17  18
ENDBRANCH  16  17
ENDBRANCH   1  16
TORSDOF 9
ENDMDL
