MODEL 1
REMARK VINA RESULT:      -5.9      0.000      0.000
REMARK  Name = 
REMARK  13 active torsions:
REMARK  status: ('A' for Active; 'I' for Inactive)
REMARK    1  A    between atoms: C_1  and  C_2
REMARK    2  A    between atoms: C_2  and  C_3
REMARK    3  A    between atoms: C_3  and  C_4
REMARK    4  A    between atoms: C_3  and  O_6
REMARK    5  A    between atoms: C_4  and  C_5
REMARK    6  A    between atoms: O_6  and  C_7
REMARK    7  A    between atoms: C_9  and  C_19
REMARK    8  A    between atoms: C_11  and  N_18
REMARK    9  A    between atoms: C_12  and  N_14
REMARK   10  A    between atoms: C_15  and  C_17
REMARK   11  A    between atoms: C_19  and  O_21
REMARK   12  A    between atoms: O_21  and  C_22
REMARK   13  A    between atoms: C_22  and  C_23
REMARK                            x       y       z     vdW  Elec       q    Type
REMARK                         _______ _______ _______ _____ _____    ______ ____
ROOT
ATOM      1  C   UNL     1       7.252  -4.564  23.748  0.00  0.00    +0.164 C 
ATOM      2  C   UNL     1       7.697  -4.905  25.209  0.00  0.00    +0.122 C 
ATOM      3  C   UNL     1       9.020  -4.266  25.731  0.00  0.00    +0.078 C 
ATOM      4  C   UNL     1       9.628  -3.115  24.926  0.00  0.00    +0.062 C 
ATOM      5  C   UNL     1       9.041  -2.807  23.588  0.00  0.00    +0.037 C 
ATOM      6  C   UNL     1       7.973  -3.444  23.075  0.00  0.00    +0.016 C 
ENDROOT
BRANCH   2   7
ATOM      7  N   UNL     1       6.605  -4.680  26.169  0.00  0.00    -0.308 N 
ATOM      8  H   UNL     1       5.751  -4.303  25.765  0.00  0.00    +0.149 HD
ATOM      9  C   UNL     1       6.574  -5.289  27.399  0.00  0.00    +0.210 C 
ATOM     10  C   UNL     1       5.371  -4.935  28.227  0.00  0.00    +0.109 C 
ATOM     11  O   UNL     1       7.465  -6.024  27.815  0.00  0.00    -0.276 OA
ENDBRANCH   2   7
BRANCH   3  12
ATOM     12  N   UNL     1      10.053  -5.285  26.017  0.00  0.00    -0.325 NA
ATOM     13  H   UNL     1      10.728  -4.853  26.660  0.00  0.00    +0.119 HD
ATOM     14  H   UNL     1       9.650  -6.074  26.519  0.00  0.00    +0.119 HD
ENDBRANCH   3  12
BRANCH   5  15
ATOM     15  C   UNL     1       9.728  -1.675  22.897  0.00  0.00    +0.335 C 
ATOM     16  O   UNL     1      10.710  -1.830  22.185  0.00  0.00    -0.245 OA
BRANCH  15  17
ATOM     17  O   UNL     1       9.211  -0.480  23.272  0.00  0.00    -0.462 OA
BRANCH  17  18
ATOM     18  C   UNL     1      10.184   0.567  23.393  0.00  0.00    +0.229 C 
ATOM     19  C   UNL     1      10.728   0.514  24.809  0.00  0.00    +0.048 C 
ENDBRANCH  17  18
ENDBRANCH  15  17
ENDBRANCH   5  15
BRANCH   1  20
ATOM     20  O   UNL     1       5.831  -4.301  23.790  0.00  0.00    -0.367 OA
BRANCH  20  21
ATOM     21  C   UNL     1       4.936  -5.035  22.937  0.00  0.00    +0.119 C 
BRANCH  21  23
ATOM     22  C   UNL     1       6.113  -5.738  20.753  0.00  0.00    +0.006 C 
ATOM     23  C   UNL     1       5.664  -6.142  22.149  0.00  0.00    +0.028 C 
ENDBRANCH  21  23
BRANCH  21  24
ATOM     24  C   UNL     1       3.870  -5.651  23.872  0.00  0.00    +0.028 C 
ATOM     25  C   UNL     1       4.302  -6.949  24.548  0.00  0.00    +0.006 C 
ENDBRANCH  21  24
ENDBRANCH  20  21
ENDBRANCH   1  20
TORSDOF 9
ENDMDL
MODEL 2
REMARK VINA RESULT:      -5.7      0.967      1.582
REMARK  Name = 
REMARK  13 active torsions:
REMARK  status: ('A' for Active; 'I' for Inactive)
REMARK    1  A    between atoms: C_1  and  C_2
REMARK    2  A    between atoms: C_2  and  C_3
REMARK    3  A    between atoms: C_3  and  C_4
REMARK    4  A    between atoms: C_3  and  O_6
REMARK    5  A    between atoms: C_4  and  C_5
REMARK    6  A    between atoms: O_6  and  C_7
REMARK    7  A    between atoms: C_9  and  C_19
REMARK    8  A    between atoms: C_11  and  N_18
REMARK    9  A    between atoms: C_12  and  N_14
REMARK   10  A    between atoms: C_15  and  C_17
REMARK   11  A    between atoms: C_19  and  O_21
REMARK   12  A    between atoms: O_21  and  C_22
REMARK   13  A    between atoms: C_22  and  C_23
REMARK                            x       y       z     vdW  Elec       q    Type
REMARK                         _______ _______ _______ _____ _____    ______ ____
ROOT
ATOM      1  C   UNL     1       7.034  -4.371  23.843  0.00  0.00    +0.164 C 
ATOM      2  C   UNL     1       7.577  -4.809  25.244  0.00  0.00    +0.122 C 
ATOM      3  C   UNL     1       8.993  -4.309  25.661  0.00  0.00    +0.078 C 
ATOM      4  C   UNL     1       9.627  -3.182  24.842  0.00  0.00    +0.062 C 
ATOM      5  C   UNL     1       8.952  -2.770  23.575  0.00  0.00    +0.037 C 
ATOM      6  C   UNL     1       7.789  -3.290  23.143  0.00  0.00    +0.016 C 
ENDROOT
BRANCH   2   7
ATOM      7  N   UNL     1       6.600  -4.531  26.308  0.00  0.00    -0.308 N 
ATOM      8  H   UNL     1       5.761  -4.044  26.002  0.00  0.00    +0.149 HD
ATOM      9  C   UNL     1       6.606  -5.208  27.503  0.00  0.00    +0.210 C 
ATOM     10  C   UNL     1       5.522  -4.783  28.453  0.00  0.00    +0.109 C 
ATOM     11  O   UNL     1       7.445  -6.055  27.798  0.00  0.00    -0.276 OA
ENDBRANCH   2   7
BRANCH   3  12
ATOM     12  N   UNL     1       9.952  -5.424  25.815  0.00  0.00    -0.325 NA
ATOM     13  H   UNL     1       9.773  -6.081  25.046  0.00  0.00    +0.119 HD
ATOM     14  H   UNL     1      10.907  -5.096  25.689  0.00  0.00    +0.119 HD
ENDBRANCH   3  12
BRANCH   5  15
ATOM     15  C   UNL     1       9.672  -1.673  22.862  0.00  0.00    +0.335 C 
ATOM     16  O   UNL     1      10.686  -1.863  22.204  0.00  0.00    -0.245 OA
BRANCH  15  17
ATOM     17  O   UNL     1       9.142  -0.461  23.153  0.00  0.00    -0.462 OA
BRANCH  17  18
ATOM     18  C   UNL     1       9.819   0.640  22.532  0.00  0.00    +0.229 C 
ATOM     19  C   UNL     1       8.919   1.152  21.421  0.00  0.00    +0.048 C 
ENDBRANCH  17  18
ENDBRANCH  15  17
ENDBRANCH   5  15
BRANCH   1  20
ATOM     20  O   UNL     1       5.652  -3.989  24.025  0.00  0.00    -0.367 OA
BRANCH  20  21
ATOM     21  C   UNL     1       4.606  -4.745  23.394  0.00  0.00    +0.119 C 
BRANCH  21  23
ATOM     22  C   UNL     1       4.403  -6.988  24.651  0.00  0.00    +0.006 C 
ATOM     23  C   UNL     1       4.894  -6.260  23.410  0.00  0.00    +0.028 C 
ENDBRANCH  21  23
BRANCH  21  24
ATOM     24  C   UNL     1       3.318  -4.433  24.191  0.00  0.00    +0.028 C 
ATOM     25  C   UNL     1       3.477  -3.334  25.237  0.00  0.00    +0.006 C 
ENDBRANCH  21  24
ENDBRANCH  20  21
ENDBRANCH   1  20
TORSDOF 9
ENDMDL
MODEL 3
REMARK VINA RESULT:      -5.6      1.913      2.511
REMARK  Name = 
REMARK  13 active torsions:
REMARK  status: ('A' for Active; 'I' for Inactive)
REMARK    1  A    between atoms: C_1  and  C_2
REMARK    2  A    between atoms: C_2  and  C_3
REMARK    3  A    between atoms: C_3  and  C_4
REMARK    4  A    between atoms: C_3  and  O_6
REMARK    5  A    between atoms: C_4  and  C_5
REMARK    6  A    between atoms: O_6  and  C_7
REMARK    7  A    between atoms: C_9  and  C_19
REMARK    8  A    between atoms: C_11  and  N_18
REMARK    9  A    between atoms: C_12  and  N_14
REMARK   10  A    between atoms: C_15  and  C_17
REMARK   11  A    between atoms: C_19  and  O_21
REMARK   12  A    between atoms: O_21  and  C_22
REMARK   13  A    between atoms: C_22  and  C_23
REMARK                            x       y       z     vdW  Elec       q    Type
REMARK                         _______ _______ _______ _____ _____    ______ ____
ROOT
ATOM      1  C   UNL     1       8.942  -3.429  24.969  0.00  0.00    +0.164 C 
ATOM      2  C   UNL     1       8.267  -2.704  26.180  0.00  0.00    +0.122 C 
ATOM      3  C   UNL     1       8.400  -1.153  26.262  0.00  0.00    +0.078 C 
ATOM      4  C   UNL     1       8.891  -0.408  25.019  0.00  0.00    +0.062 C 
ATOM      5  C   UNL     1       9.409  -1.216  23.875  0.00  0.00    +0.037 C 
ATOM      6  C   UNL     1       9.414  -2.561  23.850  0.00  0.00    +0.016 C 
ENDROOT
BRANCH   2   7
ATOM      7  N   UNL     1       6.860  -3.107  26.330  0.00  0.00    -0.308 N 
ATOM      8  H   UNL     1       6.233  -2.745  25.615  0.00  0.00    +0.149 HD
ATOM      9  C   UNL     1       6.484  -4.184  27.095  0.00  0.00    +0.210 C 
ATOM     10  C   UNL     1       5.002  -4.435  27.112  0.00  0.00    +0.109 C 
ATOM     11  O   UNL     1       7.273  -4.861  27.747  0.00  0.00    -0.276 OA
ENDBRANCH   2   7
BRANCH   3  12
ATOM     12  N   UNL     1       9.173  -0.725  27.448  0.00  0.00    -0.325 NA
ATOM     13  H   UNL     1       8.491  -0.486  28.179  0.00  0.00    +0.119 HD
ATOM     14  H   UNL     1       9.723  -1.497  27.817  0.00  0.00    +0.119 HD
ENDBRANCH   3  12
BRANCH   5  15
ATOM     15  C   UNL     1       9.870  -0.375  22.730  0.00  0.00    +0.335 C 
ATOM     16  O   UNL     1       9.754  -0.723  21.562  0.00  0.00    -0.245 OA
BRANCH  15  17
ATOM     17  O   UNL     1      10.538   0.723  23.159  0.00  0.00    -0.462 OA
BRANCH  17  18
ATOM     18  C   UNL     1      10.181   1.931  22.473  0.00  0.00    +0.229 C 
ATOM     19  C   UNL     1      10.443   3.082  23.428  0.00  0.00    +0.048 C 
ENDBRANCH  17  18
ENDBRANCH  15  17
ENDBRANCH   5  15
BRANCH   1  20
ATOM     20  O   UNL     1       7.999  -4.412  24.485  0.00  0.00    -0.367 OA
BRANCH  20  21
ATOM     21  C   UNL     1       7.547  -4.368  23.122  0.00  0.00    +0.119 C 
BRANCH  21  23
ATOM     22  C   UNL     1       6.507  -5.954  21.375  0.00  0.00    +0.006 C 
ATOM     23  C   UNL     1       7.550  -5.763  22.465  0.00  0.00    +0.028 C 
ENDBRANCH  21  23
BRANCH  21  24
ATOM     24  C   UNL     1       6.111  -3.798  23.170  0.00  0.00    +0.028 C 
ATOM     25  C   UNL     1       5.991  -2.356  22.687  0.00  0.00    +0.006 C 
ENDBRANCH  21  24
ENDBRANCH  20  21
ENDBRANCH   1  20
TORSDOF 9
ENDMDL
MODEL 4
REMARK VINA RESULT:      -5.3      2.222      2.892
REMARK  Name = 
REMARK  13 active torsions:
REMARK  status: ('A' for Active; 'I' for Inactive)
REMARK    1  A    between atoms: C_1  and  C_2
REMARK    2  A    between atoms: C_2  and  C_3
REMARK    3  A    between atoms: C_3  and  C_4
REMARK    4  A    between atoms: C_3  and  O_6
REMARK    5  A    between atoms: C_4  and  C_5
REMARK    6  A    between atoms: O_6  and  C_7
REMARK    7  A    between atoms: C_9  and  C_19
REMARK    8  A    between atoms: C_11  and  N_18
REMARK    9  A    between atoms: C_12  and  N_14
REMARK   10  A    between atoms: C_15  and  C_17
REMARK   11  A    between atoms: C_19  and  O_21
REMARK   12  A    between atoms: O_21  and  C_22
REMARK   13  A    between atoms: C_22  and  C_23
REMARK                            x       y       z     vdW  Elec       q    Type
REMARK                         _______ _______ _______ _____ _____    ______ ____
ROOT
ATOM      1  C   UNL     1       7.107  -2.540  22.815  0.00  0.00    +0.164 C 
ATOM      2  C   UNL     1       8.410  -3.025  23.534  0.00  0.00    +0.122 C 
ATOM      3  C   UNL     1       9.535  -1.975  23.780  0.00  0.00    +0.078 C 
ATOM      4  C   UNL     1       9.187  -0.494  23.605  0.00  0.00    +0.062 C 
ATOM      5  C   UNL     1       7.861  -0.151  23.012  0.00  0.00    +0.037 C 
ATOM      6  C   UNL     1       6.932  -1.064  22.678  0.00  0.00    +0.016 C 
ENDROOT
BRANCH   2   7
ATOM      7  N   UNL     1       8.100  -3.746  24.779  0.00  0.00    -0.308 N 
ATOM      8  H   UNL     1       7.118  -3.736  25.045  0.00  0.00    +0.149 HD
ATOM      9  C   UNL     1       8.949  -4.683  25.313  0.00  0.00    +0.210 C 
ATOM     10  C   UNL     1       8.446  -5.312  26.582  0.00  0.00    +0.109 C 
ATOM     11  O   UNL     1      10.045  -4.958  24.832  0.00  0.00    -0.276 OA
ENDBRANCH   2   7
BRANCH   3  12
ATOM     12  N   UNL     1      10.769  -2.297  23.031  0.00  0.00    -0.325 NA
ATOM     13  H   UNL     1      10.582  -2.088  22.043  0.00  0.00    +0.119 HD
ATOM     14  H   UNL     1      11.530  -1.682  23.311  0.00  0.00    +0.119 HD
ENDBRANCH   3  12
BRANCH   5  15
ATOM     15  C   UNL     1       7.645   1.321  22.880  0.00  0.00    +0.335 C 
ATOM     16  O   UNL     1       7.146   1.833  21.887  0.00  0.00    -0.245 OA
BRANCH  15  17
ATOM     17  O   UNL     1       8.192   1.996  23.920  0.00  0.00    -0.462 OA
BRANCH  17  18
ATOM     18  C   UNL     1       8.792   3.247  23.557  0.00  0.00    +0.229 C 
ATOM     19  C   UNL     1      10.292   3.019  23.479  0.00  0.00    +0.048 C 
ENDBRANCH  17  18
ENDBRANCH  15  17
ENDBRANCH   5  15
BRANCH   1  20
ATOM     20  O   UNL     1       5.991  -3.120  23.527  0.00  0.00    -0.367 OA
BRANCH  20  21
ATOM     21  C   UNL     1       5.122  -4.055  22.868  0.00  0.00    +0.119 C 
BRANCH  21  23
ATOM     22  C   UNL     1       6.143  -5.700  21.164  0.00  0.00    +0.006 C 
ATOM     23  C   UNL     1       5.812  -5.412  22.620  0.00  0.00    +0.028 C 
ENDBRANCH  21  23
BRANCH  21  24
ATOM     24  C   UNL     1       3.903  -4.233  23.802  0.00  0.00    +0.028 C 
ATOM     25  C   UNL     1       2.958  -5.359  23.395  0.00  0.00    +0.006 C 
ENDBRANCH  21  24
ENDBRANCH  20  21
ENDBRANCH   1  20
TORSDOF 9
ENDMDL
MODEL 5
REMARK VINA RESULT:      -5.2      2.953      6.125
REMARK  Name = 
REMARK  13 active torsions:
REMARK  status: ('A' for Active; 'I' for Inactive)
REMARK    1  A    between atoms: C_1  and  C_2
REMARK    2  A    between atoms: C_2  and  C_3
REMARK    3  A    between atoms: C_3  and  C_4
REMARK    4  A    between atoms: C_3  and  O_6
REMARK    5  A    between atoms: C_4  and  C_5
REMARK    6  A    between atoms: O_6  and  C_7
REMARK    7  A    between atoms: C_9  and  C_19
REMARK    8  A    between atoms: C_11  and  N_18
REMARK    9  A    between atoms: C_12  and  N_14
REMARK   10  A    between atoms: C_15  and  C_17
REMARK   11  A    between atoms: C_19  and  O_21
REMARK   12  A    between atoms: O_21  and  C_22
REMARK   13  A    between atoms: C_22  and  C_23
REMARK                            x       y       z     vdW  Elec       q    Type
REMARK                         _______ _______ _______ _____ _____    ______ ____
ROOT
ATOM      1  C   UNL     1       6.991  -1.228  23.309  0.00  0.00    +0.164 C 
ATOM      2  C   UNL     1       5.993  -0.974  24.487  0.00  0.00    +0.122 C 
ATOM      3  C   UNL     1       5.479  -2.214  25.281  0.00  0.00    +0.078 C 
ATOM      4  C   UNL     1       6.208  -3.546  25.084  0.00  0.00    +0.062 C 
ATOM      5  C   UNL     1       7.228  -3.633  23.997  0.00  0.00    +0.037 C 
ATOM      6  C   UNL     1       7.586  -2.595  23.221  0.00  0.00    +0.016 C 
ENDROOT
BRANCH   2   7
ATOM      7  N   UNL     1       6.502   0.052  25.411  0.00  0.00    -0.308 N 
ATOM      8  H   UNL     1       7.491   0.267  25.308  0.00  0.00    +0.149 HD
ATOM      9  C   UNL     1       5.671   0.929  26.061  0.00  0.00    +0.210 C 
ATOM     10  C   UNL     1       6.386   1.905  26.952  0.00  0.00    +0.109 C 
ATOM     11  O   UNL     1       4.447   0.901  25.966  0.00  0.00    -0.276 OA
ENDBRANCH   2   7
BRANCH   3  12
ATOM     12  N   UNL     1       4.021  -2.406  25.127  0.00  0.00    -0.325 NA
ATOM     13  H   UNL     1       3.833  -3.403  25.291  0.00  0.00    +0.119 HD
ATOM     14  H   UNL     1       3.514  -1.900  25.849  0.00  0.00    +0.119 HD
ENDBRANCH   3  12
BRANCH   5  15
ATOM     15  C   UNL     1       7.857  -4.984  23.897  0.00  0.00    +0.335 C 
ATOM     16  O   UNL     1       9.013  -5.205  24.233  0.00  0.00    -0.245 OA
BRANCH  15  17
ATOM     17  O   UNL     1       7.041  -5.865  23.270  0.00  0.00    -0.462 OA
BRANCH  17  18
ATOM     18  C   UNL     1       7.353  -6.073  21.886  0.00  0.00    +0.229 C 
ATOM     19  C   UNL     1       6.108  -5.727  21.089  0.00  0.00    +0.048 C 
ENDBRANCH  17  18
ENDBRANCH  15  17
ENDBRANCH   5  15
BRANCH   1  20
ATOM     20  O   UNL     1       8.030  -0.228  23.413  0.00  0.00    -0.367 OA
BRANCH  20  21
ATOM     21  C   UNL     1       9.199  -0.314  22.581  0.00  0.00    +0.119 C 
BRANCH  21  23
ATOM     22  C   UNL     1       8.319   1.949  21.714  0.00  0.00    +0.006 C 
ATOM     23  C   UNL     1       9.175   0.723  21.440  0.00  0.00    +0.028 C 
ENDBRANCH  21  23
BRANCH  21  24
ATOM     24  C   UNL     1      10.404  -0.059  23.516  0.00  0.00    +0.028 C 
ATOM     25  C   UNL     1      10.026   0.223  24.966  0.00  0.00    +0.006 C 
ENDBRANCH  21  24
ENDBRANCH  20  21
ENDBRANCH   1  20
TORSDOF 9
ENDMDL
MODEL 6
REMARK VINA RESULT:      -5.2      2.783      5.979
REMARK  Name = 
REMARK  13 active torsions:
REMARK  status: ('A' for Active; 'I' for Inactive)
REMARK    1  A    between atoms: C_1  and  C_2
REMARK    2  A    between atoms: C_2  and  C_3
REMARK    3  A    between atoms: C_3  and  C_4
REMARK    4  A    between atoms: C_3  and  O_6
REMARK    5  A    between atoms: C_4  and  C_5
REMARK    6  A    between atoms: O_6  and  C_7
REMARK    7  A    between atoms: C_9  and  C_19
REMARK    8  A    between atoms: C_11  and  N_18
REMARK    9  A    between atoms: C_12  and  N_14
REMARK   10  A    between atoms: C_15  and  C_17
REMARK   11  A    between atoms: C_19  and  O_21
REMARK   12  A    between atoms: O_21  and  C_22
REMARK   13  A    between atoms: C_22  and  C_23
REMARK                            x       y       z     vdW  Elec       q    Type
REMARK                         _______ _______ _______ _____ _____    ______ ____
ROOT
ATOM      1  C   UNL     1       5.968  -2.619  22.936  0.00  0.00    +0.164 C 
ATOM      2  C   UNL     1       6.603  -1.268  23.406  0.00  0.00    +0.122 C 
ATOM      3  C   UNL     1       6.003  -0.589  24.675  0.00  0.00    +0.078 C 
ATOM      4  C   UNL     1       5.067  -1.417  25.559  0.00  0.00    +0.062 C 
ATOM      5  C   UNL     1       4.619  -2.748  25.052  0.00  0.00    +0.037 C 
ATOM      6  C   UNL     1       5.036  -3.287  23.892  0.00  0.00    +0.016 C 
ENDROOT
BRANCH   2   7
ATOM      7  N   UNL     1       8.065  -1.374  23.524  0.00  0.00    -0.308 N 
ATOM      8  H   UNL     1       8.406  -2.284  23.825  0.00  0.00    +0.149 HD
ATOM      9  C   UNL     1       8.915  -0.492  22.904  0.00  0.00    +0.210 C 
ATOM     10  C   UNL     1      10.372  -0.776  23.140  0.00  0.00    +0.109 C 
ATOM     11  O   UNL     1       8.532   0.474  22.249  0.00  0.00    -0.276 OA
ENDBRANCH   2   7
BRANCH   3  12
ATOM     12  N   UNL     1       5.382   0.717  24.364  0.00  0.00    -0.325 NA
ATOM     13  H   UNL     1       4.365   0.590  24.440  0.00  0.00    +0.119 HD
ATOM     14  H   UNL     1       5.633   1.410  25.066  0.00  0.00    +0.119 HD
ENDBRANCH   3  12
BRANCH   5  15
ATOM     15  C   UNL     1       3.700  -3.452  25.996  0.00  0.00    +0.335 C 
ATOM     16  O   UNL     1       2.571  -3.052  26.246  0.00  0.00    -0.245 OA
BRANCH  15  17
ATOM     17  O   UNL     1       4.325  -4.478  26.622  0.00  0.00    -0.462 OA
BRANCH  17  18
ATOM     18  C   UNL     1       3.766  -5.768  26.335  0.00  0.00    +0.229 C 
ATOM     19  C   UNL     1       4.871  -6.608  25.720  0.00  0.00    +0.048 C 
ENDBRANCH  17  18
ENDBRANCH  15  17
ENDBRANCH   5  15
BRANCH   1  20
ATOM     20  O   UNL     1       7.061  -3.502  22.593  0.00  0.00    -0.367 OA
BRANCH  20  21
ATOM     21  C   UNL     1       7.090  -4.845  23.102  0.00  0.00    +0.119 C 
BRANCH  21  23
ATOM     22  C   UNL     1       6.169  -5.789  20.885  0.00  0.00    +0.006 C 
ATOM     23  C   UNL     1       7.225  -5.889  21.976  0.00  0.00    +0.028 C 
ENDBRANCH  21  23
BRANCH  21  24
ATOM     24  C   UNL     1       8.310  -4.913  24.049  0.00  0.00    +0.028 C 
ATOM     25  C   UNL     1       8.011  -4.506  25.489  0.00  0.00    +0.006 C 
ENDBRANCH  21  24
ENDBRANCH  20  21
ENDBRANCH   1  20
TORSDOF 9
ENDMDL
MODEL 7
REMARK VINA RESULT:      -5.2      2.557      6.219
REMARK  Name = 
REMARK  13 active torsions:
REMARK  status: ('A' for Active; 'I' for Inactive)
REMARK    1  A    between atoms: C_1  and  C_2
REMARK    2  A    between atoms: C_2  and  C_3
REMARK    3  A    between atoms: C_3  and  C_4
REMARK    4  A    between atoms: C_3  and  O_6
REMARK    5  A    between atoms: C_4  and  C_5
REMARK    6  A    between atoms: O_6  and  C_7
REMARK    7  A    between atoms: C_9  and  C_19
REMARK    8  A    between atoms: C_11  and  N_18
REMARK    9  A    between atoms: C_12  and  N_14
REMARK   10  A    between atoms: C_15  and  C_17
REMARK   11  A    between atoms: C_19  and  O_21
REMARK   12  A    between atoms: O_21  and  C_22
REMARK   13  A    between atoms: C_22  and  C_23
REMARK                            x       y       z     vdW  Elec       q    Type
REMARK                         _______ _______ _______ _____ _____    ______ ____
ROOT
ATOM      1  C   UNL     1       6.880  -1.643  23.547  0.00  0.00    +0.164 C 
ATOM      2  C   UNL     1       8.110  -2.041  24.429  0.00  0.00    +0.122 C 
ATOM      3  C   UNL     1       8.459  -3.555  24.545  0.00  0.00    +0.078 C 
ATOM      4  C   UNL     1       7.801  -4.522  23.558  0.00  0.00    +0.062 C 
ATOM      5  C   UNL     1       6.711  -3.996  22.682  0.00  0.00    +0.037 C 
ATOM      6  C   UNL     1       6.317  -2.710  22.669  0.00  0.00    +0.016 C 
ENDROOT
BRANCH   2   7
ATOM      7  N   UNL     1       9.306  -1.264  24.064  0.00  0.00    -0.308 N 
ATOM      8  H   UNL     1       9.536  -1.274  23.073  0.00  0.00    +0.149 HD
ATOM      9  C   UNL     1       9.825  -0.292  24.882  0.00  0.00    +0.210 C 
ATOM     10  C   UNL     1      11.042   0.391  24.325  0.00  0.00    +0.109 C 
ATOM     11  O   UNL     1       9.372  -0.026  25.992  0.00  0.00    -0.276 OA
ENDBRANCH   2   7
BRANCH   3  12
ATOM     12  N   UNL     1       8.302  -4.058  25.927  0.00  0.00    -0.325 NA
ATOM     13  H   UNL     1       7.487  -4.684  25.926  0.00  0.00    +0.119 HD
ATOM     14  H   UNL     1       9.099  -4.631  26.193  0.00  0.00    +0.119 HD
ENDBRANCH   3  12
BRANCH   5  15
ATOM     15  C   UNL     1       6.141  -5.036  21.775  0.00  0.00    +0.335 C 
ATOM     16  O   UNL     1       5.927  -4.836  20.587  0.00  0.00    -0.245 OA
BRANCH  15  17
ATOM     17  O   UNL     1       5.775  -6.145  22.461  0.00  0.00    -0.462 OA
BRANCH  17  18
ATOM     18  C   UNL     1       4.497  -6.044  23.103  0.00  0.00    +0.229 C 
ATOM     19  C   UNL     1       4.659  -6.580  24.514  0.00  0.00    +0.048 C 
ENDBRANCH  17  18
ENDBRANCH  15  17
ENDBRANCH   5  15
BRANCH   1  20
ATOM     20  O   UNL     1       7.276  -0.496  22.762  0.00  0.00    -0.367 OA
BRANCH  20  21
ATOM     21  C   UNL     1       6.654   0.780  22.985  0.00  0.00    +0.119 C 
BRANCH  21  23
ATOM     22  C   UNL     1       5.083   1.947  24.664  0.00  0.00    +0.006 C 
ATOM     23  C   UNL     1       6.228   0.969  24.454  0.00  0.00    +0.028 C 
ENDBRANCH  21  23
BRANCH  21  24
ATOM     24  C   UNL     1       7.707   1.840  22.588  0.00  0.00    +0.028 C 
ATOM     25  C   UNL     1       8.707   1.369  21.536  0.00  0.00    +0.006 C 
ENDBRANCH  21  24
ENDBRANCH  20  21
ENDBRANCH   1  20
TORSDOF 9
ENDMDL
MODEL 8
REMARK VINA RESULT:      -5.1      2.577      3.870
REMARK  Name = 
REMARK  13 active torsions:
REMARK  status: ('A' for Active; 'I' for Inactive)
REMARK    1  A    between atoms: C_1  and  C_2
REMARK    2  A    between atoms: C_2  and  C_3
REMARK    3  A    between atoms: C_3  and  C_4
REMARK    4  A    between atoms: C_3  and  O_6
REMARK    5  A    between atoms: C_4  and  C_5
REMARK    6  A    between atoms: O_6  and  C_7
REMARK    7  A    between atoms: C_9  and  C_19
REMARK    8  A    between atoms: C_11  and  N_18
REMARK    9  A    between atoms: C_12  and  N_14
REMARK   10  A    between atoms: C_15  and  C_17
REMARK   11  A    between atoms: C_19  and  O_21
REMARK   12  A    between atoms: O_21  and  C_22
REMARK   13  A    between atoms: C_22  and  C_23
REMARK                            x       y       z     vdW  Elec       q    Type
REMARK                         _______ _______ _______ _____ _____    ______ ____
ROOT
ATOM      1  C   UNL     1       8.763  -2.135  25.185  0.00  0.00    +0.164 C 
ATOM      2  C   UNL     1       7.566  -1.536  25.996  0.00  0.00    +0.122 C 
ATOM      3  C   UNL     1       7.595  -0.009  26.308  0.00  0.00    +0.078 C 
ATOM      4  C   UNL     1       8.599   0.861  25.548  0.00  0.00    +0.062 C 
ATOM      5  C   UNL     1       9.628   0.175  24.710  0.00  0.00    +0.037 C 
ATOM      6  C   UNL     1       9.686  -1.157  24.538  0.00  0.00    +0.016 C 
ENDROOT
BRANCH   2   7
ATOM      7  N   UNL     1       6.273  -1.915  25.404  0.00  0.00    -0.308 N 
ATOM      8  H   UNL     1       6.254  -1.918  24.387  0.00  0.00    +0.149 HD
ATOM      9  C   UNL     1       5.314  -2.593  26.114  0.00  0.00    +0.210 C 
ATOM     10  C   UNL     1       4.069  -2.893  25.327  0.00  0.00    +0.109 C 
ATOM     11  O   UNL     1       5.431  -2.893  27.299  0.00  0.00    -0.276 OA
ENDBRANCH   2   7
BRANCH   3  12
ATOM     12  N   UNL     1       7.689   0.259  27.760  0.00  0.00    -0.325 NA
ATOM     13  H   UNL     1       8.326   1.057  27.875  0.00  0.00    +0.119 HD
ATOM     14  H   UNL     1       6.789   0.560  28.128  0.00  0.00    +0.119 HD
ENDBRANCH   3  12
BRANCH   5  15
ATOM     15  C   UNL     1      10.556   1.129  24.032  0.00  0.00    +0.335 C 
ATOM     16  O   UNL     1      11.756   1.169  24.267  0.00  0.00    -0.245 OA
BRANCH  15  17
ATOM     17  O   UNL     1       9.880   2.006  23.251  0.00  0.00    -0.462 OA
BRANCH  17  18
ATOM     18  C   UNL     1       9.730   1.585  21.889  0.00  0.00    +0.229 C 
ATOM     19  C   UNL     1       8.251   1.665  21.554  0.00  0.00    +0.048 C 
ENDBRANCH  17  18
ENDBRANCH  15  17
ENDBRANCH   5  15
BRANCH   1  20
ATOM     20  O   UNL     1       8.199  -3.030  24.199  0.00  0.00    -0.367 OA
BRANCH  20  21
ATOM     21  C   UNL     1       8.512  -4.432  24.236  0.00  0.00    +0.119 C 
BRANCH  21  23
ATOM     22  C   UNL     1       7.812  -5.391  26.525  0.00  0.00    +0.006 C 
ATOM     23  C   UNL     1       8.946  -4.893  25.642  0.00  0.00    +0.028 C 
ENDBRANCH  21  23
BRANCH  21  24
ATOM     24  C   UNL     1       7.222  -5.165  23.802  0.00  0.00    +0.028 C 
ATOM     25  C   UNL     1       7.263  -5.724  22.383  0.00  0.00    +0.006 C 
ENDBRANCH  21  24
ENDBRANCH  20  21
ENDBRANCH   1  20
TORSDOF 9
ENDMDL
MODEL 9
REMARK VINA RESULT:      -5.0      2.805      3.876
REMARK  Name = 
REMARK  13 active torsions:
REMARK  status: ('A' for Active; 'I' for Inactive)
REMARK    1  A    between atoms: C_1  and  C_2
REMARK    2  A    between atoms: C_2  and  C_3
REMARK    3  A    between atoms: C_3  and  C_4
REMARK    4  A    between atoms: C_3  and  O_6
REMARK    5  A    between atoms: C_4  and  C_5
REMARK    6  A    between atoms: O_6  and  C_7
REMARK    7  A    between atoms: C_9  and  C_19
REMARK    8  A    between atoms: C_11  and  N_18
REMARK    9  A    between atoms: C_12  and  N_14
REMARK   10  A    between atoms: C_15  and  C_17
REMARK   11  A    between atoms: C_19  and  O_21
REMARK   12  A    between atoms: O_21  and  C_22
REMARK   13  A    between atoms: C_22  and  C_23
REMARK                            x       y       z     vdW  Elec       q    Type
REMARK                         _______ _______ _______ _____ _____    ______ ____
ROOT
ATOM      1  C   UNL     1       7.156  -1.481  23.321  0.00  0.00    +0.164 C 
ATOM      2  C   UNL     1       8.577  -2.119  23.473  0.00  0.00    +0.122 C 
ATOM      3  C   UNL     1       9.810  -1.231  23.124  0.00  0.00    +0.078 C 
ATOM      4  C   UNL     1       9.590   0.276  22.970  0.00  0.00    +0.062 C 
ATOM      5  C   UNL     1       8.185   0.782  22.956  0.00  0.00    +0.037 C 
ATOM      6  C   UNL     1       7.106  -0.001  23.129  0.00  0.00    +0.016 C 
ENDROOT
BRANCH   2   7
ATOM      7  N   UNL     1       8.748  -2.740  24.795  0.00  0.00    -0.308 N 
ATOM      8  H   UNL     1       8.499  -2.145  25.583  0.00  0.00    +0.149 HD
ATOM      9  C   UNL     1       8.834  -4.100  24.960  0.00  0.00    +0.210 C 
ATOM     10  C   UNL     1       8.998  -4.534  26.390  0.00  0.00    +0.109 C 
ATOM     11  O   UNL     1       8.825  -4.898  24.027  0.00  0.00    -0.276 OA
ENDBRANCH   2   7
BRANCH   3  12
ATOM     12  N   UNL     1      10.561  -1.755  21.963  0.00  0.00    -0.325 NA
ATOM     13  H   UNL     1      11.328  -1.096  21.782  0.00  0.00    +0.119 HD
ATOM     14  H   UNL     1      11.001  -2.644  22.191  0.00  0.00    +0.119 HD
ENDBRANCH   3  12
BRANCH   5  15
ATOM     15  C   UNL     1       8.102   2.264  22.786  0.00  0.00    +0.335 C 
ATOM     16  O   UNL     1       7.420   2.796  21.921  0.00  0.00    -0.245 OA
BRANCH  15  17
ATOM     17  O   UNL     1       8.969   2.905  23.606  0.00  0.00    -0.462 OA
BRANCH  17  18
ATOM     18  C   UNL     1       8.482   3.098  24.941  0.00  0.00    +0.229 C 
ATOM     19  C   UNL     1       8.110   4.564  25.076  0.00  0.00    +0.048 C 
ENDBRANCH  17  18
ENDBRANCH  15  17
ENDBRANCH   5  15
BRANCH   1  20
ATOM     20  O   UNL     1       6.393  -1.867  24.486  0.00  0.00    -0.367 OA
BRANCH  20  21
ATOM     21  C   UNL     1       5.170  -2.608  24.335  0.00  0.00    +0.119 C 
BRANCH  21  23
ATOM     22  C   UNL     1       5.290  -5.114  23.740  0.00  0.00    +0.006 C 
ATOM     23  C   UNL     1       5.276  -3.681  23.232  0.00  0.00    +0.028 C 
ENDBRANCH  21  23
BRANCH  21  24
ATOM     24  C   UNL     1       4.903  -3.269  25.706  0.00  0.00    +0.028 C 
ATOM     25  C   UNL     1       5.739  -2.704  26.850  0.00  0.00    +0.006 C 
ENDBRANCH  21  24
ENDBRANCH  20  21
ENDBRANCH   1  20
TORSDOF 9
ENDMDL
