MODEL 1
REMARK VINA RESULT:      -4.9      0.000      0.000
REMARK  Name = 
REMARK  3 active torsions:
REMARK  status: ('A' for Active; 'I' for Inactive)
REMARK    1  A    between atoms: C_1  and  O_2
REMARK    2  A    between atoms: O_2  and  C_3
REMARK    3  A    between atoms: C_6  and  C_9
REMARK                            x       y       z     vdW  Elec       q    Type
REMARK                         _______ _______ _______ _____ _____    ______ ____
ROOT
ATOM      1  C   UNL     1      10.085  -0.529  22.908  0.00  0.00    +0.120 A 
ATOM      2  C   UNL     1      10.530  -0.025  24.130  0.00  0.00    +0.046 A 
ATOM      3  C   UNL     1      10.735   1.349  24.293  0.00  0.00    +0.016 A 
ATOM      4  C   UNL     1      10.490   2.233  23.236  0.00  0.00    +0.037 A 
ATOM      5  C   UNL     1       9.998   1.724  22.027  0.00  0.00    +0.016 A 
ATOM      6  C   UNL     1       9.789   0.351  21.868  0.00  0.00    +0.046 A 
ENDROOT
BRANCH   4   7
ATOM      7  C   UNL     1      10.735   3.700  23.335  0.00  0.00    +0.242 C 
ATOM      8  N   UNL     1       9.658   4.541  23.387  0.00  0.00    -0.325 N 
ATOM      9  H   UNL     1       9.861   5.524  23.506  0.00  0.00    +0.145 HD
ATOM     10  H   UNL     1       8.694   4.255  23.425  0.00  0.00    +0.145 HD
ATOM     11  O   UNL     1      11.871   4.158  23.391  0.00  0.00    -0.270 OA
ENDBRANCH   4   7
BRANCH   1  13
ATOM     12  C   UNL     1       9.708  -2.664  23.814  0.00  0.00    +0.277 C 
ATOM     13  O   UNL     1       9.875  -1.857  22.651  0.00  0.00    -0.495 OA
ENDBRANCH   1  13
TORSDOF 2
ENDMDL
MODEL 2
REMARK VINA RESULT:      -4.8      1.621      2.074
REMARK  Name = 
REMARK  3 active torsions:
REMARK  status: ('A' for Active; 'I' for Inactive)
REMARK    1  A    between atoms: C_1  and  O_2
REMARK    2  A    between atoms: O_2  and  C_3
REMARK    3  A    between atoms: C_6  and  C_9
REMARK                            x       y       z     vdW  Elec       q    Type
REMARK                         _______ _______ _______ _____ _____    ______ ____
ROOT
ATOM      1  C   UNL     1       9.818  -2.188  23.921  0.00  0.00    +0.120 A 
ATOM      2  C   UNL     1       9.544  -1.215  24.881  0.00  0.00    +0.046 A 
ATOM      3  C   UNL     1       9.633   0.142  24.555  0.00  0.00    +0.016 A 
ATOM      4  C   UNL     1       9.991   0.539  23.263  0.00  0.00    +0.037 A 
ATOM      5  C   UNL     1      10.219  -0.444  22.290  0.00  0.00    +0.016 A 
ATOM      6  C   UNL     1      10.124  -1.800  22.617  0.00  0.00    +0.046 A 
ENDROOT
BRANCH   4   7
ATOM      7  C   UNL     1      10.149   1.968  22.869  0.00  0.00    +0.242 C 
ATOM      8  N   UNL     1       9.893   2.321  21.573  0.00  0.00    -0.325 N 
ATOM      9  H   UNL     1       9.960   3.306  21.355  0.00  0.00    +0.145 HD
ATOM     10  H   UNL     1       9.544   1.707  20.857  0.00  0.00    +0.145 HD
ATOM     11  O   UNL     1      10.479   2.825  23.682  0.00  0.00    -0.270 OA
ENDBRANCH   4   7
BRANCH   1  13
ATOM     12  C   UNL     1       8.476  -4.044  24.445  0.00  0.00    +0.277 C 
ATOM     13  O   UNL     1       9.775  -3.536  24.153  0.00  0.00    -0.495 OA
ENDBRANCH   1  13
TORSDOF 2
ENDMDL
MODEL 3
REMARK VINA RESULT:      -4.8      2.243      4.847
REMARK  Name = 
REMARK  3 active torsions:
REMARK  status: ('A' for Active; 'I' for Inactive)
REMARK    1  A    between atoms: C_1  and  O_2
REMARK    2  A    between atoms: O_2  and  C_3
REMARK    3  A    between atoms: C_6  and  C_9
REMARK                            x       y       z     vdW  Elec       q    Type
REMARK                         _______ _______ _______ _____ _____    ______ ____
ROOT
ATOM      1  C   UNL     1      10.334   2.512  23.246  0.00  0.00    +0.120 A 
ATOM      2  C   UNL     1       9.924   2.033  22.002  0.00  0.00    +0.046 A 
ATOM      3  C   UNL     1       9.718   0.664  21.807  0.00  0.00    +0.016 A 
ATOM      4  C   UNL     1       9.915  -0.239  22.857  0.00  0.00    +0.037 A 
ATOM      5  C   UNL     1      10.282   0.253  24.116  0.00  0.00    +0.016 A 
ATOM      6  C   UNL     1      10.482   1.624  24.310  0.00  0.00    +0.046 A 
ENDROOT
BRANCH   4   7
ATOM      7  C   UNL     1       9.758  -1.713  22.696  0.00  0.00    +0.242 C 
ATOM      8  N   UNL     1       8.604  -2.191  22.140  0.00  0.00    -0.325 N 
ATOM      9  H   UNL     1       8.554  -3.191  21.999  0.00  0.00    +0.145 HD
ATOM     10  H   UNL     1       7.858  -1.629  21.766  0.00  0.00    +0.145 HD
ATOM     11  O   UNL     1      10.643  -2.493  23.031  0.00  0.00    -0.270 OA
ENDBRANCH   4   7
BRANCH   1  13
ATOM     12  C   UNL     1      11.926   4.239  23.307  0.00  0.00    +0.277 C 
ATOM     13  O   UNL     1      10.578   3.830  23.524  0.00  0.00    -0.495 OA
ENDBRANCH   1  13
TORSDOF 2
ENDMDL
MODEL 4
REMARK VINA RESULT:      -4.6      2.844      4.976
REMARK  Name = 
REMARK  3 active torsions:
REMARK  status: ('A' for Active; 'I' for Inactive)
REMARK    1  A    between atoms: C_1  and  O_2
REMARK    2  A    between atoms: O_2  and  C_3
REMARK    3  A    between atoms: C_6  and  C_9
REMARK                            x       y       z     vdW  Elec       q    Type
REMARK                         _______ _______ _______ _____ _____    ______ ____
ROOT
ATOM      1  C   UNL     1      10.133   0.941  22.770  0.00  0.00    +0.120 A 
ATOM      2  C   UNL     1      10.253   0.544  24.102  0.00  0.00    +0.046 A 
ATOM      3  C   UNL     1       9.964  -0.773  24.473  0.00  0.00    +0.016 A 
ATOM      4  C   UNL     1       9.558  -1.708  23.514  0.00  0.00    +0.037 A 
ATOM      5  C   UNL     1       9.484  -1.314  22.171  0.00  0.00    +0.016 A 
ATOM      6  C   UNL     1       9.779   0.003  21.802  0.00  0.00    +0.046 A 
ENDROOT
BRANCH   4   7
ATOM      7  C   UNL     1       9.190  -3.111  23.857  0.00  0.00    +0.242 C 
ATOM      8  N   UNL     1       7.946  -3.563  23.516  0.00  0.00    -0.325 N 
ATOM      9  H   UNL     1       7.750  -4.534  23.717  0.00  0.00    +0.145 HD
ATOM     10  H   UNL     1       7.259  -3.046  22.993  0.00  0.00    +0.145 HD
ATOM     11  O   UNL     1       9.982  -3.865  24.413  0.00  0.00    -0.270 OA
ENDBRANCH   4   7
BRANCH   1  13
ATOM     12  C   UNL     1      10.702   3.148  23.340  0.00  0.00    +0.277 C 
ATOM     13  O   UNL     1      10.375   2.210  22.318  0.00  0.00    -0.495 OA
ENDBRANCH   1  13
TORSDOF 2
ENDMDL
MODEL 5
REMARK VINA RESULT:      -4.5      2.575      3.152
REMARK  Name = 
REMARK  3 active torsions:
REMARK  status: ('A' for Active; 'I' for Inactive)
REMARK    1  A    between atoms: C_1  and  O_2
REMARK    2  A    between atoms: O_2  and  C_3
REMARK    3  A    between atoms: C_6  and  C_9
REMARK                            x       y       z     vdW  Elec       q    Type
REMARK                         _______ _______ _______ _____ _____    ______ ____
ROOT
ATOM      1  C   UNL     1       9.069  -2.597  23.478  0.00  0.00    +0.120 A 
ATOM      2  C   UNL     1      10.236  -1.900  23.165  0.00  0.00    +0.046 A 
ATOM      3  C   UNL     1      10.163  -0.608  22.634  0.00  0.00    +0.016 A 
ATOM      4  C   UNL     1       8.923   0.001  22.417  0.00  0.00    +0.037 A 
ATOM      5  C   UNL     1       7.757  -0.688  22.778  0.00  0.00    +0.016 A 
ATOM      6  C   UNL     1       7.832  -1.977  23.313  0.00  0.00    +0.046 A 
ENDROOT
BRANCH   4   7
ATOM      7  C   UNL     1       8.781   1.355  21.810  0.00  0.00    +0.242 C 
ATOM      8  N   UNL     1       9.912   2.085  21.568  0.00  0.00    -0.325 N 
ATOM      9  H   UNL     1       9.782   2.976  21.109  0.00  0.00    +0.145 HD
ATOM     10  H   UNL     1      10.855   1.766  21.710  0.00  0.00    +0.145 HD
ATOM     11  O   UNL     1       7.684   1.811  21.508  0.00  0.00    -0.270 OA
ENDBRANCH   4   7
BRANCH   1  13
ATOM     12  C   UNL     1       7.821  -4.569  23.754  0.00  0.00    +0.277 C 
ATOM     13  O   UNL     1       9.042  -3.869  23.983  0.00  0.00    -0.495 OA
ENDBRANCH   1  13
TORSDOF 2
ENDMDL
MODEL 6
REMARK VINA RESULT:      -4.4      4.262      6.456
REMARK  Name = 
REMARK  3 active torsions:
REMARK  status: ('A' for Active; 'I' for Inactive)
REMARK    1  A    between atoms: C_1  and  O_2
REMARK    2  A    between atoms: O_2  and  C_3
REMARK    3  A    between atoms: C_6  and  C_9
REMARK                            x       y       z     vdW  Elec       q    Type
REMARK                         _______ _______ _______ _____ _____    ______ ____
ROOT
ATOM      1  C   UNL     1       9.586  -1.266  24.440  0.00  0.00    +0.120 A 
ATOM      2  C   UNL     1       8.940  -1.022  25.652  0.00  0.00    +0.046 A 
ATOM      3  C   UNL     1       8.428  -2.085  26.404  0.00  0.00    +0.016 A 
ATOM      4  C   UNL     1       8.563  -3.402  25.953  0.00  0.00    +0.037 A 
ATOM      5  C   UNL     1       9.255  -3.643  24.758  0.00  0.00    +0.016 A 
ATOM      6  C   UNL     1       9.770  -2.579  24.012  0.00  0.00    +0.046 A 
ENDROOT
BRANCH   4   7
ATOM      7  C   UNL     1       7.996  -4.570  26.686  0.00  0.00    +0.242 C 
ATOM      8  N   UNL     1       8.529  -5.808  26.455  0.00  0.00    -0.325 N 
ATOM      9  H   UNL     1       8.155  -6.568  27.007  0.00  0.00    +0.145 HD
ATOM     10  H   UNL     1       9.323  -6.003  25.869  0.00  0.00    +0.145 HD
ATOM     11  O   UNL     1       7.086  -4.439  27.498  0.00  0.00    -0.270 OA
ENDBRANCH   4   7
BRANCH   1  13
ATOM     12  C   UNL     1      10.828   0.725  24.318  0.00  0.00    +0.277 C 
ATOM     13  O   UNL     1      10.101  -0.291  23.630  0.00  0.00    -0.495 OA
ENDBRANCH   1  13
TORSDOF 2
ENDMDL
MODEL 7
REMARK VINA RESULT:      -4.3      4.718      7.178
REMARK  Name = 
REMARK  3 active torsions:
REMARK  status: ('A' for Active; 'I' for Inactive)
REMARK    1  A    between atoms: C_1  and  O_2
REMARK    2  A    between atoms: O_2  and  C_3
REMARK    3  A    between atoms: C_6  and  C_9
REMARK                            x       y       z     vdW  Elec       q    Type
REMARK                         _______ _______ _______ _____ _____    ______ ____
ROOT
ATOM      1  C   UNL     1       8.943  -2.888  23.659  0.00  0.00    +0.120 A 
ATOM      2  C   UNL     1       8.690  -4.121  24.259  0.00  0.00    +0.046 A 
ATOM      3  C   UNL     1       7.607  -4.900  23.839  0.00  0.00    +0.016 A 
ATOM      4  C   UNL     1       6.770  -4.455  22.810  0.00  0.00    +0.037 A 
ATOM      5  C   UNL     1       7.058  -3.236  22.180  0.00  0.00    +0.016 A 
ATOM      6  C   UNL     1       8.145  -2.462  22.599  0.00  0.00    +0.046 A 
ENDROOT
BRANCH   4   7
ATOM      7  C   UNL     1       5.574  -5.218  22.352  0.00  0.00    +0.242 C 
ATOM      8  N   UNL     1       5.759  -6.453  21.797  0.00  0.00    -0.325 N 
ATOM      9  H   UNL     1       4.923  -6.963  21.546  0.00  0.00    +0.145 HD
ATOM     10  H   UNL     1       6.640  -6.933  21.719  0.00  0.00    +0.145 HD
ATOM     11  O   UNL     1       4.439  -4.771  22.483  0.00  0.00    -0.270 OA
ENDBRANCH   4   7
BRANCH   1  13
ATOM     12  C   UNL     1      10.194  -0.977  23.107  0.00  0.00    +0.277 C 
ATOM     13  O   UNL     1       9.965  -2.051  24.016  0.00  0.00    -0.495 OA
ENDBRANCH   1  13
TORSDOF 2
ENDMDL
MODEL 8
REMARK VINA RESULT:      -4.3      3.318      4.950
REMARK  Name = 
REMARK  3 active torsions:
REMARK  status: ('A' for Active; 'I' for Inactive)
REMARK    1  A    between atoms: C_1  and  O_2
REMARK    2  A    between atoms: O_2  and  C_3
REMARK    3  A    between atoms: C_6  and  C_9
REMARK                            x       y       z     vdW  Elec       q    Type
REMARK                         _______ _______ _______ _____ _____    ______ ____
ROOT
ATOM      1  C   UNL     1       8.001  -4.369  24.368  0.00  0.00    +0.120 A 
ATOM      2  C   UNL     1       7.428  -3.895  23.189  0.00  0.00    +0.046 A 
ATOM      3  C   UNL     1       8.009  -2.821  22.505  0.00  0.00    +0.016 A 
ATOM      4  C   UNL     1       9.171  -2.215  22.993  0.00  0.00    +0.037 A 
ATOM      5  C   UNL     1       9.767  -2.727  24.154  0.00  0.00    +0.016 A 
ATOM      6  C   UNL     1       9.188  -3.804  24.832  0.00  0.00    +0.046 A 
ENDROOT
BRANCH   4   7
ATOM      7  C   UNL     1       9.807  -1.038  22.336  0.00  0.00    +0.242 C 
ATOM      8  N   UNL     1       9.560  -0.817  21.009  0.00  0.00    -0.325 N 
ATOM      9  H   UNL     1       9.966   0.019  20.610  0.00  0.00    +0.145 HD
ATOM     10  H   UNL     1       8.929  -1.350  20.436  0.00  0.00    +0.145 HD
ATOM     11  O   UNL     1      10.523  -0.263  22.961  0.00  0.00    -0.270 OA
ENDBRANCH   4   7
BRANCH   1  13
ATOM     12  C   UNL     1       7.803  -5.331  26.502  0.00  0.00    +0.277 C 
ATOM     13  O   UNL     1       7.495  -5.399  25.113  0.00  0.00    -0.495 OA
ENDBRANCH   1  13
TORSDOF 2
ENDMDL
MODEL 9
REMARK VINA RESULT:      -4.2      2.201      2.696
REMARK  Name = 
REMARK  3 active torsions:
REMARK  status: ('A' for Active; 'I' for Inactive)
REMARK    1  A    between atoms: C_1  and  O_2
REMARK    2  A    between atoms: O_2  and  C_3
REMARK    3  A    between atoms: C_6  and  C_9
REMARK                            x       y       z     vdW  Elec       q    Type
REMARK                         _______ _______ _______ _____ _____    ______ ____
ROOT
ATOM      1  C   UNL     1       9.955   0.656  22.962  0.00  0.00    +0.120 A 
ATOM      2  C   UNL     1       9.205   1.022  21.844  0.00  0.00    +0.046 A 
ATOM      3  C   UNL     1       8.499   2.229  21.834  0.00  0.00    +0.016 A 
ATOM      4  C   UNL     1       8.541   3.084  22.940  0.00  0.00    +0.037 A 
ATOM      5  C   UNL     1       9.334   2.732  24.040  0.00  0.00    +0.016 A 
ATOM      6  C   UNL     1      10.043   1.527  24.046  0.00  0.00    +0.046 A 
ENDROOT
BRANCH   4   7
ATOM      7  C   UNL     1       7.772   4.360  23.006  0.00  0.00    +0.242 C 
ATOM      8  N   UNL     1       7.319   4.911  21.840  0.00  0.00    -0.325 N 
ATOM      9  H   UNL     1       6.757   5.748  21.927  0.00  0.00    +0.145 HD
ATOM     10  H   UNL     1       7.405   4.500  20.926  0.00  0.00    +0.145 HD
ATOM     11  O   UNL     1       7.524   4.905  24.076  0.00  0.00    -0.270 OA
ENDBRANCH   4   7
BRANCH   1  13
ATOM     12  C   UNL     1       9.957  -1.670  22.629  0.00  0.00    +0.277 C 
ATOM     13  O   UNL     1      10.661  -0.512  23.069  0.00  0.00    -0.495 OA
ENDBRANCH   1  13
TORSDOF 2
ENDMDL
