MODEL 1
REMARK VINA RESULT:      -6.4      0.000      0.000
REMARK  Name = 
REMARK  18 active torsions:
REMARK  status: ('A' for Active; 'I' for Inactive)
REMARK    1  A    between atoms: C_1  and  C_2
REMARK    2  A    between atoms: C_2  and  C_3
REMARK    3  A    between atoms: C_3  and  C_4
REMARK    4  A    between atoms: C_4  and  C_5
REMARK    5  A    between atoms: C_4  and  N_13
REMARK    6  A    between atoms: C_5  and  C_7
REMARK    7  A    between atoms: N_9  and  C_10
REMARK    8  A    between atoms: C_14  and  C_16
REMARK    9  A    between atoms: C_27  and  C_29
REMARK   10  A    between atoms: C_29  and  C_30
REMARK   11  A    between atoms: C_29  and  N_34
REMARK   12  A    between atoms: C_30  and  C_31
REMARK   13  A    between atoms: C_30  and  C_32
REMARK   14  A    between atoms: C_30  and  C_33
REMARK   15  A    between atoms: C_35  and  C_37
REMARK   16  A    between atoms: C_37  and  C_39
REMARK   17  A    between atoms: C_37  and  N_45
REMARK   18  A    between atoms: C_46  and  C_48
REMARK                            x       y       z     vdW  Elec       q    Type
REMARK                         _______ _______ _______ _____ _____    ______ ____
ROOT
ATOM      1  C   UNL     1       5.066   2.554  25.024  0.00  0.00    +0.165 C 
ATOM      2  N   UNL     1       3.956   2.366  25.985  0.00  0.00    -0.288 N 
ATOM      3  C   UNL     1       3.677   1.235  26.757  0.00  0.00    +0.237 C 
ATOM      4  O   UNL     1       2.504   0.880  26.924  0.00  0.00    -0.274 OA
ATOM      5  C   UNL     1       2.770   3.077  25.482  0.00  0.00    +0.112 C 
ATOM      6  C   UNL     1       3.251   4.033  24.398  0.00  0.00    +0.012 C 
ATOM      7  C   UNL     1       2.934   3.617  22.950  0.00  0.00    +0.005 C 
ATOM      8  C   UNL     1       4.247   3.727  22.172  0.00  0.00    +0.001 C 
ATOM      9  C   UNL     1       5.244   4.373  23.124  0.00  0.00    +0.006 C 
ATOM     10  C   UNL     1       4.777   3.991  24.519  0.00  0.00    +0.023 C 
ENDROOT
BRANCH   1  13
ATOM     11  N   UNL     1       7.354   1.488  24.627  0.00  0.00    -0.304 N 
ATOM     12  H   UNL     1       7.000   1.141  23.744  0.00  0.00    +0.149 HD
ATOM     13  C   UNL     1       6.570   2.350  25.375  0.00  0.00    +0.234 C 
ATOM     14  O   UNL     1       7.033   2.949  26.350  0.00  0.00    -0.274 OA
BRANCH  11  15
ATOM     15  C   UNL     1       8.813   1.334  24.919  0.00  0.00    +0.149 C 
BRANCH  15  16
ATOM     16  C   UNL     1       9.720   1.787  23.748  0.00  0.00    +0.237 C 
ATOM     17  O   UNL     1      10.266   1.021  22.958  0.00  0.00    -0.285 OA
BRANCH  16  18
ATOM     18  C   UNL     1       9.992   3.299  23.645  0.00  0.00    +0.282 C 
ATOM     19  N   UNL     1      11.303   3.662  23.331  0.00  0.00    -0.306 N 
ATOM     20  H   UNL     1      11.961   2.920  23.111  0.00  0.00    +0.149 HD
ATOM     21  O   UNL     1       9.072   4.076  23.822  0.00  0.00    -0.267 OA
BRANCH  19  22
ATOM     22  C   UNL     1      11.638   5.027  23.022  0.00  0.00    +0.073 C 
ATOM     23  C   UNL     1      13.045   5.455  22.687  0.00  0.00    +0.024 C 
ATOM     24  C   UNL     1      12.412   5.897  23.970  0.00  0.00    +0.024 C 
ENDBRANCH  19  22
ENDBRANCH  16  18
ENDBRANCH  15  16
BRANCH  15  25
ATOM     25  C   UNL     1       9.175  -0.142  25.241  0.00  0.00    +0.030 C 
BRANCH  25  27
ATOM     26  C   UNL     1       8.356  -2.228  26.435  0.00  0.00    +0.004 C 
ATOM     27  C   UNL     1       8.387  -0.707  26.432  0.00  0.00    -0.001 C 
ENDBRANCH  25  27
ENDBRANCH  15  25
ENDBRANCH  11  15
ENDBRANCH   1  13
BRANCH   3  28
ATOM     28  C   UNL     1       4.825   0.461  27.467  0.00  0.00    +0.164 C 
BRANCH  28  29
ATOM     29  N   UNL     1       4.520  -0.974  27.434  0.00  0.00    -0.302 N 
ATOM     30  H   UNL     1       4.230  -1.432  28.299  0.00  0.00    +0.150 HD
ATOM     31  C   UNL     1       4.687  -1.762  26.309  0.00  0.00    +0.234 C 
ATOM     32  O   UNL     1       4.919  -1.284  25.200  0.00  0.00    -0.274 OA
BRANCH  31  33
ATOM     33  C   UNL     1       4.540  -3.298  26.544  0.00  0.00    +0.162 C 
BRANCH  33  34
ATOM     34  C   UNL     1       4.929  -3.680  28.008  0.00  0.00    +0.018 C 
ATOM     35  C   UNL     1       5.888  -4.880  28.140  0.00  0.00    +0.006 C 
ATOM     36  C   UNL     1       5.260  -6.222  27.760  0.00  0.00    +0.000 C 
ATOM     37  C   UNL     1       3.891  -6.473  28.396  0.00  0.00    +0.000 C 
ATOM     38  C   UNL     1       2.968  -5.260  28.376  0.00  0.00    +0.000 C 
ATOM     39  C   UNL     1       3.686  -4.005  28.865  0.00  0.00    +0.006 C 
ENDBRANCH  33  34
BRANCH  33  40
ATOM     40  N   UNL     1       5.364  -3.962  25.538  0.00  0.00    -0.298 N 
ATOM     41  H   UNL     1       6.295  -3.606  25.338  0.00  0.00    +0.150 HD
ATOM     42  C   UNL     1       4.770  -4.708  24.537  0.00  0.00    +0.264 C 
ATOM     43  O   UNL     1       3.568  -4.968  24.519  0.00  0.00    -0.268 OA
BRANCH  42  44
ATOM     44  C   UNL     1       5.654  -5.128  23.420  0.00  0.00    +0.143 A 
ATOM     45  C   UNL     1       7.021  -5.246  23.638  0.00  0.00    +0.143 A 
ATOM     46  N   UNL     1       7.879  -5.654  22.669  0.00  0.00    -0.259 NA
ATOM     47  C   UNL     1       7.306  -5.933  21.475  0.00  0.00    +0.130 A 
ATOM     48  C   UNL     1       5.940  -5.811  21.257  0.00  0.00    +0.131 A 
ATOM     49  N   UNL     1       5.075  -5.411  22.219  0.00  0.00    -0.247 NA
ENDBRANCH  42  44
ENDBRANCH  33  40
ENDBRANCH  31  33
ENDBRANCH  28  29
BRANCH  28  50
ATOM     50  C   UNL     1       5.044   0.986  28.953  0.00  0.00    -0.011 C 
ATOM     51  C   UNL     1       6.549   1.083  29.294  0.00  0.00    +0.013 C 
ATOM     52  C   UNL     1       4.438  -0.004  29.977  0.00  0.00    +0.013 C 
ATOM     53  C   UNL     1       4.405   2.372  29.209  0.00  0.00    +0.013 C 
ENDBRANCH  28  50
ENDBRANCH   3  28
TORSDOF 14
ENDMDL
MODEL 2
REMARK VINA RESULT:      -6.3      1.873      2.369
REMARK  Name = 
REMARK  18 active torsions:
REMARK  status: ('A' for Active; 'I' for Inactive)
REMARK    1  A    between atoms: C_1  and  C_2
REMARK    2  A    between atoms: C_2  and  C_3
REMARK    3  A    between atoms: C_3  and  C_4
REMARK    4  A    between atoms: C_4  and  C_5
REMARK    5  A    between atoms: C_4  and  N_13
REMARK    6  A    between atoms: C_5  and  C_7
REMARK    7  A    between atoms: N_9  and  C_10
REMARK    8  A    between atoms: C_14  and  C_16
REMARK    9  A    between atoms: C_27  and  C_29
REMARK   10  A    between atoms: C_29  and  C_30
REMARK   11  A    between atoms: C_29  and  N_34
REMARK   12  A    between atoms: C_30  and  C_31
REMARK   13  A    between atoms: C_30  and  C_32
REMARK   14  A    between atoms: C_30  and  C_33
REMARK   15  A    between atoms: C_35  and  C_37
REMARK   16  A    between atoms: C_37  and  C_39
REMARK   17  A    between atoms: C_37  and  N_45
REMARK   18  A    between atoms: C_46  and  C_48
REMARK                            x       y       z     vdW  Elec       q    Type
REMARK                         _______ _______ _______ _____ _____    ______ ____
ROOT
ATOM      1  C   UNL     1       5.589   3.555  25.196  0.00  0.00    +0.165 C 
ATOM      2  N   UNL     1       4.761   3.641  26.420  0.00  0.00    -0.288 N 
ATOM      3  C   UNL     1       4.372   2.596  27.263  0.00  0.00    +0.237 C 
ATOM      4  O   UNL     1       3.232   2.588  27.742  0.00  0.00    -0.274 OA
ATOM      5  C   UNL     1       3.750   4.693  26.233  0.00  0.00    +0.112 C 
ATOM      6  C   UNL     1       4.193   5.529  25.040  0.00  0.00    +0.012 C 
ATOM      7  C   UNL     1       3.404   5.308  23.737  0.00  0.00    +0.005 C 
ATOM      8  C   UNL     1       4.442   5.077  22.637  0.00  0.00    +0.001 C 
ATOM      9  C   UNL     1       5.796   5.351  23.277  0.00  0.00    +0.006 C 
ATOM     10  C   UNL     1       5.616   5.041  24.754  0.00  0.00    +0.023 C 
ENDROOT
BRANCH   1  13
ATOM     11  N   UNL     1       7.286   1.917  24.212  0.00  0.00    -0.304 N 
ATOM     12  H   UNL     1       6.637   1.756  23.451  0.00  0.00    +0.149 HD
ATOM     13  C   UNL     1       7.004   2.905  25.141  0.00  0.00    +0.234 C 
ATOM     14  O   UNL     1       7.851   3.268  25.963  0.00  0.00    -0.274 OA
BRANCH  11  15
ATOM     15  C   UNL     1       8.659   1.332  24.112  0.00  0.00    +0.149 C 
BRANCH  15  16
ATOM     16  C   UNL     1       9.514   1.972  22.990  0.00  0.00    +0.237 C 
ATOM     17  O   UNL     1       9.680   1.478  21.878  0.00  0.00    -0.285 OA
BRANCH  16  18
ATOM     18  C   UNL     1      10.249   3.275  23.357  0.00  0.00    +0.282 C 
ATOM     19  N   UNL     1       9.463   4.428  23.391  0.00  0.00    -0.306 N 
ATOM     20  H   UNL     1       8.461   4.324  23.258  0.00  0.00    +0.149 HD
ATOM     21  O   UNL     1      11.440   3.229  23.606  0.00  0.00    -0.267 OA
BRANCH  19  22
ATOM     22  C   UNL     1       9.990   5.666  23.901  0.00  0.00    +0.073 C 
ATOM     23  C   UNL     1       9.538   6.255  25.214  0.00  0.00    +0.024 C 
ATOM     24  C   UNL     1       9.180   6.931  23.927  0.00  0.00    +0.024 C 
ENDBRANCH  19  22
ENDBRANCH  16  18
ENDBRANCH  15  16
BRANCH  15  25
ATOM     25  C   UNL     1       8.606  -0.196  23.839  0.00  0.00    +0.030 C 
BRANCH  25  27
ATOM     26  C   UNL     1       8.614  -0.671  26.333  0.00  0.00    +0.004 C 
ATOM     27  C   UNL     1       9.206  -1.032  24.979  0.00  0.00    -0.001 C 
ENDBRANCH  25  27
ENDBRANCH  15  25
ENDBRANCH  11  15
ENDBRANCH   1  13
BRANCH   3  28
ATOM     28  C   UNL     1       5.384   1.484  27.661  0.00  0.00    +0.164 C 
BRANCH  28  29
ATOM     29  N   UNL     1       4.752   0.175  27.459  0.00  0.00    -0.302 N 
ATOM     30  H   UNL     1       4.355  -0.306  28.268  0.00  0.00    +0.150 HD
ATOM     31  C   UNL     1       4.740  -0.486  26.244  0.00  0.00    +0.234 C 
ATOM     32  O   UNL     1       5.088   0.057  25.197  0.00  0.00    -0.274 OA
BRANCH  31  33
ATOM     33  C   UNL     1       4.236  -1.962  26.293  0.00  0.00    +0.162 C 
BRANCH  33  34
ATOM     34  C   UNL     1       3.244  -2.176  27.481  0.00  0.00    +0.018 C 
ATOM     35  C   UNL     1       3.253  -3.589  28.097  0.00  0.00    +0.006 C 
ATOM     36  C   UNL     1       2.678  -4.670  27.180  0.00  0.00    +0.000 C 
ATOM     37  C   UNL     1       1.337  -4.300  26.542  0.00  0.00    +0.000 C 
ATOM     38  C   UNL     1       1.271  -2.866  26.029  0.00  0.00    +0.000 C 
ATOM     39  C   UNL     1       1.785  -1.876  27.071  0.00  0.00    +0.006 C 
ENDBRANCH  33  34
BRANCH  33  40
ATOM     40  N   UNL     1       5.420  -2.812  26.373  0.00  0.00    -0.298 N 
ATOM     41  H   UNL     1       6.106  -2.650  27.107  0.00  0.00    +0.150 HD
ATOM     42  C   UNL     1       5.878  -3.472  25.247  0.00  0.00    +0.264 C 
ATOM     43  O   UNL     1       5.256  -3.498  24.187  0.00  0.00    -0.268 OA
BRANCH  42  44
ATOM     44  C   UNL     1       7.221  -4.099  25.356  0.00  0.00    +0.143 A 
ATOM     45  C   UNL     1       7.834  -4.602  24.216  0.00  0.00    +0.143 A 
ATOM     46  N   UNL     1       9.071  -5.158  24.242  0.00  0.00    -0.259 NA
ATOM     47  C   UNL     1       9.661  -5.190  25.459  0.00  0.00    +0.130 A 
ATOM     48  C   UNL     1       9.046  -4.690  26.599  0.00  0.00    +0.131 A 
ATOM     49  N   UNL     1       7.814  -4.128  26.582  0.00  0.00    -0.247 NA
ENDBRANCH  42  44
ENDBRANCH  33  40
ENDBRANCH  31  33
ENDBRANCH  28  29
BRANCH  28  50
ATOM     50  C   UNL     1       5.893   1.672  29.157  0.00  0.00    -0.011 C 
ATOM     51  C   UNL     1       7.370   1.239  29.302  0.00  0.00    +0.013 C 
ATOM     52  C   UNL     1       5.088   0.772  30.125  0.00  0.00    +0.013 C 
ATOM     53  C   UNL     1       5.769   3.130  29.662  0.00  0.00    +0.013 C 
ENDBRANCH  28  50
ENDBRANCH   3  28
TORSDOF 14
ENDMDL
MODEL 3
REMARK VINA RESULT:      -6.0      2.088      9.275
REMARK  Name = 
REMARK  18 active torsions:
REMARK  status: ('A' for Active; 'I' for Inactive)
REMARK    1  A    between atoms: C_1  and  C_2
REMARK    2  A    between atoms: C_2  and  C_3
REMARK    3  A    between atoms: C_3  and  C_4
REMARK    4  A    between atoms: C_4  and  C_5
REMARK    5  A    between atoms: C_4  and  N_13
REMARK    6  A    between atoms: C_5  and  C_7
REMARK    7  A    between atoms: N_9  and  C_10
REMARK    8  A    between atoms: C_14  and  C_16
REMARK    9  A    between atoms: C_27  and  C_29
REMARK   10  A    between atoms: C_29  and  C_30
REMARK   11  A    between atoms: C_29  and  N_34
REMARK   12  A    between atoms: C_30  and  C_31
REMARK   13  A    between atoms: C_30  and  C_32
REMARK   14  A    between atoms: C_30  and  C_33
REMARK   15  A    between atoms: C_35  and  C_37
REMARK   16  A    between atoms: C_37  and  C_39
REMARK   17  A    between atoms: C_37  and  N_45
REMARK   18  A    between atoms: C_46  and  C_48
REMARK                            x       y       z     vdW  Elec       q    Type
REMARK                         _______ _______ _______ _____ _____    ______ ____
ROOT
ATOM      1  C   UNL     1       6.083  -3.676  24.215  0.00  0.00    +0.165 C 
ATOM      2  N   UNL     1       7.281  -2.965  23.713  0.00  0.00    -0.288 N 
ATOM      3  C   UNL     1       7.509  -1.587  23.690  0.00  0.00    +0.237 C 
ATOM      4  O   UNL     1       8.076  -1.075  22.717  0.00  0.00    -0.274 OA
ATOM      5  C   UNL     1       7.815  -3.699  22.554  0.00  0.00    +0.112 C 
ATOM      6  C   UNL     1       7.175  -5.081  22.570  0.00  0.00    +0.012 C 
ATOM      7  C   UNL     1       6.077  -5.322  21.520  0.00  0.00    +0.005 C 
ATOM      8  C   UNL     1       4.878  -5.902  22.273  0.00  0.00    +0.001 C 
ATOM      9  C   UNL     1       5.362  -6.157  23.694  0.00  0.00    +0.006 C 
ATOM     10  C   UNL     1       6.474  -5.149  23.930  0.00  0.00    +0.023 C 
ENDROOT
BRANCH   1  13
ATOM     11  N   UNL     1       4.468  -2.593  25.873  0.00  0.00    -0.304 N 
ATOM     12  H   UNL     1       3.977  -2.195  25.081  0.00  0.00    +0.149 HD
ATOM     13  C   UNL     1       5.494  -3.495  25.646  0.00  0.00    +0.234 C 
ATOM     14  O   UNL     1       5.985  -4.148  26.571  0.00  0.00    -0.274 OA
BRANCH  11  15
ATOM     15  C   UNL     1       3.856  -2.458  27.231  0.00  0.00    +0.149 C 
BRANCH  15  16
ATOM     16  C   UNL     1       2.492  -3.179  27.359  0.00  0.00    +0.237 C 
ATOM     17  O   UNL     1       2.010  -3.569  28.419  0.00  0.00    -0.285 OA
BRANCH  16  18
ATOM     18  C   UNL     1       1.754  -3.474  26.039  0.00  0.00    +0.282 C 
ATOM     19  N   UNL     1       1.652  -4.821  25.688  0.00  0.00    -0.306 N 
ATOM     20  H   UNL     1       1.988  -5.513  26.352  0.00  0.00    +0.149 HD
ATOM     21  O   UNL     1       1.298  -2.545  25.398  0.00  0.00    -0.267 OA
BRANCH  19  22
ATOM     22  C   UNL     1       0.827  -5.236  24.584  0.00  0.00    +0.073 C 
ATOM     23  C   UNL     1       1.017  -6.562  23.890  0.00  0.00    +0.024 C 
ATOM     24  C   UNL     1       1.342  -5.289  23.174  0.00  0.00    +0.024 C 
ENDBRANCH  19  22
ENDBRANCH  16  18
ENDBRANCH  15  16
BRANCH  15  25
ATOM     25  C   UNL     1       3.630  -0.968  27.606  0.00  0.00    +0.030 C 
BRANCH  25  27
ATOM     26  C   UNL     1       3.879  -0.866  30.131  0.00  0.00    +0.004 C 
ATOM     27  C   UNL     1       4.496  -0.507  28.787  0.00  0.00    -0.001 C 
ENDBRANCH  25  27
ENDBRANCH  15  25
ENDBRANCH  11  15
ENDBRANCH   1  13
BRANCH   3  28
ATOM     28  C   UNL     1       7.123  -0.702  24.911  0.00  0.00    +0.164 C 
BRANCH  28  29
ATOM     29  N   UNL     1       6.807   0.650  24.434  0.00  0.00    -0.302 N 
ATOM     30  H   UNL     1       7.515   1.157  23.900  0.00  0.00    +0.150 HD
ATOM     31  C   UNL     1       5.631   1.310  24.741  0.00  0.00    +0.234 C 
ATOM     32  O   UNL     1       4.680   0.744  25.275  0.00  0.00    -0.274 OA
BRANCH  31  33
ATOM     33  C   UNL     1       5.592   2.819  24.344  0.00  0.00    +0.162 C 
BRANCH  33  34
ATOM     34  C   UNL     1       4.473   3.093  23.289  0.00  0.00    +0.018 C 
ATOM     35  C   UNL     1       4.701   4.329  22.397  0.00  0.00    +0.006 C 
ATOM     36  C   UNL     1       4.582   5.661  23.139  0.00  0.00    +0.000 C 
ATOM     37  C   UNL     1       3.338   5.777  24.022  0.00  0.00    +0.000 C 
ATOM     38  C   UNL     1       3.031   4.519  24.827  0.00  0.00    +0.000 C 
ATOM     39  C   UNL     1       3.089   3.269  23.953  0.00  0.00    +0.006 C 
ENDBRANCH  33  34
BRANCH  33  40
ATOM     40  N   UNL     1       6.927   3.168  23.869  0.00  0.00    -0.298 N 
ATOM     41  H   UNL     1       7.473   2.480  23.355  0.00  0.00    +0.150 HD
ATOM     42  C   UNL     1       7.647   4.170  24.493  0.00  0.00    +0.264 C 
ATOM     43  O   UNL     1       7.166   4.899  25.359  0.00  0.00    -0.268 OA
BRANCH  42  44
ATOM     44  C   UNL     1       9.080   4.281  24.117  0.00  0.00    +0.143 A 
ATOM     45  C   UNL     1       9.768   3.146  23.708  0.00  0.00    +0.143 A 
ATOM     46  N   UNL     1      11.068   3.185  23.322  0.00  0.00    -0.259 NA
ATOM     47  C   UNL     1      11.645   4.407  23.368  0.00  0.00    +0.130 A 
ATOM     48  C   UNL     1      10.957   5.541  23.781  0.00  0.00    +0.131 A 
ATOM     49  N   UNL     1       9.658   5.514  24.162  0.00  0.00    -0.247 NA
ENDBRANCH  42  44
ENDBRANCH  33  40
ENDBRANCH  31  33
ENDBRANCH  28  29
BRANCH  28  50
ATOM     50  C   UNL     1       8.277  -0.690  26.006  0.00  0.00    -0.011 C 
ATOM     51  C   UNL     1       8.677  -2.127  26.409  0.00  0.00    +0.013 C 
ATOM     52  C   UNL     1       7.791  -0.002  27.304  0.00  0.00    +0.013 C 
ATOM     53  C   UNL     1       9.553   0.049  25.536  0.00  0.00    +0.013 C 
ENDBRANCH  28  50
ENDBRANCH   3  28
TORSDOF 14
ENDMDL
MODEL 4
REMARK VINA RESULT:      -6.0      1.616      3.526
REMARK  Name = 
REMARK  18 active torsions:
REMARK  status: ('A' for Active; 'I' for Inactive)
REMARK    1  A    between atoms: C_1  and  C_2
REMARK    2  A    between atoms: C_2  and  C_3
REMARK    3  A    between atoms: C_3  and  C_4
REMARK    4  A    between atoms: C_4  and  C_5
REMARK    5  A    between atoms: C_4  and  N_13
REMARK    6  A    between atoms: C_5  and  C_7
REMARK    7  A    between atoms: N_9  and  C_10
REMARK    8  A    between atoms: C_14  and  C_16
REMARK    9  A    between atoms: C_27  and  C_29
REMARK   10  A    between atoms: C_29  and  C_30
REMARK   11  A    between atoms: C_29  and  N_34
REMARK   12  A    between atoms: C_30  and  C_31
REMARK   13  A    between atoms: C_30  and  C_32
REMARK   14  A    between atoms: C_30  and  C_33
REMARK   15  A    between atoms: C_35  and  C_37
REMARK   16  A    between atoms: C_37  and  C_39
REMARK   17  A    between atoms: C_37  and  N_45
REMARK   18  A    between atoms: C_46  and  C_48
REMARK                            x       y       z     vdW  Elec       q    Type
REMARK                         _______ _______ _______ _____ _____    ______ ____
ROOT
ATOM      1  C   UNL     1       4.651   2.456  24.750  0.00  0.00    +0.165 C 
ATOM      2  N   UNL     1       3.794   2.525  25.956  0.00  0.00    -0.288 N 
ATOM      3  C   UNL     1       3.604   1.538  26.925  0.00  0.00    +0.237 C 
ATOM      4  O   UNL     1       2.478   1.358  27.405  0.00  0.00    -0.274 OA
ATOM      5  C   UNL     1       2.596   3.318  25.638  0.00  0.00    +0.112 C 
ATOM      6  C   UNL     1       2.889   4.070  24.346  0.00  0.00    +0.012 C 
ATOM      7  C   UNL     1       2.193   3.531  23.084  0.00  0.00    +0.005 C 
ATOM      8  C   UNL     1       3.282   3.380  22.020  0.00  0.00    +0.001 C 
ATOM      9  C   UNL     1       4.537   4.001  22.617  0.00  0.00    +0.006 C 
ATOM     10  C   UNL     1       4.388   3.848  24.122  0.00  0.00    +0.023 C 
ENDROOT
BRANCH   1  13
ATOM     11  N   UNL     1       6.660   1.059  24.012  0.00  0.00    -0.304 N 
ATOM     12  H   UNL     1       6.068   0.650  23.299  0.00  0.00    +0.149 HD
ATOM     13  C   UNL     1       6.169   2.105  24.776  0.00  0.00    +0.234 C 
ATOM     14  O   UNL     1       6.912   2.759  25.514  0.00  0.00    -0.274 OA
BRANCH  11  15
ATOM     15  C   UNL     1       8.124   0.755  23.983  0.00  0.00    +0.149 C 
BRANCH  15  16
ATOM     16  C   UNL     1       8.564  -0.231  25.093  0.00  0.00    +0.237 C 
ATOM     17  O   UNL     1       8.568   0.033  26.293  0.00  0.00    -0.285 OA
BRANCH  16  18
ATOM     18  C   UNL     1       9.096  -1.596  24.618  0.00  0.00    +0.282 C 
ATOM     19  N   UNL     1       8.464  -2.717  25.159  0.00  0.00    -0.306 N 
ATOM     20  H   UNL     1       7.655  -2.565  25.755  0.00  0.00    +0.149 HD
ATOM     21  O   UNL     1      10.002  -1.624  23.806  0.00  0.00    -0.267 OA
BRANCH  19  22
ATOM     22  C   UNL     1       8.740  -4.036  24.655  0.00  0.00    +0.073 C 
ATOM     23  C   UNL     1       8.381  -5.284  25.422  0.00  0.00    +0.024 C 
ATOM     24  C   UNL     1       9.817  -4.907  25.235  0.00  0.00    +0.024 C 
ENDBRANCH  19  22
ENDBRANCH  16  18
ENDBRANCH  15  16
BRANCH  15  25
ATOM     25  C   UNL     1       8.975   2.045  24.145  0.00  0.00    +0.030 C 
BRANCH  25  27
ATOM     26  C   UNL     1       9.824   1.332  21.861  0.00  0.00    +0.004 C 
ATOM     27  C   UNL     1      10.104   2.153  23.111  0.00  0.00    -0.001 C 
ENDBRANCH  25  27
ENDBRANCH  15  25
ENDBRANCH  11  15
ENDBRANCH   1  13
BRANCH   3  28
ATOM     28  C   UNL     1       4.810   0.713  27.460  0.00  0.00    +0.164 C 
BRANCH  28  29
ATOM     29  N   UNL     1       4.458  -0.711  27.435  0.00  0.00    -0.302 N 
ATOM     30  H   UNL     1       4.108  -1.143  28.292  0.00  0.00    +0.150 HD
ATOM     31  C   UNL     1       4.654  -1.525  26.334  0.00  0.00    +0.234 C 
ATOM     32  O   UNL     1       4.958  -1.076  25.231  0.00  0.00    -0.274 OA
BRANCH  31  33
ATOM     33  C   UNL     1       4.443  -3.050  26.587  0.00  0.00    +0.162 C 
BRANCH  33  34
ATOM     34  C   UNL     1       4.981  -3.465  27.994  0.00  0.00    +0.018 C 
ATOM     35  C   UNL     1       5.905  -4.699  28.006  0.00  0.00    +0.006 C 
ATOM     36  C   UNL     1       5.190  -6.013  27.688  0.00  0.00    +0.000 C 
ATOM     37  C   UNL     1       3.893  -6.225  28.473  0.00  0.00    +0.000 C 
ATOM     38  C   UNL     1       3.018  -4.980  28.569  0.00  0.00    +0.000 C 
ATOM     39  C   UNL     1       3.832  -3.757  28.984  0.00  0.00    +0.006 C 
ENDBRANCH  33  34
BRANCH  33  40
ATOM     40  N   UNL     1       5.097  -3.758  25.490  0.00  0.00    -0.298 N 
ATOM     41  H   UNL     1       6.070  -3.556  25.273  0.00  0.00    +0.150 HD
ATOM     42  C   UNL     1       4.343  -4.295  24.463  0.00  0.00    +0.264 C 
ATOM     43  O   UNL     1       3.114  -4.336  24.486  0.00  0.00    -0.268 OA
BRANCH  42  44
ATOM     44  C   UNL     1       5.097  -4.764  23.272  0.00  0.00    +0.143 A 
ATOM     45  C   UNL     1       5.319  -3.889  22.217  0.00  0.00    +0.143 A 
ATOM     46  N   UNL     1       6.026  -4.244  21.115  0.00  0.00    -0.259 NA
ATOM     47  C   UNL     1       6.495  -5.513  21.118  0.00  0.00    +0.130 A 
ATOM     48  C   UNL     1       6.270  -6.388  22.172  0.00  0.00    +0.131 A 
ATOM     49  N   UNL     1       5.570  -6.041  23.278  0.00  0.00    -0.247 NA
ENDBRANCH  42  44
ENDBRANCH  33  40
ENDBRANCH  31  33
ENDBRANCH  28  29
BRANCH  28  50
ATOM     50  C   UNL     1       5.239   1.192  28.916  0.00  0.00    -0.011 C 
ATOM     51  C   UNL     1       4.532   0.358  30.008  0.00  0.00    +0.013 C 
ATOM     52  C   UNL     1       4.811   2.661  29.156  0.00  0.00    +0.013 C 
ATOM     53  C   UNL     1       6.765   1.106  29.160  0.00  0.00    +0.013 C 
ENDBRANCH  28  50
ENDBRANCH   3  28
TORSDOF 14
ENDMDL
MODEL 5
REMARK VINA RESULT:      -5.9      2.231      7.820
REMARK  Name = 
REMARK  18 active torsions:
REMARK  status: ('A' for Active; 'I' for Inactive)
REMARK    1  A    between atoms: C_1  and  C_2
REMARK    2  A    between atoms: C_2  and  C_3
REMARK    3  A    between atoms: C_3  and  C_4
REMARK    4  A    between atoms: C_4  and  C_5
REMARK    5  A    between atoms: C_4  and  N_13
REMARK    6  A    between atoms: C_5  and  C_7
REMARK    7  A    between atoms: N_9  and  C_10
REMARK    8  A    between atoms: C_14  and  C_16
REMARK    9  A    between atoms: C_27  and  C_29
REMARK   10  A    between atoms: C_29  and  C_30
REMARK   11  A    between atoms: C_29  and  N_34
REMARK   12  A    between atoms: C_30  and  C_31
REMARK   13  A    between atoms: C_30  and  C_32
REMARK   14  A    between atoms: C_30  and  C_33
REMARK   15  A    between atoms: C_35  and  C_37
REMARK   16  A    between atoms: C_37  and  C_39
REMARK   17  A    between atoms: C_37  and  N_45
REMARK   18  A    between atoms: C_46  and  C_48
REMARK                            x       y       z     vdW  Elec       q    Type
REMARK                         _______ _______ _______ _____ _____    ______ ____
ROOT
ATOM      1  C   UNL     1       8.068  -0.467  24.641  0.00  0.00    +0.165 C 
ATOM      2  N   UNL     1       8.372   0.864  25.213  0.00  0.00    -0.288 N 
ATOM      3  C   UNL     1       7.470   1.805  25.715  0.00  0.00    +0.237 C 
ATOM      4  O   UNL     1       7.651   3.008  25.494  0.00  0.00    -0.274 OA
ATOM      5  C   UNL     1       9.522   1.434  24.493  0.00  0.00    +0.112 C 
ATOM      6  C   UNL     1      10.179   0.293  23.728  0.00  0.00    +0.012 C 
ATOM      7  C   UNL     1       9.938   0.279  22.208  0.00  0.00    +0.005 C 
ATOM      8  C   UNL     1       9.475  -1.136  21.857  0.00  0.00    +0.001 C 
ATOM      9  C   UNL     1       9.633  -1.956  23.131  0.00  0.00    +0.006 C 
ATOM     10  C   UNL     1       9.489  -0.962  24.271  0.00  0.00    +0.023 C 
ENDROOT
BRANCH   1  13
ATOM     11  N   UNL     1       5.917  -1.792  25.034  0.00  0.00    -0.304 N 
ATOM     12  H   UNL     1       5.549  -1.379  24.185  0.00  0.00    +0.149 HD
ATOM     13  C   UNL     1       7.240  -1.565  25.375  0.00  0.00    +0.234 C 
ATOM     14  O   UNL     1       7.782  -2.201  26.284  0.00  0.00    -0.274 OA
BRANCH  11  15
ATOM     15  C   UNL     1       5.135  -2.885  25.690  0.00  0.00    +0.149 C 
BRANCH  15  16
ATOM     16  C   UNL     1       3.921  -3.354  24.851  0.00  0.00    +0.237 C 
ATOM     17  O   UNL     1       2.759  -3.019  25.067  0.00  0.00    -0.285 OA
BRANCH  16  18
ATOM     18  C   UNL     1       4.221  -4.364  23.727  0.00  0.00    +0.282 C 
ATOM     19  N   UNL     1       5.559  -4.733  23.583  0.00  0.00    -0.306 N 
ATOM     20  H   UNL     1       6.225  -4.385  24.267  0.00  0.00    +0.149 HD
ATOM     21  O   UNL     1       3.299  -4.787  23.055  0.00  0.00    -0.267 OA
BRANCH  19  22
ATOM     22  C   UNL     1       5.939  -5.805  22.700  0.00  0.00    +0.073 C 
ATOM     23  C   UNL     1       7.340  -5.946  22.160  0.00  0.00    +0.024 C 
ATOM     24  C   UNL     1       6.216  -5.581  21.241  0.00  0.00    +0.024 C 
ENDBRANCH  19  22
ENDBRANCH  16  18
ENDBRANCH  15  16
BRANCH  15  25
ATOM     25  C   UNL     1       4.596  -2.443  27.078  0.00  0.00    +0.030 C 
BRANCH  25  27
ATOM     26  C   UNL     1       5.739  -4.617  27.721  0.00  0.00    +0.004 C 
ATOM     27  C   UNL     1       4.808  -3.501  28.170  0.00  0.00    -0.001 C 
ENDBRANCH  25  27
ENDBRANCH  15  25
ENDBRANCH  11  15
ENDBRANCH   1  13
BRANCH   3  28
ATOM     28  C   UNL     1       6.280   1.357  26.613  0.00  0.00    +0.164 C 
BRANCH  28  29
ATOM     29  N   UNL     1       5.153   2.272  26.396  0.00  0.00    -0.302 N 
ATOM     30  H   UNL     1       5.336   3.277  26.383  0.00  0.00    +0.150 HD
ATOM     31  C   UNL     1       3.840   1.851  26.293  0.00  0.00    +0.234 C 
ATOM     32  O   UNL     1       3.537   0.665  26.182  0.00  0.00    -0.274 OA
BRANCH  31  33
ATOM     33  C   UNL     1       2.773   2.990  26.309  0.00  0.00    +0.162 C 
BRANCH  33  34
ATOM     34  C   UNL     1       1.787   2.819  27.509  0.00  0.00    +0.018 C 
ATOM     35  C   UNL     1       0.717   3.919  27.641  0.00  0.00    +0.006 C 
ATOM     36  C   UNL     1       1.275   5.282  28.055  0.00  0.00    +0.000 C 
ATOM     37  C   UNL     1       2.234   5.229  29.246  0.00  0.00    +0.000 C 
ATOM     38  C   UNL     1       3.228   4.075  29.189  0.00  0.00    +0.000 C 
ATOM     39  C   UNL     1       2.534   2.756  28.860  0.00  0.00    +0.006 C 
ENDBRANCH  33  34
BRANCH  33  40
ATOM     40  N   UNL     1       2.107   2.965  25.010  0.00  0.00    -0.298 N 
ATOM     41  H   UNL     1       1.394   2.263  24.825  0.00  0.00    +0.150 HD
ATOM     42  C   UNL     1       2.728   3.508  23.900  0.00  0.00    +0.264 C 
ATOM     43  O   UNL     1       3.775   4.149  23.967  0.00  0.00    -0.268 OA
BRANCH  42  44
ATOM     44  C   UNL     1       2.101   3.211  22.587  0.00  0.00    +0.143 A 
ATOM     45  C   UNL     1       2.660   3.735  21.429  0.00  0.00    +0.143 A 
ATOM     46  N   UNL     1       2.155   3.477  20.196  0.00  0.00    -0.259 NA
ATOM     47  C   UNL     1       1.065   2.675  20.179  0.00  0.00    +0.130 A 
ATOM     48  C   UNL     1       0.504   2.155  21.338  0.00  0.00    +0.131 A 
ATOM     49  N   UNL     1       1.005   2.402  22.572  0.00  0.00    -0.247 NA
ENDBRANCH  42  44
ENDBRANCH  33  40
ENDBRANCH  31  33
ENDBRANCH  28  29
BRANCH  28  50
ATOM     50  C   UNL     1       6.704   1.291  28.145  0.00  0.00    -0.011 C 
ATOM     51  C   UNL     1       7.995   0.461  28.331  0.00  0.00    +0.013 C 
ATOM     52  C   UNL     1       5.615   0.579  28.984  0.00  0.00    +0.013 C 
ATOM     53  C   UNL     1       6.937   2.686  28.773  0.00  0.00    +0.013 C 
ENDBRANCH  28  50
ENDBRANCH   3  28
TORSDOF 14
ENDMDL
MODEL 6
REMARK VINA RESULT:      -5.8      2.458      8.016
REMARK  Name = 
REMARK  18 active torsions:
REMARK  status: ('A' for Active; 'I' for Inactive)
REMARK    1  A    between atoms: C_1  and  C_2
REMARK    2  A    between atoms: C_2  and  C_3
REMARK    3  A    between atoms: C_3  and  C_4
REMARK    4  A    between atoms: C_4  and  C_5
REMARK    5  A    between atoms: C_4  and  N_13
REMARK    6  A    between atoms: C_5  and  C_7
REMARK    7  A    between atoms: N_9  and  C_10
REMARK    8  A    between atoms: C_14  and  C_16
REMARK    9  A    between atoms: C_27  and  C_29
REMARK   10  A    between atoms: C_29  and  C_30
REMARK   11  A    between atoms: C_29  and  N_34
REMARK   12  A    between atoms: C_30  and  C_31
REMARK   13  A    between atoms: C_30  and  C_32
REMARK   14  A    between atoms: C_30  and  C_33
REMARK   15  A    between atoms: C_35  and  C_37
REMARK   16  A    between atoms: C_37  and  C_39
REMARK   17  A    between atoms: C_37  and  N_45
REMARK   18  A    between atoms: C_46  and  C_48
REMARK                            x       y       z     vdW  Elec       q    Type
REMARK                         _______ _______ _______ _____ _____    ______ ____
ROOT
ATOM      1  C   UNL     1       8.059   0.033  24.144  0.00  0.00    +0.165 C 
ATOM      2  N   UNL     1       8.435   1.182  24.998  0.00  0.00    -0.288 N 
ATOM      3  C   UNL     1       7.584   2.034  25.707  0.00  0.00    +0.237 C 
ATOM      4  O   UNL     1       7.833   3.244  25.761  0.00  0.00    -0.274 OA
ATOM      5  C   UNL     1       9.617   1.836  24.415  0.00  0.00    +0.112 C 
ATOM      6  C   UNL     1      10.212   0.862  23.407  0.00  0.00    +0.012 C 
ATOM      7  C   UNL     1       9.976   1.204  21.925  0.00  0.00    +0.005 C 
ATOM      8  C   UNL     1       9.437  -0.069  21.269  0.00  0.00    +0.001 C 
ATOM      9  C   UNL     1       9.545  -1.161  22.324  0.00  0.00    +0.006 C 
ATOM     10  C   UNL     1       9.452  -0.443  23.660  0.00  0.00    +0.023 C 
ENDROOT
BRANCH   1  13
ATOM     11  N   UNL     1       7.748  -2.305  25.130  0.00  0.00    -0.304 N 
ATOM     12  H   UNL     1       8.733  -2.297  25.369  0.00  0.00    +0.149 HD
ATOM     13  C   UNL     1       7.169  -1.155  24.620  0.00  0.00    +0.234 C 
ATOM     14  O   UNL     1       5.944  -1.057  24.501  0.00  0.00    -0.274 OA
BRANCH  11  15
ATOM     15  C   UNL     1       6.901  -3.424  25.646  0.00  0.00    +0.149 C 
BRANCH  15  16
ATOM     16  C   UNL     1       7.599  -4.260  26.747  0.00  0.00    +0.237 C 
ATOM     17  O   UNL     1       8.816  -4.365  26.870  0.00  0.00    -0.285 OA
BRANCH  16  18
ATOM     18  C   UNL     1       6.672  -5.057  27.684  0.00  0.00    +0.282 C 
ATOM     19  N   UNL     1       5.385  -4.545  27.847  0.00  0.00    -0.306 N 
ATOM     20  H   UNL     1       5.117  -3.742  27.284  0.00  0.00    +0.149 HD
ATOM     21  O   UNL     1       7.095  -6.072  28.206  0.00  0.00    -0.267 OA
BRANCH  19  22
ATOM     22  C   UNL     1       4.373  -5.296  28.542  0.00  0.00    +0.073 C 
ATOM     23  C   UNL     1       3.051  -5.649  27.907  0.00  0.00    +0.024 C 
ATOM     24  C   UNL     1       3.101  -4.665  29.033  0.00  0.00    +0.024 C 
ENDBRANCH  19  22
ENDBRANCH  16  18
ENDBRANCH  15  16
BRANCH  15  25
ATOM     25  C   UNL     1       6.497  -4.401  24.508  0.00  0.00    +0.030 C 
BRANCH  25  27
ATOM     26  C   UNL     1       7.230  -5.642  22.418  0.00  0.00    +0.004 C 
ATOM     27  C   UNL     1       7.653  -4.715  23.547  0.00  0.00    -0.001 C 
ENDBRANCH  25  27
ENDBRANCH  15  25
ENDBRANCH  11  15
ENDBRANCH   1  13
BRANCH   3  28
ATOM     28  C   UNL     1       6.368   1.461  26.492  0.00  0.00    +0.164 C 
BRANCH  28  29
ATOM     29  N   UNL     1       5.227   2.368  26.323  0.00  0.00    -0.302 N 
ATOM     30  H   UNL     1       5.394   3.375  26.352  0.00  0.00    +0.150 HD
ATOM     31  C   UNL     1       3.919   1.932  26.210  0.00  0.00    +0.234 C 
ATOM     32  O   UNL     1       3.632   0.747  26.050  0.00  0.00    -0.274 OA
BRANCH  31  33
ATOM     33  C   UNL     1       2.835   3.053  26.283  0.00  0.00    +0.162 C 
BRANCH  33  34
ATOM     34  C   UNL     1       1.864   2.818  27.483  0.00  0.00    +0.018 C 
ATOM     35  C   UNL     1       0.774   3.892  27.666  0.00  0.00    +0.006 C 
ATOM     36  C   UNL     1       1.311   5.249  28.127  0.00  0.00    +0.000 C 
ATOM     37  C   UNL     1       2.282   5.170  29.307  0.00  0.00    +0.000 C 
ATOM     38  C   UNL     1       3.297   4.038  29.197  0.00  0.00    +0.000 C 
ATOM     39  C   UNL     1       2.625   2.719  28.825  0.00  0.00    +0.006 C 
ENDBRANCH  33  34
BRANCH  33  40
ATOM     40  N   UNL     1       2.157   3.071  24.990  0.00  0.00    -0.298 N 
ATOM     41  H   UNL     1       1.385   2.431  24.819  0.00  0.00    +0.150 HD
ATOM     42  C   UNL     1       2.811   3.547  23.869  0.00  0.00    +0.264 C 
ATOM     43  O   UNL     1       3.910   4.097  23.918  0.00  0.00    -0.268 OA
BRANCH  42  44
ATOM     44  C   UNL     1       2.148   3.291  22.564  0.00  0.00    +0.143 A 
ATOM     45  C   UNL     1       2.623   3.921  21.421  0.00  0.00    +0.143 A 
ATOM     46  N   UNL     1       2.082   3.705  20.196  0.00  0.00    -0.259 NA
ATOM     47  C   UNL     1       1.045   2.837  20.170  0.00  0.00    +0.130 A 
ATOM     48  C   UNL     1       0.569   2.211  21.314  0.00  0.00    +0.131 A 
ATOM     49  N   UNL     1       1.105   2.414  22.540  0.00  0.00    -0.247 NA
ENDBRANCH  42  44
ENDBRANCH  33  40
ENDBRANCH  31  33
ENDBRANCH  28  29
BRANCH  28  50
ATOM     50  C   UNL     1       6.724   1.235  28.027  0.00  0.00    -0.011 C 
ATOM     51  C   UNL     1       8.011   0.393  28.182  0.00  0.00    +0.013 C 
ATOM     52  C   UNL     1       5.603   0.436  28.735  0.00  0.00    +0.013 C 
ATOM     53  C   UNL     1       6.919   2.557  28.807  0.00  0.00    +0.013 C 
ENDBRANCH  28  50
ENDBRANCH   3  28
TORSDOF 14
ENDMDL
MODEL 7
REMARK VINA RESULT:      -5.5      1.863      2.420
REMARK  Name = 
REMARK  18 active torsions:
REMARK  status: ('A' for Active; 'I' for Inactive)
REMARK    1  A    between atoms: C_1  and  C_2
REMARK    2  A    between atoms: C_2  and  C_3
REMARK    3  A    between atoms: C_3  and  C_4
REMARK    4  A    between atoms: C_4  and  C_5
REMARK    5  A    between atoms: C_4  and  N_13
REMARK    6  A    between atoms: C_5  and  C_7
REMARK    7  A    between atoms: N_9  and  C_10
REMARK    8  A    between atoms: C_14  and  C_16
REMARK    9  A    between atoms: C_27  and  C_29
REMARK   10  A    between atoms: C_29  and  C_30
REMARK   11  A    between atoms: C_29  and  N_34
REMARK   12  A    between atoms: C_30  and  C_31
REMARK   13  A    between atoms: C_30  and  C_32
REMARK   14  A    between atoms: C_30  and  C_33
REMARK   15  A    between atoms: C_35  and  C_37
REMARK   16  A    between atoms: C_37  and  C_39
REMARK   17  A    between atoms: C_37  and  N_45
REMARK   18  A    between atoms: C_46  and  C_48
REMARK                            x       y       z     vdW  Elec       q    Type
REMARK                         _______ _______ _______ _____ _____    ______ ____
ROOT
ATOM      1  C   UNL     1       4.183   2.698  25.325  0.00  0.00    +0.165 C 
ATOM      2  N   UNL     1       3.692   2.791  26.719  0.00  0.00    -0.288 N 
ATOM      3  C   UNL     1       3.786   1.825  27.723  0.00  0.00    +0.237 C 
ATOM      4  O   UNL     1       2.838   1.652  28.499  0.00  0.00    -0.274 OA
ATOM      5  C   UNL     1       2.445   3.573  26.728  0.00  0.00    +0.112 C 
ATOM      6  C   UNL     1       2.364   4.297  25.391  0.00  0.00    +0.012 C 
ATOM      7  C   UNL     1       1.350   3.728  24.382  0.00  0.00    +0.005 C 
ATOM      8  C   UNL     1       2.104   3.557  23.062  0.00  0.00    +0.001 C 
ATOM      9  C   UNL     1       3.470   4.195  23.275  0.00  0.00    +0.006 C 
ATOM     10  C   UNL     1       3.744   4.075  24.765  0.00  0.00    +0.023 C 
ENDROOT
BRANCH   1  13
ATOM     11  N   UNL     1       5.915   1.489  23.887  0.00  0.00    -0.304 N 
ATOM     12  H   UNL     1       5.163   1.236  23.256  0.00  0.00    +0.149 HD
ATOM     13  C   UNL     1       5.652   2.352  24.937  0.00  0.00    +0.234 C 
ATOM     14  O   UNL     1       6.567   2.839  25.606  0.00  0.00    -0.274 OA
BRANCH  11  15
ATOM     15  C   UNL     1       7.322   1.200  23.468  0.00  0.00    +0.149 C 
BRANCH  15  16
ATOM     16  C   UNL     1       7.805   2.093  22.299  0.00  0.00    +0.237 C 
ATOM     17  O   UNL     1       8.220   1.665  21.225  0.00  0.00    -0.285 OA
BRANCH  16  18
ATOM     18  C   UNL     1       7.823   3.611  22.566  0.00  0.00    +0.282 C 
ATOM     19  N   UNL     1       8.976   4.107  23.178  0.00  0.00    -0.306 N 
ATOM     20  H   UNL     1       9.748   3.464  23.328  0.00  0.00    +0.149 HD
ATOM     21  O   UNL     1       6.866   4.280  22.225  0.00  0.00    -0.267 OA
BRANCH  19  22
ATOM     22  C   UNL     1       9.192   5.524  23.306  0.00  0.00    +0.073 C 
ATOM     23  C   UNL     1      10.343   6.095  24.096  0.00  0.00    +0.024 C 
ATOM     24  C   UNL     1       8.941   6.260  24.592  0.00  0.00    +0.024 C 
ENDBRANCH  19  22
ENDBRANCH  16  18
ENDBRANCH  15  16
BRANCH  15  25
ATOM     25  C   UNL     1       7.489  -0.278  23.022  0.00  0.00    +0.030 C 
BRANCH  25  27
ATOM     26  C   UNL     1       7.897  -1.061  25.402  0.00  0.00    +0.004 C 
ATOM     27  C   UNL     1       7.111  -1.284  24.119  0.00  0.00    -0.001 C 
ENDBRANCH  25  27
ENDBRANCH  15  25
ENDBRANCH  11  15
ENDBRANCH   1  13
BRANCH   3  28
ATOM     28  C   UNL     1       5.101   1.016  27.921  0.00  0.00    +0.164 C 
BRANCH  28  29
ATOM     29  N   UNL     1       4.760  -0.396  28.133  0.00  0.00    -0.302 N 
ATOM     30  H   UNL     1       4.847  -0.783  29.075  0.00  0.00    +0.150 HD
ATOM     31  C   UNL     1       4.407  -1.257  27.110  0.00  0.00    +0.234 C 
ATOM     32  O   UNL     1       4.165  -0.860  25.972  0.00  0.00    -0.274 OA
BRANCH  31  33
ATOM     33  C   UNL     1       4.321  -2.763  27.507  0.00  0.00    +0.162 C 
BRANCH  33  34
ATOM     34  C   UNL     1       3.841  -2.927  28.985  0.00  0.00    +0.018 C 
ATOM     35  C   UNL     1       4.246  -4.250  29.664  0.00  0.00    +0.006 C 
ATOM     36  C   UNL     1       3.531  -5.480  29.102  0.00  0.00    +0.000 C 
ATOM     37  C   UNL     1       2.016  -5.313  28.963  0.00  0.00    +0.000 C 
ATOM     38  C   UNL     1       1.591  -3.962  28.399  0.00  0.00    +0.000 C 
ATOM     39  C   UNL     1       2.306  -2.813  29.106  0.00  0.00    +0.006 C 
ENDBRANCH  33  34
BRANCH  33  40
ATOM     40  N   UNL     1       5.638  -3.343  27.263  0.00  0.00    -0.298 N 
ATOM     41  H   UNL     1       6.471  -2.838  27.556  0.00  0.00    +0.150 HD
ATOM     42  C   UNL     1       5.812  -4.267  26.249  0.00  0.00    +0.264 C 
ATOM     43  O   UNL     1       4.876  -4.747  25.612  0.00  0.00    -0.268 OA
BRANCH  42  44
ATOM     44  C   UNL     1       7.217  -4.606  25.905  0.00  0.00    +0.143 A 
ATOM     45  C   UNL     1       7.536  -4.955  24.599  0.00  0.00    +0.143 A 
ATOM     46  N   UNL     1       8.804  -5.245  24.213  0.00  0.00    -0.259 NA
ATOM     47  C   UNL     1       9.733  -5.173  25.194  0.00  0.00    +0.130 A 
ATOM     48  C   UNL     1       9.413  -4.828  26.500  0.00  0.00    +0.131 A 
ATOM     49  N   UNL     1       8.152  -4.531  26.894  0.00  0.00    -0.247 NA
ENDBRANCH  42  44
ENDBRANCH  33  40
ENDBRANCH  31  33
ENDBRANCH  28  29
BRANCH  28  50
ATOM     50  C   UNL     1       5.968   1.604  29.118  0.00  0.00    -0.011 C 
ATOM     51  C   UNL     1       5.424   1.129  30.485  0.00  0.00    +0.013 C 
ATOM     52  C   UNL     1       5.890   3.150  29.142  0.00  0.00    +0.013 C 
ATOM     53  C   UNL     1       7.463   1.214  29.035  0.00  0.00    +0.013 C 
ENDBRANCH  28  50
ENDBRANCH   3  28
TORSDOF 14
ENDMDL
MODEL 8
REMARK VINA RESULT:      -5.5      2.792      8.707
REMARK  Name = 
REMARK  18 active torsions:
REMARK  status: ('A' for Active; 'I' for Inactive)
REMARK    1  A    between atoms: C_1  and  C_2
REMARK    2  A    between atoms: C_2  and  C_3
REMARK    3  A    between atoms: C_3  and  C_4
REMARK    4  A    between atoms: C_4  and  C_5
REMARK    5  A    between atoms: C_4  and  N_13
REMARK    6  A    between atoms: C_5  and  C_7
REMARK    7  A    between atoms: N_9  and  C_10
REMARK    8  A    between atoms: C_14  and  C_16
REMARK    9  A    between atoms: C_27  and  C_29
REMARK   10  A    between atoms: C_29  and  C_30
REMARK   11  A    between atoms: C_29  and  N_34
REMARK   12  A    between atoms: C_30  and  C_31
REMARK   13  A    between atoms: C_30  and  C_32
REMARK   14  A    between atoms: C_30  and  C_33
REMARK   15  A    between atoms: C_35  and  C_37
REMARK   16  A    between atoms: C_37  and  C_39
REMARK   17  A    between atoms: C_37  and  N_45
REMARK   18  A    between atoms: C_46  and  C_48
REMARK                            x       y       z     vdW  Elec       q    Type
REMARK                         _______ _______ _______ _____ _____    ______ ____
ROOT
ATOM      1  C   UNL     1       4.337  -4.337  28.105  0.00  0.00    +0.165 C 
ATOM      2  N   UNL     1       3.799  -3.514  29.212  0.00  0.00    -0.288 N 
ATOM      3  C   UNL     1       3.771  -2.120  29.305  0.00  0.00    +0.237 C 
ATOM      4  O   UNL     1       3.997  -1.573  30.391  0.00  0.00    -0.274 OA
ATOM      5  C   UNL     1       4.047  -4.213  30.483  0.00  0.00    +0.112 C 
ATOM      6  C   UNL     1       4.396  -5.655  30.137  0.00  0.00    +0.012 C 
ATOM      7  C   UNL     1       5.880  -6.035  30.274  0.00  0.00    +0.005 C 
ATOM      8  C   UNL     1       6.273  -6.722  28.965  0.00  0.00    +0.001 C 
ATOM      9  C   UNL     1       4.980  -6.892  28.178  0.00  0.00    +0.006 C 
ATOM     10  C   UNL     1       4.073  -5.766  28.644  0.00  0.00    +0.023 C 
ENDROOT
BRANCH   1  13
ATOM     11  N   UNL     1       4.857  -4.169  25.608  0.00  0.00    -0.304 N 
ATOM     12  H   UNL     1       5.808  -4.444  25.824  0.00  0.00    +0.149 HD
ATOM     13  C   UNL     1       3.906  -4.186  26.615  0.00  0.00    +0.234 C 
ATOM     14  O   UNL     1       2.706  -4.052  26.360  0.00  0.00    -0.274 OA
BRANCH  11  15
ATOM     15  C   UNL     1       4.449  -4.088  24.172  0.00  0.00    +0.149 C 
BRANCH  15  16
ATOM     16  C   UNL     1       4.166  -5.473  23.539  0.00  0.00    +0.237 C 
ATOM     17  O   UNL     1       5.032  -6.296  23.256  0.00  0.00    -0.285 OA
BRANCH  16  18
ATOM     18  C   UNL     1       2.696  -5.772  23.188  0.00  0.00    +0.282 C 
ATOM     19  N   UNL     1       2.403  -7.100  22.876  0.00  0.00    -0.306 N 
ATOM     20  H   UNL     1       3.145  -7.787  22.979  0.00  0.00    +0.149 HD
ATOM     21  O   UNL     1       1.887  -4.863  23.218  0.00  0.00    -0.267 OA
BRANCH  19  22
ATOM     22  C   UNL     1       1.042  -7.539  22.717  0.00  0.00    +0.073 C 
ATOM     23  C   UNL     1       0.661  -8.999  22.710  0.00  0.00    +0.024 C 
ATOM     24  C   UNL     1       0.552  -8.191  21.455  0.00  0.00    +0.024 C 
ENDBRANCH  19  22
ENDBRANCH  16  18
ENDBRANCH  15  16
BRANCH  15  25
ATOM     25  C   UNL     1       5.541  -3.399  23.309  0.00  0.00    +0.030 C 
BRANCH  25  27
ATOM     26  C   UNL     1       7.922  -4.278  23.232  0.00  0.00    +0.004 C 
ATOM     27  C   UNL     1       6.924  -3.403  23.976  0.00  0.00    -0.001 C 
ENDBRANCH  25  27
ENDBRANCH  15  25
ENDBRANCH  11  15
ENDBRANCH   1  13
BRANCH   3  28
ATOM     28  C   UNL     1       3.386  -1.254  28.071  0.00  0.00    +0.164 C 
BRANCH  28  29
ATOM     29  N   UNL     1       4.485  -0.325  27.783  0.00  0.00    -0.302 N 
ATOM     30  H   UNL     1       4.825   0.277  28.536  0.00  0.00    +0.150 HD
ATOM     31  C   UNL     1       5.031  -0.157  26.523  0.00  0.00    +0.234 C 
ATOM     32  O   UNL     1       4.769  -0.911  25.589  0.00  0.00    -0.274 OA
BRANCH  31  33
ATOM     33  C   UNL     1       6.016   1.044  26.379  0.00  0.00    +0.162 C 
BRANCH  33  34
ATOM     34  C   UNL     1       5.240   2.395  26.259  0.00  0.00    +0.018 C 
ATOM     35  C   UNL     1       5.721   3.330  25.133  0.00  0.00    +0.006 C 
ATOM     36  C   UNL     1       7.105   3.935  25.376  0.00  0.00    +0.000 C 
ATOM     37  C   UNL     1       7.290   4.531  26.773  0.00  0.00    +0.000 C 
ATOM     38  C   UNL     1       6.717   3.670  27.893  0.00  0.00    +0.000 C 
ATOM     39  C   UNL     1       5.298   3.208  27.571  0.00  0.00    +0.006 C 
ENDBRANCH  33  34
BRANCH  33  40
ATOM     40  N   UNL     1       6.862   0.763  25.224  0.00  0.00    -0.298 N 
ATOM     41  H   UNL     1       6.450   0.735  24.294  0.00  0.00    +0.150 HD
ATOM     42  C   UNL     1       8.048   0.069  25.383  0.00  0.00    +0.264 C 
ATOM     43  O   UNL     1       8.514  -0.214  26.485  0.00  0.00    -0.268 OA
BRANCH  42  44
ATOM     44  C   UNL     1       8.709  -0.395  24.136  0.00  0.00    +0.143 A 
ATOM     45  C   UNL     1       9.860  -1.168  24.220  0.00  0.00    +0.143 A 
ATOM     46  N   UNL     1      10.494  -1.648  23.121  0.00  0.00    -0.259 NA
ATOM     47  C   UNL     1       9.926  -1.316  21.939  0.00  0.00    +0.130 A 
ATOM     48  C   UNL     1       8.777  -0.540  21.856  0.00  0.00    +0.131 A 
ATOM     49  N   UNL     1       8.134  -0.061  22.947  0.00  0.00    -0.247 NA
ENDBRANCH  42  44
ENDBRANCH  33  40
ENDBRANCH  31  33
ENDBRANCH  28  29
BRANCH  28  50
ATOM     50  C   UNL     1       2.010  -0.490  28.306  0.00  0.00    -0.011 C 
ATOM     51  C   UNL     1       1.228  -0.331  26.983  0.00  0.00    +0.013 C 
ATOM     52  C   UNL     1       2.264   0.946  28.827  0.00  0.00    +0.013 C 
ATOM     53  C   UNL     1       1.087  -1.199  29.326  0.00  0.00    +0.013 C 
ENDBRANCH  28  50
ENDBRANCH   3  28
TORSDOF 14
ENDMDL
MODEL 9
REMARK VINA RESULT:      -5.4      2.193      3.668
REMARK  Name = 
REMARK  18 active torsions:
REMARK  status: ('A' for Active; 'I' for Inactive)
REMARK    1  A    between atoms: C_1  and  C_2
REMARK    2  A    between atoms: C_2  and  C_3
REMARK    3  A    between atoms: C_3  and  C_4
REMARK    4  A    between atoms: C_4  and  C_5
REMARK    5  A    between atoms: C_4  and  N_13
REMARK    6  A    between atoms: C_5  and  C_7
REMARK    7  A    between atoms: N_9  and  C_10
REMARK    8  A    between atoms: C_14  and  C_16
REMARK    9  A    between atoms: C_27  and  C_29
REMARK   10  A    between atoms: C_29  and  C_30
REMARK   11  A    between atoms: C_29  and  N_34
REMARK   12  A    between atoms: C_30  and  C_31
REMARK   13  A    between atoms: C_30  and  C_32
REMARK   14  A    between atoms: C_30  and  C_33
REMARK   15  A    between atoms: C_35  and  C_37
REMARK   16  A    between atoms: C_37  and  C_39
REMARK   17  A    between atoms: C_37  and  N_45
REMARK   18  A    between atoms: C_46  and  C_48
REMARK                            x       y       z     vdW  Elec       q    Type
REMARK                         _______ _______ _______ _____ _____    ______ ____
ROOT
ATOM      1  C   UNL     1       3.782   2.619  25.358  0.00  0.00    +0.165 C 
ATOM      2  N   UNL     1       3.684   2.633  26.835  0.00  0.00    -0.288 N 
ATOM      3  C   UNL     1       3.956   1.586  27.719  0.00  0.00    +0.237 C 
ATOM      4  O   UNL     1       3.233   1.416  28.709  0.00  0.00    -0.274 OA
ATOM      5  C   UNL     1       2.555   3.493  27.225  0.00  0.00    +0.112 C 
ATOM      6  C   UNL     1       2.187   4.325  26.003  0.00  0.00    +0.012 C 
ATOM      7  C   UNL     1       0.900   3.907  25.271  0.00  0.00    +0.005 C 
ATOM      8  C   UNL     1       1.264   3.791  23.790  0.00  0.00    +0.001 C 
ATOM      9  C   UNL     1       2.687   4.318  23.667  0.00  0.00    +0.006 C 
ATOM     10  C   UNL     1       3.331   4.063  25.019  0.00  0.00    +0.023 C 
ENDROOT
BRANCH   1  13
ATOM     11  N   UNL     1       5.931   3.174  24.090  0.00  0.00    -0.304 N 
ATOM     12  H   UNL     1       5.833   4.129  24.413  0.00  0.00    +0.149 HD
ATOM     13  C   UNL     1       5.063   2.208  24.571  0.00  0.00    +0.234 C 
ATOM     14  O   UNL     1       5.265   1.008  24.362  0.00  0.00    -0.274 OA
BRANCH  11  15
ATOM     15  C   UNL     1       7.194   2.786  23.388  0.00  0.00    +0.149 C 
BRANCH  15  16
ATOM     16  C   UNL     1       8.407   2.660  24.342  0.00  0.00    +0.237 C 
ATOM     17  O   UNL     1       8.783   3.545  25.106  0.00  0.00    -0.285 OA
BRANCH  16  18
ATOM     18  C   UNL     1       9.216   1.353  24.244  0.00  0.00    +0.282 C 
ATOM     19  N   UNL     1       8.523   0.244  23.755  0.00  0.00    -0.306 N 
ATOM     20  H   UNL     1       7.573   0.386  23.423  0.00  0.00    +0.149 HD
ATOM     21  O   UNL     1      10.388   1.359  24.572  0.00  0.00    -0.267 OA
BRANCH  19  22
ATOM     22  C   UNL     1       9.213  -0.978  23.440  0.00  0.00    +0.073 C 
ATOM     23  C   UNL     1       9.705  -1.291  22.048  0.00  0.00    +0.024 C 
ATOM     24  C   UNL     1       8.575  -2.076  22.637  0.00  0.00    +0.024 C 
ENDBRANCH  19  22
ENDBRANCH  16  18
ENDBRANCH  15  16
BRANCH  15  25
ATOM     25  C   UNL     1       7.572   3.818  22.290  0.00  0.00    +0.030 C 
BRANCH  25  27
ATOM     26  C   UNL     1       7.980   6.291  22.695  0.00  0.00    +0.004 C 
ATOM     27  C   UNL     1       6.938   5.197  22.517  0.00  0.00    -0.001 C 
ENDBRANCH  25  27
ENDBRANCH  15  25
ENDBRANCH  11  15
ENDBRANCH   1  13
BRANCH   3  28
ATOM     28  C   UNL     1       5.202   0.678  27.509  0.00  0.00    +0.164 C 
BRANCH  28  29
ATOM     29  N   UNL     1       4.885  -0.677  27.975  0.00  0.00    -0.302 N 
ATOM     30  H   UNL     1       5.257  -0.984  28.875  0.00  0.00    +0.150 HD
ATOM     31  C   UNL     1       4.176  -1.595  27.220  0.00  0.00    +0.234 C 
ATOM     32  O   UNL     1       3.593  -1.283  26.184  0.00  0.00    -0.274 OA
BRANCH  31  33
ATOM     33  C   UNL     1       4.154  -3.048  27.789  0.00  0.00    +0.162 C 
BRANCH  33  34
ATOM     34  C   UNL     1       3.832  -3.048  29.317  0.00  0.00    +0.018 C 
ATOM     35  C   UNL     1       4.228  -4.332  30.072  0.00  0.00    +0.006 C 
ATOM     36  C   UNL     1       3.383  -5.553  29.706  0.00  0.00    +0.000 C 
ATOM     37  C   UNL     1       1.875  -5.294  29.711  0.00  0.00    +0.000 C 
ATOM     38  C   UNL     1       1.473  -3.971  29.068  0.00  0.00    +0.000 C 
ATOM     39  C   UNL     1       2.328  -2.816  29.586  0.00  0.00    +0.006 C 
ENDBRANCH  33  34
BRANCH  33  40
ATOM     40  N   UNL     1       5.448  -3.646  27.474  0.00  0.00    -0.298 N 
ATOM     41  H   UNL     1       6.269  -3.379  28.013  0.00  0.00    +0.150 HD
ATOM     42  C   UNL     1       5.690  -4.155  26.212  0.00  0.00    +0.264 C 
ATOM     43  O   UNL     1       4.814  -4.263  25.355  0.00  0.00    -0.268 OA
BRANCH  42  44
ATOM     44  C   UNL     1       7.101  -4.504  25.904  0.00  0.00    +0.143 A 
ATOM     45  C   UNL     1       7.423  -5.004  24.649  0.00  0.00    +0.143 A 
ATOM     46  N   UNL     1       8.696  -5.312  24.295  0.00  0.00    -0.259 NA
ATOM     47  C   UNL     1       9.626  -5.102  25.254  0.00  0.00    +0.130 A 
ATOM     48  C   UNL     1       9.302  -4.606  26.510  0.00  0.00    +0.131 A 
ATOM     49  N   UNL     1       8.036  -4.289  26.871  0.00  0.00    -0.247 NA
ENDBRANCH  42  44
ENDBRANCH  33  40
ENDBRANCH  31  33
ENDBRANCH  28  29
BRANCH  28  50
ATOM     50  C   UNL     1       6.482   1.273  28.244  0.00  0.00    -0.011 C 
ATOM     51  C   UNL     1       6.268   1.333  29.774  0.00  0.00    +0.013 C 
ATOM     52  C   UNL     1       6.743   2.731  27.793  0.00  0.00    +0.013 C 
ATOM     53  C   UNL     1       7.772   0.462  27.972  0.00  0.00    +0.013 C 
ENDBRANCH  28  50
ENDBRANCH   3  28
TORSDOF 14
ENDMDL
