MODEL 1
REMARK VINA RESULT:      -6.3      0.000      0.000
REMARK  Name = 
REMARK  24 active torsions:
REMARK  status: ('A' for Active; 'I' for Inactive)
REMARK    1  A    between atoms: C_1  and  C_2
REMARK    2  A    between atoms: C_2  and  C_3
REMARK    3  A    between atoms: C_2  and  C_4
REMARK    4  A    between atoms: C_6  and  C_9
REMARK    5  A    between atoms: C_9  and  N_10
REMARK    6  A    between atoms: N_10  and  C_11
REMARK    7  A    between atoms: N_14  and  C_15
REMARK    8  A    between atoms: C_15  and  C_17
REMARK    9  A    between atoms: C_15  and  C_20
REMARK   10  A    between atoms: C_17  and  C_18
REMARK   11  A    between atoms: C_17  and  C_19
REMARK   12  A    between atoms: N_22  and  C_23
REMARK   13  A    between atoms: C_23  and  C_25
REMARK   14  A    between atoms: C_23  and  C_32
REMARK   15  A    between atoms: C_25  and  C_26
REMARK   16  A    between atoms: C_32  and  C_33
REMARK   17  A    between atoms: C_33  and  C_35
REMARK   18  A    between atoms: C_33  and  O_54
REMARK   19  A    between atoms: C_35  and  C_37
REMARK   20  A    between atoms: C_35  and  N_44
REMARK   21  A    between atoms: C_37  and  C_38
REMARK   22  A    between atoms: C_45  and  O_47
REMARK   23  A    between atoms: O_47  and  C_48
REMARK   24  A    between atoms: C_48  and  C_49
REMARK                            x       y       z     vdW  Elec       q    Type
REMARK                         _______ _______ _______ _____ _____    ______ ____
ROOT
ATOM      1  C   UNL     1       5.672  -3.421  26.962  0.00  0.00    +0.080 C 
ENDROOT
BRANCH   1   3
ATOM      2  C   UNL     1       5.378  -1.027  26.227  0.00  0.00    +0.234 C 
ATOM      3  N   UNL     1       5.987  -1.983  27.033  0.00  0.00    -0.311 N 
ATOM      4  H   UNL     1       6.178  -1.629  27.963  0.00  0.00    +0.149 HD
ATOM      5  O   UNL     1       4.627  -1.316  25.299  0.00  0.00    -0.274 OA
BRANCH   2   6
ATOM      6  C   UNL     1       5.805   0.438  26.507  0.00  0.00    +0.163 C 
BRANCH   6   9
ATOM      7  N   UNL     1       5.556   2.442  23.410  0.00  0.00    -0.283 N 
ATOM      8  C   UNL     1       6.142   1.605  24.346  0.00  0.00    +0.303 C 
ATOM      9  N   UNL     1       5.318   1.249  25.388  0.00  0.00    -0.288 N 
ATOM     10  H   UNL     1       4.327   1.403  25.315  0.00  0.00    +0.151 HD
ATOM     11  O   UNL     1       7.297   1.219  24.283  0.00  0.00    -0.253 OA
ATOM     12  C   UNL     1       4.238   3.040  23.582  0.00  0.00    +0.134 C 
BRANCH   7  13
ATOM     13  C   UNL     1       6.426   3.009  22.377  0.00  0.00    +0.164 C 
BRANCH  13  17
ATOM     14  C   UNL     1       8.376   5.890  23.463  0.00  0.00    +0.081 A 
ATOM     15  S   UNL     1       7.239   6.931  22.700  0.00  0.00    -0.080 S 
ATOM     16  C   UNL     1       6.314   5.570  22.235  0.00  0.00    +0.071 A 
ATOM     17  C   UNL     1       6.904   4.403  22.686  0.00  0.00    +0.066 A 
ATOM     18  N   UNL     1       8.093   4.604  23.389  0.00  0.00    -0.247 NA
BRANCH  14  20
ATOM     19  C   UNL     1       9.425   6.477  25.656  0.00  0.00    +0.014 C 
ATOM     20  C   UNL     1       9.595   6.472  24.137  0.00  0.00    +0.038 C 
ATOM     21  C   UNL     1      10.856   5.706  23.735  0.00  0.00    +0.014 C 
ENDBRANCH  14  20
ENDBRANCH  13  17
ENDBRANCH   7  13
ENDBRANCH   6   9
BRANCH   6  22
ATOM     22  C   UNL     1       5.275   1.024  27.844  0.00  0.00    +0.012 C 
ATOM     23  C   UNL     1       4.681   2.428  27.623  0.00  0.00    +0.009 C 
ATOM     24  C   UNL     1       6.358   1.129  28.919  0.00  0.00    +0.009 C 
ENDBRANCH   6  22
ENDBRANCH   2   6
ENDBRANCH   1   3
BRANCH   1  25
ATOM     25  C   UNL     1       6.908  -4.351  26.966  0.00  0.00    +0.055 C 
BRANCH  25  26
ATOM     26  C   UNL     1       7.964  -4.126  25.883  0.00  0.00    +0.137 C 
BRANCH  26  27
ATOM     27  O   UNL     1       8.708  -2.948  26.229  0.00  0.00    -0.390 OA
ATOM     28  H   UNL     1       9.182  -3.192  27.058  0.00  0.00    +0.210 HD
ENDBRANCH  26  27
BRANCH  26  29
ATOM     29  C   UNL     1       7.349  -3.925  24.477  0.00  0.00    +0.109 C 
BRANCH  29  30
ATOM     30  N   UNL     1       8.243  -3.094  23.656  0.00  0.00    -0.275 N 
ATOM     31  H   UNL     1       9.118  -3.528  23.392  0.00  0.00    +0.152 HD
ATOM     32  C   UNL     1       7.815  -2.178  22.745  0.00  0.00    +0.401 C 
ATOM     33  O   UNL     1       6.695  -1.694  22.681  0.00  0.00    -0.226 OA
BRANCH  32  34
ATOM     34  O   UNL     1       8.832  -1.892  21.896  0.00  0.00    -0.445 OA
BRANCH  34  35
ATOM     35  C   UNL     1      10.090  -1.625  22.531  0.00  0.00    +0.278 C 
BRANCH  35  36
ATOM     36  C   UNL     1      10.193  -0.166  22.819  0.00  0.00    +0.046 A 
ATOM     37  S   UNL     1      10.752   0.425  24.329  0.00  0.00    -0.077 S 
ATOM     38  C   UNL     1      10.609   2.026  23.735  0.00  0.00    +0.156 A 
ATOM     39  N   UNL     1      10.130   2.155  22.517  0.00  0.00    -0.255 NA
ATOM     40  C   UNL     1       9.913   0.899  21.985  0.00  0.00    +0.125 A 
ENDBRANCH  35  36
ENDBRANCH  34  35
ENDBRANCH  32  34
ENDBRANCH  29  30
BRANCH  29  41
ATOM     41  C   UNL     1       6.955  -5.268  23.818  0.00  0.00    +0.060 C 
BRANCH  41  42
ATOM     42  C   UNL     1       5.463  -5.476  23.828  0.00  0.00    -0.046 A 
ATOM     43  C   UNL     1       4.943  -6.746  24.110  0.00  0.00    +0.004 A 
ATOM     44  C   UNL     1       3.566  -6.934  24.198  0.00  0.00    +0.000 A 
ATOM     45  C   UNL     1       2.704  -5.856  24.004  0.00  0.00    +0.000 A 
ATOM     46  C   UNL     1       3.215  -4.594  23.708  0.00  0.00    +0.000 A 
ATOM     47  C   UNL     1       4.593  -4.403  23.615  0.00  0.00    +0.004 A 
ENDBRANCH  41  42
ENDBRANCH  29  41
ENDBRANCH  26  29
ENDBRANCH  25  26
ENDBRANCH   1  25
BRANCH   1  48
ATOM     48  C   UNL     1       4.710  -3.856  28.122  0.00  0.00    +0.057 C 
BRANCH  48  49
ATOM     49  C   UNL     1       3.455  -4.644  27.767  0.00  0.00    -0.046 A 
ATOM     50  C   UNL     1       3.462  -6.044  27.891  0.00  0.00    +0.004 A 
ATOM     51  C   UNL     1       2.307  -6.797  27.646  0.00  0.00    +0.000 A 
ATOM     52  C   UNL     1       1.132  -6.164  27.257  0.00  0.00    +0.000 A 
ATOM     53  C   UNL     1       1.121  -4.784  27.078  0.00  0.00    +0.000 A 
ATOM     54  C   UNL     1       2.277  -4.034  27.314  0.00  0.00    +0.004 A 
ENDBRANCH  48  49
ENDBRANCH   1  48
TORSDOF 19
ENDMDL
MODEL 2
REMARK VINA RESULT:      -6.1      2.503      4.907
REMARK  Name = 
REMARK  24 active torsions:
REMARK  status: ('A' for Active; 'I' for Inactive)
REMARK    1  A    between atoms: C_1  and  C_2
REMARK    2  A    between atoms: C_2  and  C_3
REMARK    3  A    between atoms: C_2  and  C_4
REMARK    4  A    between atoms: C_6  and  C_9
REMARK    5  A    between atoms: C_9  and  N_10
REMARK    6  A    between atoms: N_10  and  C_11
REMARK    7  A    between atoms: N_14  and  C_15
REMARK    8  A    between atoms: C_15  and  C_17
REMARK    9  A    between atoms: C_15  and  C_20
REMARK   10  A    between atoms: C_17  and  C_18
REMARK   11  A    between atoms: C_17  and  C_19
REMARK   12  A    between atoms: N_22  and  C_23
REMARK   13  A    between atoms: C_23  and  C_25
REMARK   14  A    between atoms: C_23  and  C_32
REMARK   15  A    between atoms: C_25  and  C_26
REMARK   16  A    between atoms: C_32  and  C_33
REMARK   17  A    between atoms: C_33  and  C_35
REMARK   18  A    between atoms: C_33  and  O_54
REMARK   19  A    between atoms: C_35  and  C_37
REMARK   20  A    between atoms: C_35  and  N_44
REMARK   21  A    between atoms: C_37  and  C_38
REMARK   22  A    between atoms: C_45  and  O_47
REMARK   23  A    between atoms: O_47  and  C_48
REMARK   24  A    between atoms: C_48  and  C_49
REMARK                            x       y       z     vdW  Elec       q    Type
REMARK                         _______ _______ _______ _____ _____    ______ ____
ROOT
ATOM      1  C   UNL     1       7.007  -4.755  26.893  0.00  0.00    +0.080 C 
ENDROOT
BRANCH   1   3
ATOM      2  C   UNL     1       5.762  -2.572  26.697  0.00  0.00    +0.234 C 
ATOM      3  N   UNL     1       6.442  -3.517  27.457  0.00  0.00    -0.311 N 
ATOM      4  H   UNL     1       6.054  -3.606  28.389  0.00  0.00    +0.149 HD
ATOM      5  O   UNL     1       5.692  -2.626  25.471  0.00  0.00    -0.274 OA
BRANCH   2   6
ATOM      6  C   UNL     1       5.190  -1.372  27.496  0.00  0.00    +0.163 C 
BRANCH   6   9
ATOM      7  N   UNL     1       5.976   1.960  26.098  0.00  0.00    -0.283 N 
ATOM      8  C   UNL     1       6.055   0.893  26.980  0.00  0.00    +0.303 C 
ATOM      9  N   UNL     1       5.288  -0.194  26.630  0.00  0.00    -0.288 N 
ATOM     10  H   UNL     1       4.912  -0.261  25.700  0.00  0.00    +0.151 HD
ATOM     11  O   UNL     1       6.727   0.902  27.997  0.00  0.00    -0.253 OA
ATOM     12  C   UNL     1       5.040   2.010  24.983  0.00  0.00    +0.134 C 
BRANCH   7  13
ATOM     13  C   UNL     1       6.619   3.213  26.500  0.00  0.00    +0.164 C 
BRANCH  13  17
ATOM     14  C   UNL     1       9.349   3.551  24.110  0.00  0.00    +0.081 A 
ATOM     15  S   UNL     1       8.753   5.104  23.669  0.00  0.00    -0.080 S 
ATOM     16  C   UNL     1       7.505   4.947  24.826  0.00  0.00    +0.071 A 
ATOM     17  C   UNL     1       7.605   3.738  25.490  0.00  0.00    +0.066 A 
ATOM     18  N   UNL     1       8.671   2.944  25.063  0.00  0.00    -0.247 NA
BRANCH  14  20
ATOM     19  C   UNL     1      11.692   3.999  23.360  0.00  0.00    +0.014 C 
ATOM     20  C   UNL     1      10.555   2.980  23.405  0.00  0.00    +0.038 C 
ATOM     21  C   UNL     1      11.014   1.685  24.077  0.00  0.00    +0.014 C 
ENDBRANCH  14  20
ENDBRANCH  13  17
ENDBRANCH   7  13
ENDBRANCH   6   9
BRANCH   6  22
ATOM     22  C   UNL     1       3.722  -1.548  27.970  0.00  0.00    +0.012 C 
ATOM     23  C   UNL     1       3.488  -0.803  29.298  0.00  0.00    +0.009 C 
ATOM     24  C   UNL     1       3.333  -3.014  28.172  0.00  0.00    +0.009 C 
ENDBRANCH   6  22
ENDBRANCH   2   6
ENDBRANCH   1   3
BRANCH   1  25
ATOM     25  C   UNL     1       8.512  -4.674  26.542  0.00  0.00    +0.055 C 
BRANCH  25  26
ATOM     26  C   UNL     1       8.929  -5.083  25.128  0.00  0.00    +0.137 C 
BRANCH  26  27
ATOM     27  O   UNL     1      10.328  -5.400  25.154  0.00  0.00    -0.390 OA
ATOM     28  H   UNL     1      10.776  -4.527  25.239  0.00  0.00    +0.210 HD
ENDBRANCH  26  27
BRANCH  26  29
ATOM     29  C   UNL     1       8.697  -3.962  24.086  0.00  0.00    +0.109 C 
BRANCH  29  30
ATOM     30  N   UNL     1       7.342  -4.076  23.525  0.00  0.00    -0.275 N 
ATOM     31  H   UNL     1       6.827  -3.208  23.456  0.00  0.00    +0.152 HD
ATOM     32  C   UNL     1       6.982  -4.978  22.571  0.00  0.00    +0.401 C 
ATOM     33  O   UNL     1       7.597  -5.988  22.265  0.00  0.00    -0.226 OA
BRANCH  32  34
ATOM     34  O   UNL     1       5.827  -4.569  21.993  0.00  0.00    -0.445 OA
BRANCH  34  35
ATOM     35  C   UNL     1       4.918  -3.892  22.872  0.00  0.00    +0.278 C 
BRANCH  35  36
ATOM     36  C   UNL     1       3.895  -4.861  23.358  0.00  0.00    +0.046 A 
ATOM     37  S   UNL     1       2.699  -4.419  24.506  0.00  0.00    -0.077 S 
ATOM     38  C   UNL     1       2.024  -5.990  24.379  0.00  0.00    +0.156 A 
ATOM     39  N   UNL     1       2.651  -6.831  23.587  0.00  0.00    -0.255 NA
ATOM     40  C   UNL     1       3.708  -6.178  22.985  0.00  0.00    +0.125 A 
ENDBRANCH  35  36
ENDBRANCH  34  35
ENDBRANCH  32  34
ENDBRANCH  29  30
BRANCH  29  41
ATOM     41  C   UNL     1       9.028  -2.563  24.656  0.00  0.00    +0.060 C 
BRANCH  41  42
ATOM     42  C   UNL     1       8.938  -1.495  23.597  0.00  0.00    -0.046 A 
ATOM     43  C   UNL     1       9.821  -1.522  22.509  0.00  0.00    +0.004 A 
ATOM     44  C   UNL     1       9.698  -0.586  21.485  0.00  0.00    +0.000 A 
ATOM     45  C   UNL     1       8.694   0.380  21.544  0.00  0.00    +0.000 A 
ATOM     46  C   UNL     1       7.823   0.421  22.630  0.00  0.00    +0.000 A 
ATOM     47  C   UNL     1       7.946  -0.512  23.659  0.00  0.00    +0.004 A 
ENDBRANCH  41  42
ENDBRANCH  29  41
ENDBRANCH  26  29
ENDBRANCH  25  26
ENDBRANCH   1  25
BRANCH   1  48
ATOM     48  C   UNL     1       6.778  -5.978  27.848  0.00  0.00    +0.057 C 
BRANCH  48  49
ATOM     49  C   UNL     1       5.356  -6.295  28.294  0.00  0.00    -0.046 A 
ATOM     50  C   UNL     1       5.056  -6.329  29.667  0.00  0.00    +0.004 A 
ATOM     51  C   UNL     1       3.747  -6.544  30.115  0.00  0.00    +0.000 A 
ATOM     52  C   UNL     1       2.720  -6.744  29.198  0.00  0.00    +0.000 A 
ATOM     53  C   UNL     1       3.009  -6.767  27.838  0.00  0.00    +0.000 A 
ATOM     54  C   UNL     1       4.317  -6.562  27.391  0.00  0.00    +0.004 A 
ENDBRANCH  48  49
ENDBRANCH   1  48
TORSDOF 19
ENDMDL
MODEL 3
REMARK VINA RESULT:      -6.1      3.021      6.038
REMARK  Name = 
REMARK  24 active torsions:
REMARK  status: ('A' for Active; 'I' for Inactive)
REMARK    1  A    between atoms: C_1  and  C_2
REMARK    2  A    between atoms: C_2  and  C_3
REMARK    3  A    between atoms: C_2  and  C_4
REMARK    4  A    between atoms: C_6  and  C_9
REMARK    5  A    between atoms: C_9  and  N_10
REMARK    6  A    between atoms: N_10  and  C_11
REMARK    7  A    between atoms: N_14  and  C_15
REMARK    8  A    between atoms: C_15  and  C_17
REMARK    9  A    between atoms: C_15  and  C_20
REMARK   10  A    between atoms: C_17  and  C_18
REMARK   11  A    between atoms: C_17  and  C_19
REMARK   12  A    between atoms: N_22  and  C_23
REMARK   13  A    between atoms: C_23  and  C_25
REMARK   14  A    between atoms: C_23  and  C_32
REMARK   15  A    between atoms: C_25  and  C_26
REMARK   16  A    between atoms: C_32  and  C_33
REMARK   17  A    between atoms: C_33  and  C_35
REMARK   18  A    between atoms: C_33  and  O_54
REMARK   19  A    between atoms: C_35  and  C_37
REMARK   20  A    between atoms: C_35  and  N_44
REMARK   21  A    between atoms: C_37  and  C_38
REMARK   22  A    between atoms: C_45  and  O_47
REMARK   23  A    between atoms: O_47  and  C_48
REMARK   24  A    between atoms: C_48  and  C_49
REMARK                            x       y       z     vdW  Elec       q    Type
REMARK                         _______ _______ _______ _____ _____    ______ ____
ROOT
ATOM      1  C   UNL     1       8.319  -1.254  26.810  0.00  0.00    +0.080 C 
ENDROOT
BRANCH   1   3
ATOM      2  C   UNL     1       6.489   0.247  27.680  0.00  0.00    +0.234 C 
ATOM      3  N   UNL     1       6.968  -0.669  26.749  0.00  0.00    -0.311 N 
ATOM      4  H   UNL     1       6.623  -0.476  25.816  0.00  0.00    +0.149 HD
ATOM      5  O   UNL     1       7.102   0.541  28.703  0.00  0.00    -0.274 OA
BRANCH   2   6
ATOM      6  C   UNL     1       5.064   0.790  27.397  0.00  0.00    +0.163 C 
BRANCH   6   9
ATOM      7  N   UNL     1       5.446   3.393  24.799  0.00  0.00    -0.283 N 
ATOM      8  C   UNL     1       5.524   2.828  26.062  0.00  0.00    +0.303 C 
ATOM      9  N   UNL     1       5.125   1.513  26.124  0.00  0.00    -0.288 N 
ATOM     10  H   UNL     1       5.026   0.981  25.276  0.00  0.00    +0.151 HD
ATOM     11  O   UNL     1       5.892   3.432  27.054  0.00  0.00    -0.253 OA
ATOM     12  C   UNL     1       4.841   2.723  23.656  0.00  0.00    +0.134 C 
BRANCH   7  13
ATOM     13  C   UNL     1       5.678   4.836  24.693  0.00  0.00    +0.164 C 
BRANCH  13  17
ATOM     14  C   UNL     1       9.238   4.731  23.921  0.00  0.00    +0.081 A 
ATOM     15  S   UNL     1       9.152   6.357  23.367  0.00  0.00    -0.080 S 
ATOM     16  C   UNL     1       7.493   6.403  23.775  0.00  0.00    +0.071 A 
ATOM     17  C   UNL     1       7.091   5.195  24.316  0.00  0.00    +0.066 A 
ATOM     18  N   UNL     1       8.107   4.242  24.390  0.00  0.00    -0.247 NA
BRANCH  14  20
ATOM     19  C   UNL     1      10.419   2.790  22.877  0.00  0.00    +0.014 C 
ATOM     20  C   UNL     1      10.541   3.974  23.835  0.00  0.00    +0.038 C 
ATOM     21  C   UNL     1      11.681   4.901  23.409  0.00  0.00    +0.014 C 
ENDBRANCH  14  20
ENDBRANCH  13  17
ENDBRANCH   7  13
ENDBRANCH   6   9
BRANCH   6  22
ATOM     22  C   UNL     1       3.957  -0.297  27.326  0.00  0.00    +0.012 C 
ATOM     23  C   UNL     1       2.562   0.353  27.256  0.00  0.00    +0.009 C 
ATOM     24  C   UNL     1       3.980  -1.249  28.522  0.00  0.00    +0.009 C 
ENDBRANCH   6  22
ENDBRANCH   2   6
ENDBRANCH   1   3
BRANCH   1  25
ATOM     25  C   UNL     1       8.390  -2.750  26.423  0.00  0.00    +0.055 C 
BRANCH  25  26
ATOM     26  C   UNL     1       7.066  -3.496  26.245  0.00  0.00    +0.137 C 
BRANCH  26  27
ATOM     27  O   UNL     1       6.417  -3.556  27.525  0.00  0.00    -0.390 OA
ATOM     28  H   UNL     1       5.508  -3.877  27.323  0.00  0.00    +0.210 HD
ENDBRANCH  26  27
BRANCH  26  29
ATOM     29  C   UNL     1       7.256  -4.940  25.722  0.00  0.00    +0.109 C 
BRANCH  29  30
ATOM     30  N   UNL     1       5.944  -5.557  25.473  0.00  0.00    -0.275 N 
ATOM     31  H   UNL     1       5.704  -5.689  24.499  0.00  0.00    +0.152 HD
ATOM     32  C   UNL     1       5.367  -6.483  26.286  0.00  0.00    +0.401 C 
ATOM     33  O   UNL     1       5.672  -6.714  27.447  0.00  0.00    -0.226 OA
BRANCH  32  34
ATOM     34  O   UNL     1       4.398  -7.132  25.597  0.00  0.00    -0.445 OA
BRANCH  34  35
ATOM     35  C   UNL     1       4.174  -6.645  24.266  0.00  0.00    +0.278 C 
BRANCH  35  36
ATOM     36  C   UNL     1       2.777  -6.963  23.857  0.00  0.00    +0.046 A 
ATOM     37  S   UNL     1       1.783  -5.818  23.053  0.00  0.00    -0.077 S 
ATOM     38  C   UNL     1       0.547  -7.001  22.939  0.00  0.00    +0.156 A 
ATOM     39  N   UNL     1       0.799  -8.164  23.498  0.00  0.00    -0.255 NA
ATOM     40  C   UNL     1       2.085  -8.149  24.003  0.00  0.00    +0.125 A 
ENDBRANCH  35  36
ENDBRANCH  34  35
ENDBRANCH  32  34
ENDBRANCH  29  30
BRANCH  29  41
ATOM     41  C   UNL     1       8.218  -4.997  24.512  0.00  0.00    +0.060 C 
BRANCH  41  42
ATOM     42  C   UNL     1       7.488  -4.791  23.210  0.00  0.00    -0.046 A 
ATOM     43  C   UNL     1       7.315  -5.871  22.334  0.00  0.00    +0.004 A 
ATOM     44  C   UNL     1       6.575  -5.712  21.165  0.00  0.00    +0.000 A 
ATOM     45  C   UNL     1       6.008  -4.474  20.865  0.00  0.00    +0.000 A 
ATOM     46  C   UNL     1       6.191  -3.392  21.724  0.00  0.00    +0.000 A 
ATOM     47  C   UNL     1       6.933  -3.548  22.894  0.00  0.00    +0.004 A 
ENDBRANCH  41  42
ENDBRANCH  29  41
ENDBRANCH  26  29
ENDBRANCH  25  26
ENDBRANCH   1  25
BRANCH   1  48
ATOM     48  C   UNL     1       9.332  -0.455  25.918  0.00  0.00    +0.057 C 
BRANCH  48  49
ATOM     49  C   UNL     1       9.276  -0.645  24.407  0.00  0.00    -0.046 A 
ATOM     50  C   UNL     1       8.261  -0.011  23.670  0.00  0.00    +0.004 A 
ATOM     51  C   UNL     1       8.219  -0.101  22.274  0.00  0.00    +0.000 A 
ATOM     52  C   UNL     1       9.182  -0.839  21.593  0.00  0.00    +0.000 A 
ATOM     53  C   UNL     1      10.162  -1.516  22.310  0.00  0.00    +0.000 A 
ATOM     54  C   UNL     1      10.198  -1.434  23.705  0.00  0.00    +0.004 A 
ENDBRANCH  48  49
ENDBRANCH   1  48
TORSDOF 19
ENDMDL
MODEL 4
REMARK VINA RESULT:      -5.9      2.224      3.507
REMARK  Name = 
REMARK  24 active torsions:
REMARK  status: ('A' for Active; 'I' for Inactive)
REMARK    1  A    between atoms: C_1  and  C_2
REMARK    2  A    between atoms: C_2  and  C_3
REMARK    3  A    between atoms: C_2  and  C_4
REMARK    4  A    between atoms: C_6  and  C_9
REMARK    5  A    between atoms: C_9  and  N_10
REMARK    6  A    between atoms: N_10  and  C_11
REMARK    7  A    between atoms: N_14  and  C_15
REMARK    8  A    between atoms: C_15  and  C_17
REMARK    9  A    between atoms: C_15  and  C_20
REMARK   10  A    between atoms: C_17  and  C_18
REMARK   11  A    between atoms: C_17  and  C_19
REMARK   12  A    between atoms: N_22  and  C_23
REMARK   13  A    between atoms: C_23  and  C_25
REMARK   14  A    between atoms: C_23  and  C_32
REMARK   15  A    between atoms: C_25  and  C_26
REMARK   16  A    between atoms: C_32  and  C_33
REMARK   17  A    between atoms: C_33  and  C_35
REMARK   18  A    between atoms: C_33  and  O_54
REMARK   19  A    between atoms: C_35  and  C_37
REMARK   20  A    between atoms: C_35  and  N_44
REMARK   21  A    between atoms: C_37  and  C_38
REMARK   22  A    between atoms: C_45  and  O_47
REMARK   23  A    between atoms: O_47  and  C_48
REMARK   24  A    between atoms: C_48  and  C_49
REMARK                            x       y       z     vdW  Elec       q    Type
REMARK                         _______ _______ _______ _____ _____    ______ ____
ROOT
ATOM      1  C   UNL     1       4.769  -3.865  27.257  0.00  0.00    +0.080 C 
ENDROOT
BRANCH   1   3
ATOM      2  C   UNL     1       3.755  -1.570  27.501  0.00  0.00    +0.234 C 
ATOM      3  N   UNL     1       4.436  -2.659  28.035  0.00  0.00    -0.311 N 
ATOM      4  H   UNL     1       4.188  -2.825  29.002  0.00  0.00    +0.149 HD
ATOM      5  O   UNL     1       3.493  -1.467  26.305  0.00  0.00    -0.274 OA
BRANCH   2   6
ATOM      6  C   UNL     1       3.447  -0.430  28.506  0.00  0.00    +0.163 C 
BRANCH   6   9
ATOM      7  N   UNL     1       5.442   2.548  27.600  0.00  0.00    -0.283 N 
ATOM      8  C   UNL     1       5.173   1.320  28.183  0.00  0.00    +0.303 C 
ATOM      9  N   UNL     1       3.924   0.817  27.901  0.00  0.00    -0.288 N 
ATOM     10  H   UNL     1       3.384   1.212  27.150  0.00  0.00    +0.151 HD
ATOM     11  O   UNL     1       5.954   0.727  28.905  0.00  0.00    -0.253 OA
ATOM     12  C   UNL     1       4.443   3.333  26.885  0.00  0.00    +0.134 C 
BRANCH   7  13
ATOM     13  C   UNL     1       6.675   3.228  28.003  0.00  0.00    +0.164 C 
BRANCH  13  17
ATOM     14  C   UNL     1       8.254   4.222  24.872  0.00  0.00    +0.081 A 
ATOM     15  S   UNL     1       8.101   5.872  25.334  0.00  0.00    -0.080 S 
ATOM     16  C   UNL     1       7.401   5.386  26.816  0.00  0.00    +0.071 A 
ATOM     17  C   UNL     1       7.327   4.007  26.891  0.00  0.00    +0.066 A 
ATOM     18  N   UNL     1       7.819   3.352  25.762  0.00  0.00    -0.247 NA
BRANCH  14  20
ATOM     19  C   UNL     1      10.003   2.891  23.679  0.00  0.00    +0.014 C 
ATOM     20  C   UNL     1       8.838   3.869  23.527  0.00  0.00    +0.038 C 
ATOM     21  C   UNL     1       7.765   3.292  22.602  0.00  0.00    +0.014 C 
ENDBRANCH  14  20
ENDBRANCH  13  17
ENDBRANCH   7  13
ENDBRANCH   6   9
BRANCH   6  22
ATOM     22  C   UNL     1       1.948  -0.284  28.883  0.00  0.00    +0.012 C 
ATOM     23  C   UNL     1       1.211  -1.626  28.709  0.00  0.00    +0.009 C 
ATOM     24  C   UNL     1       1.222   0.770  28.046  0.00  0.00    +0.009 C 
ENDBRANCH   6  22
ENDBRANCH   2   6
ENDBRANCH   1   3
BRANCH   1  25
ATOM     25  C   UNL     1       5.809  -4.796  27.925  0.00  0.00    +0.055 C 
BRANCH  25  26
ATOM     26  C   UNL     1       6.896  -5.396  27.031  0.00  0.00    +0.137 C 
BRANCH  26  27
ATOM     27  O   UNL     1       8.046  -5.658  27.849  0.00  0.00    -0.390 OA
ATOM     28  H   UNL     1       7.674  -6.031  28.683  0.00  0.00    +0.210 HD
ENDBRANCH  26  27
BRANCH  26  29
ATOM     29  C   UNL     1       7.316  -4.451  25.880  0.00  0.00    +0.109 C 
BRANCH  29  30
ATOM     30  N   UNL     1       8.222  -3.412  26.393  0.00  0.00    -0.275 N 
ATOM     31  H   UNL     1       9.209  -3.600  26.275  0.00  0.00    +0.152 HD
ATOM     32  C   UNL     1       7.938  -2.081  26.395  0.00  0.00    +0.401 C 
ATOM     33  O   UNL     1       6.830  -1.580  26.271  0.00  0.00    -0.226 OA
BRANCH  32  34
ATOM     34  O   UNL     1       9.091  -1.385  26.541  0.00  0.00    -0.445 OA
BRANCH  34  35
ATOM     35  C   UNL     1       9.293  -0.342  25.577  0.00  0.00    +0.278 C 
BRANCH  35  36
ATOM     36  C   UNL     1       9.342  -0.940  24.213  0.00  0.00    +0.046 A 
ATOM     37  S   UNL     1       8.241  -0.483  22.979  0.00  0.00    -0.077 S 
ATOM     38  C   UNL     1       9.056  -1.527  21.890  0.00  0.00    +0.156 A 
ATOM     39  N   UNL     1      10.052  -2.226  22.388  0.00  0.00    -0.255 NA
ATOM     40  C   UNL     1      10.230  -1.873  23.712  0.00  0.00    +0.125 A 
ENDBRANCH  35  36
ENDBRANCH  34  35
ENDBRANCH  32  34
ENDBRANCH  29  30
BRANCH  29  41
ATOM     41  C   UNL     1       7.873  -5.229  24.665  0.00  0.00    +0.060 C 
BRANCH  41  42
ATOM     42  C   UNL     1       7.074  -4.958  23.416  0.00  0.00    -0.046 A 
ATOM     43  C   UNL     1       6.305  -3.791  23.326  0.00  0.00    +0.004 A 
ATOM     44  C   UNL     1       5.624  -3.491  22.148  0.00  0.00    +0.000 A 
ATOM     45  C   UNL     1       5.707  -4.357  21.058  0.00  0.00    +0.000 A 
ATOM     46  C   UNL     1       6.458  -5.528  21.148  0.00  0.00    +0.000 A 
ATOM     47  C   UNL     1       7.138  -5.832  22.327  0.00  0.00    +0.004 A 
ENDBRANCH  41  42
ENDBRANCH  29  41
ENDBRANCH  26  29
ENDBRANCH  25  26
ENDBRANCH   1  25
BRANCH   1  48
ATOM     48  C   UNL     1       3.487  -4.704  26.920  0.00  0.00    +0.057 C 
BRANCH  48  49
ATOM     49  C   UNL     1       3.309  -5.220  25.498  0.00  0.00    -0.046 A 
ATOM     50  C   UNL     1       4.038  -6.346  25.078  0.00  0.00    +0.004 A 
ATOM     51  C   UNL     1       3.848  -6.895  23.804  0.00  0.00    +0.000 A 
ATOM     52  C   UNL     1       2.938  -6.317  22.924  0.00  0.00    +0.000 A 
ATOM     53  C   UNL     1       2.248  -5.171  23.304  0.00  0.00    +0.000 A 
ATOM     54  C   UNL     1       2.444  -4.618  24.573  0.00  0.00    +0.004 A 
ENDBRANCH  48  49
ENDBRANCH   1  48
TORSDOF 19
ENDMDL
MODEL 5
REMARK VINA RESULT:      -5.8      2.086      2.839
REMARK  Name = 
REMARK  24 active torsions:
REMARK  status: ('A' for Active; 'I' for Inactive)
REMARK    1  A    between atoms: C_1  and  C_2
REMARK    2  A    between atoms: C_2  and  C_3
REMARK    3  A    between atoms: C_2  and  C_4
REMARK    4  A    between atoms: C_6  and  C_9
REMARK    5  A    between atoms: C_9  and  N_10
REMARK    6  A    between atoms: N_10  and  C_11
REMARK    7  A    between atoms: N_14  and  C_15
REMARK    8  A    between atoms: C_15  and  C_17
REMARK    9  A    between atoms: C_15  and  C_20
REMARK   10  A    between atoms: C_17  and  C_18
REMARK   11  A    between atoms: C_17  and  C_19
REMARK   12  A    between atoms: N_22  and  C_23
REMARK   13  A    between atoms: C_23  and  C_25
REMARK   14  A    between atoms: C_23  and  C_32
REMARK   15  A    between atoms: C_25  and  C_26
REMARK   16  A    between atoms: C_32  and  C_33
REMARK   17  A    between atoms: C_33  and  C_35
REMARK   18  A    between atoms: C_33  and  O_54
REMARK   19  A    between atoms: C_35  and  C_37
REMARK   20  A    between atoms: C_35  and  N_44
REMARK   21  A    between atoms: C_37  and  C_38
REMARK   22  A    between atoms: C_45  and  O_47
REMARK   23  A    between atoms: O_47  and  C_48
REMARK   24  A    between atoms: C_48  and  C_49
REMARK                            x       y       z     vdW  Elec       q    Type
REMARK                         _______ _______ _______ _____ _____    ______ ____
ROOT
ATOM      1  C   UNL     1       6.631  -2.362  26.431  0.00  0.00    +0.080 C 
ENDROOT
BRANCH   1   3
ATOM      2  C   UNL     1       5.137  -0.354  26.738  0.00  0.00    +0.234 C 
ATOM      3  N   UNL     1       6.000  -1.315  27.254  0.00  0.00    -0.311 N 
ATOM      4  H   UNL     1       5.732  -1.603  28.187  0.00  0.00    +0.149 HD
ATOM      5  O   UNL     1       4.934  -0.217  25.534  0.00  0.00    -0.274 OA
BRANCH   2   6
ATOM      6  C   UNL     1       4.530   0.616  27.784  0.00  0.00    +0.163 C 
BRANCH   6   9
ATOM      7  N   UNL     1       4.067   4.061  26.525  0.00  0.00    -0.283 N 
ATOM      8  C   UNL     1       4.673   3.025  27.217  0.00  0.00    +0.303 C 
ATOM      9  N   UNL     1       4.068   1.800  27.056  0.00  0.00    -0.288 N 
ATOM     10  H   UNL     1       3.404   1.666  26.312  0.00  0.00    +0.151 HD
ATOM     11  O   UNL     1       5.650   3.167  27.932  0.00  0.00    -0.253 OA
ATOM     12  C   UNL     1       2.802   3.920  25.816  0.00  0.00    +0.134 C 
BRANCH   7  13
ATOM     13  C   UNL     1       4.544   5.420  26.795  0.00  0.00    +0.164 C 
BRANCH  13  17
ATOM     14  C   UNL     1       7.319   6.700  24.808  0.00  0.00    +0.081 A 
ATOM     15  S   UNL     1       6.305   6.704  23.419  0.00  0.00    -0.080 S 
ATOM     16  C   UNL     1       5.003   6.144  24.374  0.00  0.00    +0.071 A 
ATOM     17  C   UNL     1       5.395   5.992  25.692  0.00  0.00    +0.066 A 
ATOM     18  N   UNL     1       6.733   6.313  25.924  0.00  0.00    -0.247 NA
BRANCH  14  20
ATOM     19  C   UNL     1       9.528   6.810  25.976  0.00  0.00    +0.014 C 
ATOM     20  C   UNL     1       8.766   7.108  24.685  0.00  0.00    +0.038 C 
ATOM     21  C   UNL     1       9.427   6.414  23.493  0.00  0.00    +0.014 C 
ENDBRANCH  14  20
ENDBRANCH  13  17
ENDBRANCH   7  13
ENDBRANCH   6   9
BRANCH   6  22
ATOM     22  C   UNL     1       3.357   0.025  28.614  0.00  0.00    +0.012 C 
ATOM     23  C   UNL     1       2.145  -0.265  27.709  0.00  0.00    +0.009 C 
ATOM     24  C   UNL     1       2.899   0.952  29.742  0.00  0.00    +0.009 C 
ENDBRANCH   6  22
ENDBRANCH   2   6
ENDBRANCH   1   3
BRANCH   1  25
ATOM     25  C   UNL     1       8.128  -2.122  26.122  0.00  0.00    +0.055 C 
BRANCH  25  26
ATOM     26  C   UNL     1       8.467  -1.250  24.913  0.00  0.00    +0.137 C 
BRANCH  26  27
ATOM     27  O   UNL     1       7.910   0.054  25.138  0.00  0.00    -0.390 OA
ATOM     28  H   UNL     1       8.658   0.673  24.970  0.00  0.00    +0.210 HD
ENDBRANCH  26  27
BRANCH  26  29
ATOM     29  C   UNL     1       7.893  -1.809  23.589  0.00  0.00    +0.109 C 
BRANCH  29  30
ATOM     30  N   UNL     1       8.237  -0.909  22.477  0.00  0.00    -0.275 N 
ATOM     31  H   UNL     1       7.586  -0.152  22.314  0.00  0.00    +0.152 HD
ATOM     32  C   UNL     1       9.510  -0.593  22.113  0.00  0.00    +0.401 C 
ATOM     33  O   UNL     1      10.521  -1.208  22.421  0.00  0.00    -0.226 OA
BRANCH  32  34
ATOM     34  O   UNL     1       9.487   0.531  21.359  0.00  0.00    -0.445 OA
BRANCH  34  35
ATOM     35  C   UNL     1      10.158   1.660  21.936  0.00  0.00    +0.278 C 
BRANCH  35  36
ATOM     36  C   UNL     1       9.256   2.312  22.927  0.00  0.00    +0.046 A 
ATOM     37  S   UNL     1       7.637   2.731  22.544  0.00  0.00    -0.077 S 
ATOM     38  C   UNL     1       7.418   3.279  24.153  0.00  0.00    +0.156 A 
ATOM     39  N   UNL     1       8.472   3.220  24.938  0.00  0.00    -0.255 NA
ATOM     40  C   UNL     1       9.517   2.645  24.242  0.00  0.00    +0.125 A 
ENDBRANCH  35  36
ENDBRANCH  34  35
ENDBRANCH  32  34
ENDBRANCH  29  30
BRANCH  29  41
ATOM     41  C   UNL     1       8.302  -3.282  23.356  0.00  0.00    +0.060 C 
BRANCH  41  42
ATOM     42  C   UNL     1       7.102  -4.159  23.105  0.00  0.00    -0.046 A 
ATOM     43  C   UNL     1       5.820  -3.593  23.095  0.00  0.00    +0.004 A 
ATOM     44  C   UNL     1       4.712  -4.378  22.788  0.00  0.00    +0.000 A 
ATOM     45  C   UNL     1       4.879  -5.731  22.493  0.00  0.00    +0.000 A 
ATOM     46  C   UNL     1       6.149  -6.302  22.518  0.00  0.00    +0.000 A 
ATOM     47  C   UNL     1       7.260  -5.519  22.828  0.00  0.00    +0.004 A 
ENDBRANCH  41  42
ENDBRANCH  29  41
ENDBRANCH  26  29
ENDBRANCH  25  26
ENDBRANCH   1  25
BRANCH   1  48
ATOM     48  C   UNL     1       6.472  -3.779  27.084  0.00  0.00    +0.057 C 
BRANCH  48  49
ATOM     49  C   UNL     1       5.348  -4.684  26.593  0.00  0.00    -0.046 A 
ATOM     50  C   UNL     1       5.608  -6.047  26.371  0.00  0.00    +0.004 A 
ATOM     51  C   UNL     1       4.585  -6.924  25.990  0.00  0.00    +0.000 A 
ATOM     52  C   UNL     1       3.290  -6.449  25.811  0.00  0.00    +0.000 A 
ATOM     53  C   UNL     1       3.026  -5.094  25.975  0.00  0.00    +0.000 A 
ATOM     54  C   UNL     1       4.049  -4.216  26.346  0.00  0.00    +0.004 A 
ENDBRANCH  48  49
ENDBRANCH   1  48
TORSDOF 19
ENDMDL
MODEL 6
REMARK VINA RESULT:      -5.7      2.259      4.298
REMARK  Name = 
REMARK  24 active torsions:
REMARK  status: ('A' for Active; 'I' for Inactive)
REMARK    1  A    between atoms: C_1  and  C_2
REMARK    2  A    between atoms: C_2  and  C_3
REMARK    3  A    between atoms: C_2  and  C_4
REMARK    4  A    between atoms: C_6  and  C_9
REMARK    5  A    between atoms: C_9  and  N_10
REMARK    6  A    between atoms: N_10  and  C_11
REMARK    7  A    between atoms: N_14  and  C_15
REMARK    8  A    between atoms: C_15  and  C_17
REMARK    9  A    between atoms: C_15  and  C_20
REMARK   10  A    between atoms: C_17  and  C_18
REMARK   11  A    between atoms: C_17  and  C_19
REMARK   12  A    between atoms: N_22  and  C_23
REMARK   13  A    between atoms: C_23  and  C_25
REMARK   14  A    between atoms: C_23  and  C_32
REMARK   15  A    between atoms: C_25  and  C_26
REMARK   16  A    between atoms: C_32  and  C_33
REMARK   17  A    between atoms: C_33  and  C_35
REMARK   18  A    between atoms: C_33  and  O_54
REMARK   19  A    between atoms: C_35  and  C_37
REMARK   20  A    between atoms: C_35  and  N_44
REMARK   21  A    between atoms: C_37  and  C_38
REMARK   22  A    between atoms: C_45  and  O_47
REMARK   23  A    between atoms: O_47  and  C_48
REMARK   24  A    between atoms: C_48  and  C_49
REMARK                            x       y       z     vdW  Elec       q    Type
REMARK                         _______ _______ _______ _____ _____    ______ ____
ROOT
ATOM      1  C   UNL     1       5.113  -5.405  25.586  0.00  0.00    +0.080 C 
ENDROOT
BRANCH   1   3
ATOM      2  C   UNL     1       3.361  -3.640  25.998  0.00  0.00    +0.234 C 
ATOM      3  N   UNL     1       4.048  -4.784  26.392  0.00  0.00    -0.311 N 
ATOM      4  H   UNL     1       3.450  -5.432  26.891  0.00  0.00    +0.149 HD
ATOM      5  O   UNL     1       3.675  -2.978  25.012  0.00  0.00    -0.274 OA
BRANCH   2   6
ATOM      6  C   UNL     1       2.232  -3.186  26.960  0.00  0.00    +0.163 C 
BRANCH   6   9
ATOM      7  N   UNL     1       3.014   0.389  27.485  0.00  0.00    -0.283 N 
ATOM      8  C   UNL     1       3.220  -0.981  27.513  0.00  0.00    +0.303 C 
ATOM      9  N   UNL     1       2.212  -1.722  26.940  0.00  0.00    -0.288 N 
ATOM     10  H   UNL     1       1.530  -1.268  26.356  0.00  0.00    +0.151 HD
ATOM     11  O   UNL     1       4.196  -1.510  28.016  0.00  0.00    -0.253 OA
ATOM     12  C   UNL     1       1.769   1.003  27.042  0.00  0.00    +0.134 C 
BRANCH   7  13
ATOM     13  C   UNL     1       3.951   1.226  28.238  0.00  0.00    +0.164 C 
BRANCH  13  17
ATOM     14  C   UNL     1       5.816   2.716  25.484  0.00  0.00    +0.081 A 
ATOM     15  S   UNL     1       7.086   3.112  26.575  0.00  0.00    -0.080 S 
ATOM     16  C   UNL     1       6.217   2.370  27.846  0.00  0.00    +0.071 A 
ATOM     17  C   UNL     1       5.019   1.855  27.383  0.00  0.00    +0.066 A 
ATOM     18  N   UNL     1       4.803   2.066  26.020  0.00  0.00    -0.247 NA
BRANCH  14  20
ATOM     19  C   UNL     1       6.865   4.312  23.868  0.00  0.00    +0.014 C 
ATOM     20  C   UNL     1       5.914   3.127  24.035  0.00  0.00    +0.038 C 
ATOM     21  C   UNL     1       6.357   1.950  23.165  0.00  0.00    +0.014 C 
ENDBRANCH  14  20
ENDBRANCH  13  17
ENDBRANCH   7  13
ENDBRANCH   6   9
BRANCH   6  22
ATOM     22  C   UNL     1       0.821  -3.731  26.608  0.00  0.00    +0.012 C 
ATOM     23  C   UNL     1       0.721  -5.233  26.935  0.00  0.00    +0.009 C 
ATOM     24  C   UNL     1       0.459  -3.538  25.134  0.00  0.00    +0.009 C 
ENDBRANCH   6  22
ENDBRANCH   2   6
ENDBRANCH   1   3
BRANCH   1  25
ATOM     25  C   UNL     1       6.456  -5.593  26.329  0.00  0.00    +0.055 C 
BRANCH  25  26
ATOM     26  C   UNL     1       7.222  -4.331  26.731  0.00  0.00    +0.137 C 
BRANCH  26  27
ATOM     27  O   UNL     1       6.395  -3.581  27.634  0.00  0.00    -0.390 OA
ATOM     28  H   UNL     1       7.031  -3.173  28.267  0.00  0.00    +0.210 HD
ENDBRANCH  26  27
BRANCH  26  29
ATOM     29  C   UNL     1       7.573  -3.431  25.522  0.00  0.00    +0.109 C 
BRANCH  29  30
ATOM     30  N   UNL     1       8.166  -2.170  25.995  0.00  0.00    -0.275 N 
ATOM     31  H   UNL     1       9.177  -2.144  26.006  0.00  0.00    +0.152 HD
ATOM     32  C   UNL     1       7.610  -0.943  25.800  0.00  0.00    +0.401 C 
ATOM     33  O   UNL     1       6.447  -0.718  25.499  0.00  0.00    -0.226 OA
BRANCH  32  34
ATOM     34  O   UNL     1       8.562   0.004  25.980  0.00  0.00    -0.445 OA
BRANCH  34  35
ATOM     35  C   UNL     1       9.810  -0.263  25.326  0.00  0.00    +0.278 C 
BRANCH  35  36
ATOM     36  C   UNL     1       9.800   0.365  23.975  0.00  0.00    +0.046 A 
ATOM     37  S   UNL     1      10.180   2.022  23.739  0.00  0.00    -0.077 S 
ATOM     38  C   UNL     1      10.000   1.804  22.049  0.00  0.00    +0.156 A 
ATOM     39  N   UNL     1       9.630   0.606  21.652  0.00  0.00    -0.255 NA
ATOM     40  C   UNL     1       9.538  -0.223  22.753  0.00  0.00    +0.125 A 
ENDBRANCH  35  36
ENDBRANCH  34  35
ENDBRANCH  32  34
ENDBRANCH  29  30
BRANCH  29  41
ATOM     41  C   UNL     1       8.432  -4.177  24.473  0.00  0.00    +0.060 C 
BRANCH  41  42
ATOM     42  C   UNL     1       7.629  -4.535  23.250  0.00  0.00    -0.046 A 
ATOM     43  C   UNL     1       7.622  -5.858  22.788  0.00  0.00    +0.004 A 
ATOM     44  C   UNL     1       6.823  -6.216  21.705  0.00  0.00    +0.000 A 
ATOM     45  C   UNL     1       6.030  -5.256  21.078  0.00  0.00    +0.000 A 
ATOM     46  C   UNL     1       6.046  -3.935  21.523  0.00  0.00    +0.000 A 
ATOM     47  C   UNL     1       6.847  -3.573  22.605  0.00  0.00    +0.004 A 
ENDBRANCH  41  42
ENDBRANCH  29  41
ENDBRANCH  26  29
ENDBRANCH  25  26
ENDBRANCH   1  25
BRANCH   1  48
ATOM     48  C   UNL     1       4.660  -6.791  25.007  0.00  0.00    +0.057 C 
BRANCH  48  49
ATOM     49  C   UNL     1       3.300  -6.885  24.326  0.00  0.00    -0.046 A 
ATOM     50  C   UNL     1       2.382  -7.861  24.752  0.00  0.00    +0.004 A 
ATOM     51  C   UNL     1       1.097  -7.931  24.202  0.00  0.00    +0.000 A 
ATOM     52  C   UNL     1       0.713  -7.038  23.208  0.00  0.00    +0.000 A 
ATOM     53  C   UNL     1       1.627  -6.101  22.737  0.00  0.00    +0.000 A 
ATOM     54  C   UNL     1       2.914  -6.036  23.279  0.00  0.00    +0.004 A 
ENDBRANCH  48  49
ENDBRANCH   1  48
TORSDOF 19
ENDMDL
MODEL 7
REMARK VINA RESULT:      -5.7      1.694      2.276
REMARK  Name = 
REMARK  24 active torsions:
REMARK  status: ('A' for Active; 'I' for Inactive)
REMARK    1  A    between atoms: C_1  and  C_2
REMARK    2  A    between atoms: C_2  and  C_3
REMARK    3  A    between atoms: C_2  and  C_4
REMARK    4  A    between atoms: C_6  and  C_9
REMARK    5  A    between atoms: C_9  and  N_10
REMARK    6  A    between atoms: N_10  and  C_11
REMARK    7  A    between atoms: N_14  and  C_15
REMARK    8  A    between atoms: C_15  and  C_17
REMARK    9  A    between atoms: C_15  and  C_20
REMARK   10  A    between atoms: C_17  and  C_18
REMARK   11  A    between atoms: C_17  and  C_19
REMARK   12  A    between atoms: N_22  and  C_23
REMARK   13  A    between atoms: C_23  and  C_25
REMARK   14  A    between atoms: C_23  and  C_32
REMARK   15  A    between atoms: C_25  and  C_26
REMARK   16  A    between atoms: C_32  and  C_33
REMARK   17  A    between atoms: C_33  and  C_35
REMARK   18  A    between atoms: C_33  and  O_54
REMARK   19  A    between atoms: C_35  and  C_37
REMARK   20  A    between atoms: C_35  and  N_44
REMARK   21  A    between atoms: C_37  and  C_38
REMARK   22  A    between atoms: C_45  and  O_47
REMARK   23  A    between atoms: O_47  and  C_48
REMARK   24  A    between atoms: C_48  and  C_49
REMARK                            x       y       z     vdW  Elec       q    Type
REMARK                         _______ _______ _______ _____ _____    ______ ____
ROOT
ATOM      1  C   UNL     1       6.537  -4.677  26.569  0.00  0.00    +0.080 C 
ENDROOT
BRANCH   1   3
ATOM      2  C   UNL     1       5.671  -2.310  26.641  0.00  0.00    +0.234 C 
ATOM      3  N   UNL     1       6.237  -3.416  27.268  0.00  0.00    -0.311 N 
ATOM      4  H   UNL     1       5.911  -3.518  28.222  0.00  0.00    +0.149 HD
ATOM      5  O   UNL     1       5.499  -2.247  25.426  0.00  0.00    -0.274 OA
BRANCH   2   6
ATOM      6  C   UNL     1       5.376  -1.105  27.571  0.00  0.00    +0.163 C 
BRANCH   6   9
ATOM      7  N   UNL     1       6.527   2.249  26.527  0.00  0.00    -0.283 N 
ATOM      8  C   UNL     1       6.411   1.136  27.343  0.00  0.00    +0.303 C 
ATOM      9  N   UNL     1       5.667   0.110  26.807  0.00  0.00    -0.288 N 
ATOM     10  H   UNL     1       5.451   0.111  25.824  0.00  0.00    +0.151 HD
ATOM     11  O   UNL     1       6.902   1.056  28.455  0.00  0.00    -0.253 OA
ATOM     12  C   UNL     1       5.794   2.407  25.277  0.00  0.00    +0.134 C 
BRANCH   7  13
ATOM     13  C   UNL     1       7.146   3.445  27.104  0.00  0.00    +0.164 C 
BRANCH  13  17
ATOM     14  C   UNL     1       7.511   6.063  24.595  0.00  0.00    +0.081 A 
ATOM     15  S   UNL     1       6.006   6.731  25.092  0.00  0.00    -0.080 S 
ATOM     16  C   UNL     1       5.872   5.521  26.292  0.00  0.00    +0.071 A 
ATOM     17  C   UNL     1       6.971   4.682  26.263  0.00  0.00    +0.066 A 
ATOM     18  N   UNL     1       7.904   5.006  25.277  0.00  0.00    -0.247 NA
BRANCH  14  20
ATOM     19  C   UNL     1       9.737   6.266  23.473  0.00  0.00    +0.014 C 
ATOM     20  C   UNL     1       8.267   6.684  23.446  0.00  0.00    +0.038 C 
ATOM     21  C   UNL     1       7.623   6.313  22.109  0.00  0.00    +0.014 C 
ENDBRANCH  14  20
ENDBRANCH  13  17
ENDBRANCH   7  13
ENDBRANCH   6   9
BRANCH   6  22
ATOM     22  C   UNL     1       3.921  -1.043  28.111  0.00  0.00    +0.012 C 
ATOM     23  C   UNL     1       3.872  -1.474  29.589  0.00  0.00    +0.009 C 
ATOM     24  C   UNL     1       2.955  -1.930  27.324  0.00  0.00    +0.009 C 
ENDBRANCH   6  22
ENDBRANCH   2   6
ENDBRANCH   1   3
BRANCH   1  25
ATOM     25  C   UNL     1       8.044  -4.945  26.344  0.00  0.00    +0.055 C 
BRANCH  25  26
ATOM     26  C   UNL     1       8.513  -5.171  24.905  0.00  0.00    +0.137 C 
BRANCH  26  27
ATOM     27  O   UNL     1       9.889  -4.771  24.821  0.00  0.00    -0.390 OA
ATOM     28  H   UNL     1       9.852  -3.796  24.679  0.00  0.00    +0.210 HD
ENDBRANCH  26  27
BRANCH  26  29
ATOM     29  C   UNL     1       7.698  -4.355  23.873  0.00  0.00    +0.109 C 
BRANCH  29  30
ATOM     30  N   UNL     1       8.561  -3.343  23.244  0.00  0.00    -0.275 N 
ATOM     31  H   UNL     1       9.443  -3.687  22.887  0.00  0.00    +0.152 HD
ATOM     32  C   UNL     1       8.099  -2.265  22.555  0.00  0.00    +0.401 C 
ATOM     33  O   UNL     1       6.966  -1.809  22.604  0.00  0.00    -0.226 OA
BRANCH  32  34
ATOM     34  O   UNL     1       9.098  -1.776  21.781  0.00  0.00    -0.445 OA
BRANCH  34  35
ATOM     35  C   UNL     1      10.254  -1.326  22.501  0.00  0.00    +0.278 C 
BRANCH  35  36
ATOM     36  C   UNL     1      10.004   0.050  23.017  0.00  0.00    +0.046 A 
ATOM     37  S   UNL     1       9.705   0.358  24.678  0.00  0.00    -0.077 S 
ATOM     38  C   UNL     1       9.633   2.036  24.335  0.00  0.00    +0.156 A 
ATOM     39  N   UNL     1       9.765   2.379  23.072  0.00  0.00    -0.255 NA
ATOM     40  C   UNL     1      10.000   1.244  22.321  0.00  0.00    +0.125 A 
ENDBRANCH  35  36
ENDBRANCH  34  35
ENDBRANCH  32  34
ENDBRANCH  29  30
BRANCH  29  41
ATOM     41  C   UNL     1       6.960  -5.267  22.865  0.00  0.00    +0.060 C 
BRANCH  41  42
ATOM     42  C   UNL     1       5.527  -5.499  23.270  0.00  0.00    -0.046 A 
ATOM     43  C   UNL     1       5.156  -6.728  23.832  0.00  0.00    +0.004 A 
ATOM     44  C   UNL     1       3.853  -6.926  24.281  0.00  0.00    +0.000 A 
ATOM     45  C   UNL     1       2.916  -5.900  24.170  0.00  0.00    +0.000 A 
ATOM     46  C   UNL     1       3.275  -4.681  23.597  0.00  0.00    +0.000 A 
ATOM     47  C   UNL     1       4.578  -4.481  23.143  0.00  0.00    +0.004 A 
ENDBRANCH  41  42
ENDBRANCH  29  41
ENDBRANCH  26  29
ENDBRANCH  25  26
ENDBRANCH   1  25
BRANCH   1  48
ATOM     48  C   UNL     1       5.912  -5.909  27.313  0.00  0.00    +0.057 C 
BRANCH  48  49
ATOM     49  C   UNL     1       4.725  -5.673  28.238  0.00  0.00    -0.046 A 
ATOM     50  C   UNL     1       4.951  -5.465  29.610  0.00  0.00    +0.004 A 
ATOM     51  C   UNL     1       3.894  -5.172  30.479  0.00  0.00    +0.000 A 
ATOM     52  C   UNL     1       2.592  -5.098  29.995  0.00  0.00    +0.000 A 
ATOM     53  C   UNL     1       2.344  -5.354  28.651  0.00  0.00    +0.000 A 
ATOM     54  C   UNL     1       3.399  -5.655  27.784  0.00  0.00    +0.004 A 
ENDBRANCH  48  49
ENDBRANCH   1  48
TORSDOF 19
ENDMDL
MODEL 8
REMARK VINA RESULT:      -5.6      2.735      8.163
REMARK  Name = 
REMARK  24 active torsions:
REMARK  status: ('A' for Active; 'I' for Inactive)
REMARK    1  A    between atoms: C_1  and  C_2
REMARK    2  A    between atoms: C_2  and  C_3
REMARK    3  A    between atoms: C_2  and  C_4
REMARK    4  A    between atoms: C_6  and  C_9
REMARK    5  A    between atoms: C_9  and  N_10
REMARK    6  A    between atoms: N_10  and  C_11
REMARK    7  A    between atoms: N_14  and  C_15
REMARK    8  A    between atoms: C_15  and  C_17
REMARK    9  A    between atoms: C_15  and  C_20
REMARK   10  A    between atoms: C_17  and  C_18
REMARK   11  A    between atoms: C_17  and  C_19
REMARK   12  A    between atoms: N_22  and  C_23
REMARK   13  A    between atoms: C_23  and  C_25
REMARK   14  A    between atoms: C_23  and  C_32
REMARK   15  A    between atoms: C_25  and  C_26
REMARK   16  A    between atoms: C_32  and  C_33
REMARK   17  A    between atoms: C_33  and  C_35
REMARK   18  A    between atoms: C_33  and  O_54
REMARK   19  A    between atoms: C_35  and  C_37
REMARK   20  A    between atoms: C_35  and  N_44
REMARK   21  A    between atoms: C_37  and  C_38
REMARK   22  A    between atoms: C_45  and  O_47
REMARK   23  A    between atoms: O_47  and  C_48
REMARK   24  A    between atoms: C_48  and  C_49
REMARK                            x       y       z     vdW  Elec       q    Type
REMARK                         _______ _______ _______ _____ _____    ______ ____
ROOT
ATOM      1  C   UNL     1       9.741   1.831  23.170  0.00  0.00    +0.080 C 
ENDROOT
BRANCH   1   3
ATOM      2  C   UNL     1       7.417   2.675  22.676  0.00  0.00    +0.234 C 
ATOM      3  N   UNL     1       8.419   2.337  23.580  0.00  0.00    -0.311 N 
ATOM      4  H   UNL     1       8.044   1.926  24.426  0.00  0.00    +0.149 HD
ATOM      5  O   UNL     1       7.597   2.707  21.461  0.00  0.00    -0.274 OA
BRANCH   2   6
ATOM      6  C   UNL     1       6.078   3.124  23.317  0.00  0.00    +0.163 C 
BRANCH   6   9
ATOM      7  N   UNL     1       5.071   1.765  26.604  0.00  0.00    -0.283 N 
ATOM      8  C   UNL     1       4.934   2.112  25.269  0.00  0.00    +0.303 C 
ATOM      9  N   UNL     1       6.073   2.629  24.695  0.00  0.00    -0.288 N 
ATOM     10  H   UNL     1       6.958   2.523  25.161  0.00  0.00    +0.151 HD
ATOM     11  O   UNL     1       3.897   1.996  24.641  0.00  0.00    -0.253 OA
ATOM     12  C   UNL     1       6.257   2.068  27.394  0.00  0.00    +0.134 C 
BRANCH   7  13
ATOM     13  C   UNL     1       3.855   1.383  27.327  0.00  0.00    +0.164 C 
BRANCH  13  17
ATOM     14  C   UNL     1       3.483  -2.225  26.977  0.00  0.00    +0.081 A 
ATOM     15  S   UNL     1       3.927  -2.418  28.627  0.00  0.00    -0.080 S 
ATOM     16  C   UNL     1       4.055  -0.721  28.785  0.00  0.00    +0.071 A 
ATOM     17  C   UNL     1       3.748  -0.096  27.590  0.00  0.00    +0.066 A 
ATOM     18  N   UNL     1       3.425  -0.977  26.557  0.00  0.00    -0.247 NA
BRANCH  14  20
ATOM     19  C   UNL     1       3.368  -4.723  26.939  0.00  0.00    +0.014 C 
ATOM     20  C   UNL     1       3.209  -3.440  26.124  0.00  0.00    +0.038 C 
ATOM     21  C   UNL     1       1.815  -3.363  25.500  0.00  0.00    +0.014 C 
ENDBRANCH  14  20
ENDBRANCH  13  17
ENDBRANCH   7  13
ENDBRANCH   6   9
BRANCH   6  22
ATOM     22  C   UNL     1       5.840   4.659  23.314  0.00  0.00    +0.012 C 
ATOM     23  C   UNL     1       6.195   5.265  24.685  0.00  0.00    +0.009 C 
ATOM     24  C   UNL     1       4.394   5.037  22.986  0.00  0.00    +0.009 C 
ENDBRANCH   6  22
ENDBRANCH   2   6
ENDBRANCH   1   3
BRANCH   1  25
ATOM     25  C   UNL     1       9.697   0.639  22.185  0.00  0.00    +0.055 C 
BRANCH  25  26
ATOM     26  C   UNL     1      10.252  -0.700  22.674  0.00  0.00    +0.137 C 
BRANCH  26  27
ATOM     27  O   UNL     1      10.553  -1.501  21.521  0.00  0.00    -0.390 OA
ATOM     28  H   UNL     1      10.713  -2.403  21.884  0.00  0.00    +0.210 HD
ENDBRANCH  26  27
BRANCH  26  29
ATOM     29  C   UNL     1       9.251  -1.475  23.564  0.00  0.00    +0.109 C 
BRANCH  29  30
ATOM     30  N   UNL     1       8.031  -1.775  22.798  0.00  0.00    -0.275 N 
ATOM     31  H   UNL     1       7.999  -2.693  22.375  0.00  0.00    +0.152 HD
ATOM     32  C   UNL     1       6.795  -1.296  23.108  0.00  0.00    +0.401 C 
ATOM     33  O   UNL     1       6.552  -0.346  23.838  0.00  0.00    -0.226 OA
BRANCH  32  34
ATOM     34  O   UNL     1       5.861  -2.055  22.487  0.00  0.00    -0.445 OA
BRANCH  34  35
ATOM     35  C   UNL     1       5.300  -3.102  23.292  0.00  0.00    +0.278 C 
BRANCH  35  36
ATOM     36  C   UNL     1       5.773  -4.419  22.780  0.00  0.00    +0.046 A 
ATOM     37  S   UNL     1       5.058  -5.897  23.278  0.00  0.00    -0.077 S 
ATOM     38  C   UNL     1       6.101  -6.740  22.210  0.00  0.00    +0.156 A 
ATOM     39  N   UNL     1       6.972  -6.010  21.549  0.00  0.00    -0.255 NA
ATOM     40  C   UNL     1       6.769  -4.679  21.859  0.00  0.00    +0.125 A 
ENDBRANCH  35  36
ENDBRANCH  34  35
ENDBRANCH  32  34
ENDBRANCH  29  30
BRANCH  29  41
ATOM     41  C   UNL     1       9.900  -2.714  24.224  0.00  0.00    +0.060 C 
BRANCH  41  42
ATOM     42  C   UNL     1       8.933  -3.435  25.127  0.00  0.00    -0.046 A 
ATOM     43  C   UNL     1       8.168  -2.705  26.047  0.00  0.00    +0.004 A 
ATOM     44  C   UNL     1       7.216  -3.349  26.832  0.00  0.00    +0.000 A 
ATOM     45  C   UNL     1       7.025  -4.725  26.704  0.00  0.00    +0.000 A 
ATOM     46  C   UNL     1       7.794  -5.458  25.803  0.00  0.00    +0.000 A 
ATOM     47  C   UNL     1       8.751  -4.816  25.018  0.00  0.00    +0.004 A 
ENDBRANCH  41  42
ENDBRANCH  29  41
ENDBRANCH  26  29
ENDBRANCH  25  26
ENDBRANCH   1  25
BRANCH   1  48
ATOM     48  C   UNL     1      10.622   2.969  22.544  0.00  0.00    +0.057 C 
BRANCH  48  49
ATOM     49  C   UNL     1      10.868   4.230  23.363  0.00  0.00    -0.046 A 
ATOM     50  C   UNL     1      12.168   4.759  23.439  0.00  0.00    +0.004 A 
ATOM     51  C   UNL     1      12.421   5.956  24.120  0.00  0.00    +0.000 A 
ATOM     52  C   UNL     1      11.383   6.634  24.749  0.00  0.00    +0.000 A 
ATOM     53  C   UNL     1      10.100   6.097  24.729  0.00  0.00    +0.000 A 
ATOM     54  C   UNL     1       9.848   4.897  24.057  0.00  0.00    +0.004 A 
ENDBRANCH  48  49
ENDBRANCH   1  48
TORSDOF 19
ENDMDL
MODEL 9
REMARK VINA RESULT:      -5.6      2.551      5.144
REMARK  Name = 
REMARK  24 active torsions:
REMARK  status: ('A' for Active; 'I' for Inactive)
REMARK    1  A    between atoms: C_1  and  C_2
REMARK    2  A    between atoms: C_2  and  C_3
REMARK    3  A    between atoms: C_2  and  C_4
REMARK    4  A    between atoms: C_6  and  C_9
REMARK    5  A    between atoms: C_9  and  N_10
REMARK    6  A    between atoms: N_10  and  C_11
REMARK    7  A    between atoms: N_14  and  C_15
REMARK    8  A    between atoms: C_15  and  C_17
REMARK    9  A    between atoms: C_15  and  C_20
REMARK   10  A    between atoms: C_17  and  C_18
REMARK   11  A    between atoms: C_17  and  C_19
REMARK   12  A    between atoms: N_22  and  C_23
REMARK   13  A    between atoms: C_23  and  C_25
REMARK   14  A    between atoms: C_23  and  C_32
REMARK   15  A    between atoms: C_25  and  C_26
REMARK   16  A    between atoms: C_32  and  C_33
REMARK   17  A    between atoms: C_33  and  C_35
REMARK   18  A    between atoms: C_33  and  O_54
REMARK   19  A    between atoms: C_35  and  C_37
REMARK   20  A    between atoms: C_35  and  N_44
REMARK   21  A    between atoms: C_37  and  C_38
REMARK   22  A    between atoms: C_45  and  O_47
REMARK   23  A    between atoms: O_47  and  C_48
REMARK   24  A    between atoms: C_48  and  C_49
REMARK                            x       y       z     vdW  Elec       q    Type
REMARK                         _______ _______ _______ _____ _____    ______ ____
ROOT
ATOM      1  C   UNL     1       4.808  -2.117  26.925  0.00  0.00    +0.080 C 
ENDROOT
BRANCH   1   3
ATOM      2  C   UNL     1       3.489  -0.149  27.788  0.00  0.00    +0.234 C 
ATOM      3  N   UNL     1       4.473  -1.118  27.955  0.00  0.00    -0.311 N 
ATOM      4  H   UNL     1       4.518  -1.452  28.910  0.00  0.00    +0.149 HD
ATOM      5  O   UNL     1       2.911   0.039  26.720  0.00  0.00    -0.274 OA
BRANCH   2   6
ATOM      6  C   UNL     1       3.248   0.764  29.019  0.00  0.00    +0.163 C 
BRANCH   6   9
ATOM      7  N   UNL     1       5.218   3.787  28.217  0.00  0.00    -0.283 N 
ATOM      8  C   UNL     1       4.988   2.449  28.498  0.00  0.00    +0.303 C 
ATOM      9  N   UNL     1       3.661   2.116  28.638  0.00  0.00    -0.288 N 
ATOM     10  H   UNL     1       2.950   2.754  28.323  0.00  0.00    +0.151 HD
ATOM     11  O   UNL     1       5.874   1.623  28.632  0.00  0.00    -0.253 OA
ATOM     12  C   UNL     1       4.172   4.801  28.231  0.00  0.00    +0.134 C 
BRANCH   7  13
ATOM     13  C   UNL     1       6.609   4.249  28.237  0.00  0.00    +0.164 C 
BRANCH  13  17
ATOM     14  C   UNL     1       7.326   4.339  24.665  0.00  0.00    +0.081 A 
ATOM     15  S   UNL     1       8.183   5.814  24.887  0.00  0.00    -0.080 S 
ATOM     16  C   UNL     1       7.874   5.733  26.567  0.00  0.00    +0.071 A 
ATOM     17  C   UNL     1       7.149   4.596  26.875  0.00  0.00    +0.066 A 
ATOM     18  N   UNL     1       6.839   3.806  25.767  0.00  0.00    -0.247 NA
BRANCH  14  20
ATOM     19  C   UNL     1       5.897   2.920  23.181  0.00  0.00    +0.014 C 
ATOM     20  C   UNL     1       7.168   3.762  23.279  0.00  0.00    +0.038 C 
ATOM     21  C   UNL     1       7.166   4.872  22.225  0.00  0.00    +0.014 C 
ENDBRANCH  14  20
ENDBRANCH  13  17
ENDBRANCH   7  13
ENDBRANCH   6   9
BRANCH   6  22
ATOM     22  C   UNL     1       1.781   0.792  29.529  0.00  0.00    +0.012 C 
ATOM     23  C   UNL     1       1.151  -0.611  29.447  0.00  0.00    +0.009 C 
ATOM     24  C   UNL     1       0.895   1.759  28.742  0.00  0.00    +0.009 C 
ENDBRANCH   6  22
ENDBRANCH   2   6
ENDBRANCH   1   3
BRANCH   1  25
ATOM     25  C   UNL     1       6.322  -2.388  26.761  0.00  0.00    +0.055 C 
BRANCH  25  26
ATOM     26  C   UNL     1       7.235  -1.182  26.534  0.00  0.00    +0.137 C 
BRANCH  26  27
ATOM     27  O   UNL     1       6.405  -0.053  26.221  0.00  0.00    -0.390 OA
ATOM     28  H   UNL     1       5.658  -0.113  26.861  0.00  0.00    +0.210 HD
ENDBRANCH  26  27
BRANCH  26  29
ATOM     29  C   UNL     1       8.235  -1.395  25.373  0.00  0.00    +0.109 C 
BRANCH  29  30
ATOM     30  N   UNL     1       8.562  -2.824  25.253  0.00  0.00    -0.275 N 
ATOM     31  H   UNL     1       7.807  -3.461  25.468  0.00  0.00    +0.152 HD
ATOM     32  C   UNL     1       9.439  -3.335  24.347  0.00  0.00    +0.401 C 
ATOM     33  O   UNL     1      10.286  -2.707  23.729  0.00  0.00    -0.226 OA
BRANCH  32  34
ATOM     34  O   UNL     1       9.216  -4.665  24.220  0.00  0.00    -0.445 OA
BRANCH  34  35
ATOM     35  C   UNL     1       7.851  -5.069  24.401  0.00  0.00    +0.278 C 
BRANCH  35  36
ATOM     36  C   UNL     1       7.138  -4.985  23.095  0.00  0.00    +0.046 A 
ATOM     37  S   UNL     1       7.118  -6.292  21.984  0.00  0.00    -0.077 S 
ATOM     38  C   UNL     1       6.100  -5.376  20.953  0.00  0.00    +0.156 A 
ATOM     39  N   UNL     1       5.816  -4.155  21.350  0.00  0.00    -0.255 NA
ATOM     40  C   UNL     1       6.392  -3.939  22.586  0.00  0.00    +0.125 A 
ENDBRANCH  35  36
ENDBRANCH  34  35
ENDBRANCH  32  34
ENDBRANCH  29  30
BRANCH  29  41
ATOM     41  C   UNL     1       7.742  -0.749  24.057  0.00  0.00    +0.060 C 
BRANCH  41  42
ATOM     42  C   UNL     1       8.669   0.345  23.593  0.00  0.00    -0.046 A 
ATOM     43  C   UNL     1       9.394   1.085  24.535  0.00  0.00    +0.004 A 
ATOM     44  C   UNL     1      10.311   2.046  24.115  0.00  0.00    +0.000 A 
ATOM     45  C   UNL     1      10.506   2.271  22.753  0.00  0.00    +0.000 A 
ATOM     46  C   UNL     1       9.776   1.549  21.811  0.00  0.00    +0.000 A 
ATOM     47  C   UNL     1       8.854   0.589  22.229  0.00  0.00    +0.004 A 
ENDBRANCH  41  42
ENDBRANCH  29  41
ENDBRANCH  26  29
ENDBRANCH  25  26
ENDBRANCH   1  25
BRANCH   1  48
ATOM     48  C   UNL     1       4.078  -3.480  27.188  0.00  0.00    +0.057 C 
BRANCH  48  49
ATOM     49  C   UNL     1       4.029  -4.506  26.063  0.00  0.00    -0.046 A 
ATOM     50  C   UNL     1       4.654  -5.753  26.240  0.00  0.00    +0.004 A 
ATOM     51  C   UNL     1       4.569  -6.749  25.259  0.00  0.00    +0.000 A 
ATOM     52  C   UNL     1       3.872  -6.509  24.080  0.00  0.00    +0.000 A 
ATOM     53  C   UNL     1       3.293  -5.262  23.865  0.00  0.00    +0.000 A 
ATOM     54  C   UNL     1       3.386  -4.265  24.841  0.00  0.00    +0.004 A 
ENDBRANCH  48  49
ENDBRANCH   1  48
TORSDOF 19
ENDMDL
