MODEL 1
REMARK VINA RESULT:      -6.9      0.000      0.000
REMARK  Name = 
REMARK  2 active torsions:
REMARK  status: ('A' for Active; 'I' for Inactive)
REMARK    1  A    between atoms: C_1  and  C_2
REMARK    2  A    between atoms: N_8  and  C_18
REMARK                            x       y       z     vdW  Elec       q    Type
REMARK                         _______ _______ _______ _____ _____    ______ ____
ROOT
ATOM      1  C   UNL     1      11.026   0.854  24.534  0.00  0.00    +0.046 C 
ATOM      2  C   UNL     1      10.057   0.081  23.690  0.00  0.00    -0.022 A 
ATOM      3  C   UNL     1       9.991   0.304  22.323  0.00  0.00    +0.025 A 
ATOM      4  C   UNL     1       9.660  -0.780  21.534  0.00  0.00    +0.113 A 
ATOM      5  N   UNL     1       9.526  -2.040  22.020  0.00  0.00    -0.236 NA
ATOM      6  C   UNL     1       9.510  -2.204  23.368  0.00  0.00    +0.159 A 
ATOM      7  N   UNL     1       8.984  -3.419  23.925  0.00  0.00    -0.305 N 
ATOM      8  C   UNL     1       7.595  -3.654  23.713  0.00  0.00    +0.148 A 
ATOM      9  N   UNL     1       7.180  -4.944  23.616  0.00  0.00    -0.237 NA
ATOM     10  C   UNL     1       5.950  -5.175  23.123  0.00  0.00    +0.113 A 
ATOM     11  C   UNL     1       5.091  -4.171  22.711  0.00  0.00    +0.021 A 
ATOM     12  C   UNL     1       5.471  -2.847  22.920  0.00  0.00    +0.018 A 
ATOM     13  C   UNL     1       6.708  -2.567  23.491  0.00  0.00    +0.082 A 
ATOM     14  C   UNL     1       7.058  -1.133  23.847  0.00  0.00    +0.260 A 
ATOM     15  N   UNL     1       8.120  -0.904  24.769  0.00  0.00    -0.319 N 
ATOM     16  H   UNL     1       8.045  -1.615  25.486  0.00  0.00    +0.169 HD
ATOM     17  O   UNL     1       6.387  -0.206  23.401  0.00  0.00    -0.267 OA
ATOM     18  C   UNL     1       9.454  -1.071  24.185  0.00  0.00    +0.088 A 
ENDROOT
BRANCH   7  19
ATOM     19  C   UNL     1       9.467  -3.850  25.269  0.00  0.00    +0.091 C 
ATOM     20  C   UNL     1      10.015  -5.228  25.538  0.00  0.00    +0.027 C 
ATOM     21  C   UNL     1       8.686  -4.828  26.105  0.00  0.00    +0.027 C 
ENDBRANCH   7  19
TORSDOF 1
ENDMDL
MODEL 2
REMARK VINA RESULT:      -6.9      2.013      4.945
REMARK  Name = 
REMARK  2 active torsions:
REMARK  status: ('A' for Active; 'I' for Inactive)
REMARK    1  A    between atoms: C_1  and  C_2
REMARK    2  A    between atoms: N_8  and  C_18
REMARK                            x       y       z     vdW  Elec       q    Type
REMARK                         _______ _______ _______ _____ _____    ______ ____
ROOT
ATOM      1  C   UNL     1       7.588  -5.300  25.834  0.00  0.00    +0.046 C 
ATOM      2  C   UNL     1       7.779  -4.456  24.609  0.00  0.00    -0.022 A 
ATOM      3  C   UNL     1       7.683  -5.026  23.348  0.00  0.00    +0.025 A 
ATOM      4  C   UNL     1       7.196  -4.218  22.340  0.00  0.00    +0.113 A 
ATOM      5  N   UNL     1       6.707  -2.971  22.557  0.00  0.00    -0.236 NA
ATOM      6  C   UNL     1       6.899  -2.416  23.781  0.00  0.00    +0.159 A 
ATOM      7  N   UNL     1       6.766  -0.994  23.940  0.00  0.00    -0.305 N 
ATOM      8  C   UNL     1       7.720  -0.196  23.245  0.00  0.00    +0.148 A 
ATOM      9  N   UNL     1       7.326   1.032  22.821  0.00  0.00    -0.237 NA
ATOM     10  C   UNL     1       8.097   1.665  21.918  0.00  0.00    +0.113 A 
ATOM     11  C   UNL     1       9.263   1.130  21.402  0.00  0.00    +0.021 A 
ATOM     12  C   UNL     1       9.727  -0.076  21.923  0.00  0.00    +0.018 A 
ATOM     13  C   UNL     1       8.993  -0.729  22.908  0.00  0.00    +0.082 A 
ATOM     14  C   UNL     1       9.571  -1.965  23.574  0.00  0.00    +0.260 A 
ATOM     15  N   UNL     1       9.021  -2.383  24.820  0.00  0.00    -0.319 N 
ATOM     16  H   UNL     1       8.833  -1.544  25.355  0.00  0.00    +0.169 HD
ATOM     17  O   UNL     1      10.536  -2.538  23.076  0.00  0.00    -0.267 OA
ATOM     18  C   UNL     1       7.731  -3.069  24.695  0.00  0.00    +0.088 A 
ENDROOT
BRANCH   7  19
ATOM     19  C   UNL     1       6.406  -0.463  25.287  0.00  0.00    +0.091 C 
ATOM     20  C   UNL     1       5.088  -0.759  25.956  0.00  0.00    +0.027 C 
ATOM     21  C   UNL     1       5.375   0.622  25.449  0.00  0.00    +0.027 C 
ENDBRANCH   7  19
TORSDOF 1
ENDMDL
MODEL 3
REMARK VINA RESULT:      -6.9      2.199      3.795
REMARK  Name = 
REMARK  2 active torsions:
REMARK  status: ('A' for Active; 'I' for Inactive)
REMARK    1  A    between atoms: C_1  and  C_2
REMARK    2  A    between atoms: N_8  and  C_18
REMARK                            x       y       z     vdW  Elec       q    Type
REMARK                         _______ _______ _______ _____ _____    ______ ____
ROOT
ATOM      1  C   UNL     1      10.462  -1.540  23.056  0.00  0.00    +0.046 C 
ATOM      2  C   UNL     1       9.335  -1.947  23.958  0.00  0.00    -0.022 A 
ATOM      3  C   UNL     1       8.697  -1.001  24.746  0.00  0.00    +0.025 A 
ATOM      4  C   UNL     1       7.356  -1.209  24.998  0.00  0.00    +0.113 A 
ATOM      5  N   UNL     1       6.635  -2.203  24.420  0.00  0.00    -0.236 NA
ATOM      6  C   UNL     1       7.309  -3.158  23.728  0.00  0.00    +0.159 A 
ATOM      7  N   UNL     1       6.666  -4.411  23.446  0.00  0.00    -0.305 N 
ATOM      8  C   UNL     1       6.347  -5.218  24.575  0.00  0.00    +0.148 A 
ATOM      9  N   UNL     1       5.254  -6.019  24.490  0.00  0.00    -0.237 NA
ATOM     10  C   UNL     1       4.770  -6.550  25.628  0.00  0.00    +0.113 A 
ATOM     11  C   UNL     1       5.327  -6.320  26.874  0.00  0.00    +0.021 A 
ATOM     12  C   UNL     1       6.514  -5.594  26.946  0.00  0.00    +0.018 A 
ATOM     13  C   UNL     1       7.084  -5.087  25.783  0.00  0.00    +0.082 A 
ATOM     14  C   UNL     1       8.447  -4.423  25.848  0.00  0.00    +0.260 A 
ATOM     15  N   UNL     1       9.185  -4.271  24.638  0.00  0.00    -0.319 N 
ATOM     16  H   UNL     1       9.043  -5.116  24.099  0.00  0.00    +0.169 HD
ATOM     17  O   UNL     1       8.922  -4.095  26.932  0.00  0.00    -0.267 OA
ATOM     18  C   UNL     1       8.706  -3.176  23.789  0.00  0.00    +0.088 A 
ENDROOT
BRANCH   7  19
ATOM     19  C   UNL     1       7.125  -5.192  22.260  0.00  0.00    +0.091 C 
ATOM     20  C   UNL     1       6.239  -5.474  21.074  0.00  0.00    +0.027 C 
ATOM     21  C   UNL     1       6.625  -6.587  22.001  0.00  0.00    +0.027 C 
ENDBRANCH   7  19
TORSDOF 1
ENDMDL
MODEL 4
REMARK VINA RESULT:      -6.8      1.655      4.887
REMARK  Name = 
REMARK  2 active torsions:
REMARK  status: ('A' for Active; 'I' for Inactive)
REMARK    1  A    between atoms: C_1  and  C_2
REMARK    2  A    between atoms: N_8  and  C_18
REMARK                            x       y       z     vdW  Elec       q    Type
REMARK                         _______ _______ _______ _____ _____    ______ ____
ROOT
ATOM      1  C   UNL     1       6.167  -5.571  27.044  0.00  0.00    +0.046 C 
ATOM      2  C   UNL     1       7.344  -4.858  26.446  0.00  0.00    -0.022 A 
ATOM      3  C   UNL     1       8.633  -5.278  26.736  0.00  0.00    +0.025 A 
ATOM      4  C   UNL     1       9.576  -5.110  25.742  0.00  0.00    +0.113 A 
ATOM      5  N   UNL     1       9.271  -4.679  24.492  0.00  0.00    -0.236 NA
ATOM      6  C   UNL     1       8.022  -4.195  24.273  0.00  0.00    +0.159 A 
ATOM      7  N   UNL     1       7.773  -3.380  23.117  0.00  0.00    -0.305 N 
ATOM      8  C   UNL     1       8.446  -2.124  23.082  0.00  0.00    +0.148 A 
ATOM      9  N   UNL     1       8.783  -1.623  21.866  0.00  0.00    -0.237 NA
ATOM     10  C   UNL     1       9.668  -0.610  21.825  0.00  0.00    +0.113 A 
ATOM     11  C   UNL     1      10.249  -0.058  22.952  0.00  0.00    +0.021 A 
ATOM     12  C   UNL     1       9.815  -0.494  24.203  0.00  0.00    +0.018 A 
ATOM     13  C   UNL     1       8.850  -1.492  24.288  0.00  0.00    +0.082 A 
ATOM     14  C   UNL     1       8.277  -1.862  25.644  0.00  0.00    +0.260 A 
ATOM     15  N   UNL     1       7.043  -2.574  25.687  0.00  0.00    -0.319 N 
ATOM     16  H   UNL     1       6.454  -2.184  24.962  0.00  0.00    +0.169 HD
ATOM     17  O   UNL     1       8.836  -1.489  26.672  0.00  0.00    -0.267 OA
ATOM     18  C   UNL     1       7.173  -3.999  25.366  0.00  0.00    +0.088 A 
ENDROOT
BRANCH   7  19
ATOM     19  C   UNL     1       6.387  -3.334  22.566  0.00  0.00    +0.091 C 
ATOM     20  C   UNL     1       5.567  -4.573  22.313  0.00  0.00    +0.027 C 
ATOM     21  C   UNL     1       6.090  -3.774  21.158  0.00  0.00    +0.027 C 
ENDBRANCH   7  19
TORSDOF 1
ENDMDL
MODEL 5
REMARK VINA RESULT:      -6.5      2.323      3.825
REMARK  Name = 
REMARK  2 active torsions:
REMARK  status: ('A' for Active; 'I' for Inactive)
REMARK    1  A    between atoms: C_1  and  C_2
REMARK    2  A    between atoms: N_8  and  C_18
REMARK                            x       y       z     vdW  Elec       q    Type
REMARK                         _______ _______ _______ _____ _____    ______ ____
ROOT
ATOM      1  C   UNL     1       8.897   2.112  22.055  0.00  0.00    +0.046 C 
ATOM      2  C   UNL     1       9.441   1.054  22.968  0.00  0.00    -0.022 A 
ATOM      3  C   UNL     1      10.671   1.229  23.583  0.00  0.00    +0.025 A 
ATOM      4  C   UNL     1      10.824   0.663  24.833  0.00  0.00    +0.113 A 
ATOM      5  N   UNL     1       9.809   0.070  25.510  0.00  0.00    -0.236 NA
ATOM      6  C   UNL     1       8.648  -0.161  24.844  0.00  0.00    +0.159 A 
ATOM      7  N   UNL     1       7.712  -1.116  25.368  0.00  0.00    -0.305 N 
ATOM      8  C   UNL     1       8.154  -2.470  25.405  0.00  0.00    +0.148 A 
ATOM      9  N   UNL     1       7.669  -3.265  26.394  0.00  0.00    -0.237 NA
ATOM     10  C   UNL     1       8.293  -4.435  26.624  0.00  0.00    +0.113 A 
ATOM     11  C   UNL     1       9.396  -4.865  25.910  0.00  0.00    +0.021 A 
ATOM     12  C   UNL     1       9.820  -4.104  24.821  0.00  0.00    +0.018 A 
ATOM     13  C   UNL     1       9.158  -2.922  24.508  0.00  0.00    +0.082 A 
ATOM     14  C   UNL     1       9.530  -2.172  23.242  0.00  0.00    +0.260 A 
ATOM     15  N   UNL     1       8.610  -1.213  22.728  0.00  0.00    -0.319 N 
ATOM     16  H   UNL     1       7.682  -1.600  22.850  0.00  0.00    +0.169 HD
ATOM     17  O   UNL     1      10.567  -2.447  22.645  0.00  0.00    -0.267 OA
ATOM     18  C   UNL     1       8.609   0.056  23.463  0.00  0.00    +0.088 A 
ENDROOT
BRANCH   7  19
ATOM     19  C   UNL     1       6.271  -0.964  25.011  0.00  0.00    +0.091 C 
ATOM     20  C   UNL     1       5.483   0.287  25.307  0.00  0.00    +0.027 C 
ATOM     21  C   UNL     1       5.198  -0.974  26.067  0.00  0.00    +0.027 C 
ENDBRANCH   7  19
TORSDOF 1
ENDMDL
MODEL 6
REMARK VINA RESULT:      -6.5      2.105      3.253
REMARK  Name = 
REMARK  2 active torsions:
REMARK  status: ('A' for Active; 'I' for Inactive)
REMARK    1  A    between atoms: C_1  and  C_2
REMARK    2  A    between atoms: N_8  and  C_18
REMARK                            x       y       z     vdW  Elec       q    Type
REMARK                         _______ _______ _______ _____ _____    ______ ____
ROOT
ATOM      1  C   UNL     1       8.353   1.480  21.516  0.00  0.00    +0.046 C 
ATOM      2  C   UNL     1       8.566   0.099  22.061  0.00  0.00    -0.022 A 
ATOM      3  C   UNL     1       9.670  -0.643  21.670  0.00  0.00    +0.025 A 
ATOM      4  C   UNL     1      10.193  -1.514  22.604  0.00  0.00    +0.113 A 
ATOM      5  N   UNL     1       9.758  -1.577  23.888  0.00  0.00    -0.236 NA
ATOM      6  C   UNL     1       8.623  -0.904  24.209  0.00  0.00    +0.159 A 
ATOM      7  N   UNL     1       7.915  -1.248  25.411  0.00  0.00    -0.305 N 
ATOM      8  C   UNL     1       7.350  -2.556  25.451  0.00  0.00    +0.148 A 
ATOM      9  N   UNL     1       7.254  -3.165  26.660  0.00  0.00    -0.237 NA
ATOM     10  C   UNL     1       7.011  -4.488  26.682  0.00  0.00    +0.113 A 
ATOM     11  C   UNL     1       6.855  -5.255  25.541  0.00  0.00    +0.021 A 
ATOM     12  C   UNL     1       6.838  -4.609  24.306  0.00  0.00    +0.018 A 
ATOM     13  C   UNL     1       7.017  -3.231  24.246  0.00  0.00    +0.082 A 
ATOM     14  C   UNL     1       6.855  -2.515  22.918  0.00  0.00    +0.260 A 
ATOM     15  N   UNL     1       6.646  -1.105  22.929  0.00  0.00    -0.319 N 
ATOM     16  H   UNL     1       6.030  -0.906  23.707  0.00  0.00    +0.169 HD
ATOM     17  O   UNL     1       6.833  -3.156  21.870  0.00  0.00    -0.267 OA
ATOM     18  C   UNL     1       7.866  -0.331  23.183  0.00  0.00    +0.088 A 
ENDROOT
BRANCH   7  19
ATOM     19  C   UNL     1       7.063  -0.206  26.054  0.00  0.00    +0.091 C 
ATOM     20  C   UNL     1       7.564   1.181  26.365  0.00  0.00    +0.027 C 
ATOM     21  C   UNL     1       7.289   0.218  27.480  0.00  0.00    +0.027 C 
ENDBRANCH   7  19
TORSDOF 1
ENDMDL
MODEL 7
REMARK VINA RESULT:      -6.3      2.998      5.774
REMARK  Name = 
REMARK  2 active torsions:
REMARK  status: ('A' for Active; 'I' for Inactive)
REMARK    1  A    between atoms: C_1  and  C_2
REMARK    2  A    between atoms: N_8  and  C_18
REMARK                            x       y       z     vdW  Elec       q    Type
REMARK                         _______ _______ _______ _____ _____    ______ ____
ROOT
ATOM      1  C   UNL     1       9.468  -3.017  24.229  0.00  0.00    +0.046 C 
ATOM      2  C   UNL     1       9.553  -1.648  23.624  0.00  0.00    -0.022 A 
ATOM      3  C   UNL     1       9.951  -1.492  22.304  0.00  0.00    +0.025 A 
ATOM      4  C   UNL     1       9.400  -0.433  21.612  0.00  0.00    +0.113 A 
ATOM      5  N   UNL     1       8.422   0.359  22.120  0.00  0.00    -0.236 NA
ATOM      6  C   UNL     1       8.121   0.234  23.439  0.00  0.00    +0.159 A 
ATOM      7  N   UNL     1       7.404   1.287  24.102  0.00  0.00    -0.305 N 
ATOM      8  C   UNL     1       8.081   2.537  24.204  0.00  0.00    +0.148 A 
ATOM      9  N   UNL     1       7.325   3.665  24.206  0.00  0.00    -0.237 NA
ATOM     10  C   UNL     1       7.947   4.840  23.999  0.00  0.00    +0.113 A 
ATOM     11  C   UNL     1       9.309   4.956  23.785  0.00  0.00    +0.021 A 
ATOM     12  C   UNL     1      10.098   3.813  23.899  0.00  0.00    +0.018 A 
ATOM     13  C   UNL     1       9.500   2.589  24.181  0.00  0.00    +0.082 A 
ATOM     14  C   UNL     1      10.374   1.376  24.446  0.00  0.00    +0.260 A 
ATOM     15  N   UNL     1       9.794   0.255  25.109  0.00  0.00    -0.319 N 
ATOM     16  H   UNL     1       9.182   0.623  25.827  0.00  0.00    +0.169 HD
ATOM     17  O   UNL     1      11.567   1.400  24.156  0.00  0.00    -0.267 OA
ATOM     18  C   UNL     1       8.940  -0.564  24.244  0.00  0.00    +0.088 A 
ENDROOT
BRANCH   7  19
ATOM     19  C   UNL     1       6.595   0.942  25.308  0.00  0.00    +0.091 C 
ATOM     20  C   UNL     1       5.525  -0.120  25.297  0.00  0.00    +0.027 C 
ATOM     21  C   UNL     1       5.143   1.325  25.410  0.00  0.00    +0.027 C 
ENDBRANCH   7  19
TORSDOF 1
ENDMDL
MODEL 8
REMARK VINA RESULT:      -6.1      3.598      4.994
REMARK  Name = 
REMARK  2 active torsions:
REMARK  status: ('A' for Active; 'I' for Inactive)
REMARK    1  A    between atoms: C_1  and  C_2
REMARK    2  A    between atoms: N_8  and  C_18
REMARK                            x       y       z     vdW  Elec       q    Type
REMARK                         _______ _______ _______ _____ _____    ______ ____
ROOT
ATOM      1  C   UNL     1       9.407  -4.781  26.123  0.00  0.00    +0.046 C 
ATOM      2  C   UNL     1       7.974  -4.346  26.048  0.00  0.00    -0.022 A 
ATOM      3  C   UNL     1       7.596  -3.104  26.537  0.00  0.00    +0.025 A 
ATOM      4  C   UNL     1       6.548  -2.478  25.894  0.00  0.00    +0.113 A 
ATOM      5  N   UNL     1       5.976  -2.960  24.762  0.00  0.00    -0.236 NA
ATOM      6  C   UNL     1       6.309  -4.215  24.364  0.00  0.00    +0.159 A 
ATOM      7  N   UNL     1       5.463  -4.908  23.433  0.00  0.00    -0.305 N 
ATOM      8  C   UNL     1       4.152  -5.224  23.894  0.00  0.00    +0.148 A 
ATOM      9  N   UNL     1       3.154  -5.267  22.975  0.00  0.00    -0.237 NA
ATOM     10  C   UNL     1       1.885  -5.263  23.422  0.00  0.00    +0.113 A 
ATOM     11  C   UNL     1       1.548  -5.215  24.762  0.00  0.00    +0.021 A 
ATOM     12  C   UNL     1       2.571  -5.287  25.706  0.00  0.00    +0.018 A 
ATOM     13  C   UNL     1       3.894  -5.363  25.284  0.00  0.00    +0.082 A 
ATOM     14  C   UNL     1       4.993  -5.586  26.307  0.00  0.00    +0.260 A 
ATOM     15  N   UNL     1       6.260  -6.052  25.851  0.00  0.00    -0.319 N 
ATOM     16  H   UNL     1       6.078  -6.734  25.125  0.00  0.00    +0.169 HD
ATOM     17  O   UNL     1       4.761  -5.435  27.504  0.00  0.00    -0.267 OA
ATOM     18  C   UNL     1       7.077  -5.011  25.219  0.00  0.00    +0.088 A 
ENDROOT
BRANCH   7  19
ATOM     19  C   UNL     1       6.071  -5.971  22.579  0.00  0.00    +0.091 C 
ATOM     20  C   UNL     1       7.361  -5.774  21.825  0.00  0.00    +0.027 C 
ATOM     21  C   UNL     1       6.065  -5.866  21.078  0.00  0.00    +0.027 C 
ENDBRANCH   7  19
TORSDOF 1
ENDMDL
MODEL 9
REMARK VINA RESULT:      -6.1      2.300      3.720
REMARK  Name = 
REMARK  2 active torsions:
REMARK  status: ('A' for Active; 'I' for Inactive)
REMARK    1  A    between atoms: C_1  and  C_2
REMARK    2  A    between atoms: N_8  and  C_18
REMARK                            x       y       z     vdW  Elec       q    Type
REMARK                         _______ _______ _______ _____ _____    ______ ____
ROOT
ATOM      1  C   UNL     1       9.377   3.838  23.859  0.00  0.00    +0.046 C 
ATOM      2  C   UNL     1       9.518   2.345  23.865  0.00  0.00    -0.022 A 
ATOM      3  C   UNL     1      10.741   1.761  24.160  0.00  0.00    +0.025 A 
ATOM      4  C   UNL     1      10.705   0.540  24.800  0.00  0.00    +0.113 A 
ATOM      5  N   UNL     1       9.559  -0.032  25.249  0.00  0.00    -0.236 NA
ATOM      6  C   UNL     1       8.379   0.521  24.866  0.00  0.00    +0.159 A 
ATOM      7  N   UNL     1       7.171  -0.248  24.972  0.00  0.00    -0.305 N 
ATOM      8  C   UNL     1       7.090  -1.402  24.141  0.00  0.00    +0.148 A 
ATOM      9  N   UNL     1       6.371  -2.459  24.597  0.00  0.00    -0.237 NA
ATOM     10  C   UNL     1       6.530  -3.644  23.979  0.00  0.00    +0.113 A 
ATOM     11  C   UNL     1       7.384  -3.838  22.909  0.00  0.00    +0.021 A 
ATOM     12  C   UNL     1       8.032  -2.728  22.368  0.00  0.00    +0.018 A 
ATOM     13  C   UNL     1       7.840  -1.474  22.936  0.00  0.00    +0.082 A 
ATOM     14  C   UNL     1       8.431  -0.250  22.260  0.00  0.00    +0.260 A 
ATOM     15  N   UNL     1       7.913   1.032  22.606  0.00  0.00    -0.319 N 
ATOM     16  H   UNL     1       6.911   0.926  22.708  0.00  0.00    +0.169 HD
ATOM     17  O   UNL     1       9.283  -0.380  21.386  0.00  0.00    -0.267 OA
ATOM     18  C   UNL     1       8.391   1.531  23.899  0.00  0.00    +0.088 A 
ENDROOT
BRANCH   7  19
ATOM     19  C   UNL     1       5.877   0.481  25.115  0.00  0.00    +0.091 C 
ATOM     20  C   UNL     1       5.553   1.343  26.308  0.00  0.00    +0.027 C 
ATOM     21  C   UNL     1       4.837   0.041  26.111  0.00  0.00    +0.027 C 
ENDBRANCH   7  19
TORSDOF 1
ENDMDL
