MODEL 1
REMARK VINA RESULT:      -7.1      0.000      0.000
REMARK  Name = 
REMARK  15 active torsions:
REMARK  status: ('A' for Active; 'I' for Inactive)
REMARK    1  A    between atoms: C_1  and  C_2
REMARK    2  A    between atoms: C_2  and  C_3
REMARK    3  A    between atoms: C_3  and  C_4
REMARK    4  A    between atoms: C_4  and  C_36
REMARK    5  A    between atoms: C_6  and  O_35
REMARK    6  A    between atoms: C_7  and  C_11
REMARK    7  A    between atoms: C_11  and  C_13
REMARK    8  A    between atoms: C_11  and  C_15
REMARK    9  A    between atoms: C_13  and  C_14
REMARK   10  A    between atoms: C_17  and  N_21
REMARK   11  A    between atoms: N_21  and  S_22
REMARK   12  A    between atoms: S_22  and  C_25
REMARK   13  A    between atoms: C_28  and  C_31
REMARK   14  A    between atoms: C_36  and  C_37
REMARK   15  A    between atoms: C_37  and  C_38
REMARK                            x       y       z     vdW  Elec       q    Type
REMARK                         _______ _______ _______ _____ _____    ______ ____
ROOT
ATOM      1  C   UNL     1       7.932  -0.531  26.603  0.00  0.00    +0.059 C 
ENDROOT
BRANCH   1   6
ATOM      2  C   UNL     1       8.451   0.736  22.383  0.00  0.00    +0.121 C 
ATOM      3  O   UNL     1       7.383  -0.055  22.959  0.00  0.00    -0.454 OA
ATOM      4  C   UNL     1       7.014   0.179  24.239  0.00  0.00    +0.339 C 
ATOM      5  O   UNL     1       5.845   0.348  24.539  0.00  0.00    -0.245 OA
ATOM      6  C   UNL     1       8.139   0.087  25.209  0.00  0.00    +0.081 C 
ATOM      7  C   UNL     1       9.275   0.674  24.787  0.00  0.00    +0.108 C 
ATOM      8  C   UNL     1       9.365   1.363  23.459  0.00  0.00    +0.122 C 
BRANCH   7   9
ATOM      9  O   UNL     1      10.394   0.736  25.592  0.00  0.00    -0.510 OA
ATOM     10  H   UNL     1      10.153   0.657  26.531  0.00  0.00    +0.292 HD
ENDBRANCH   7   9
BRANCH   2  11
ATOM     11  C   UNL     1       9.224  -0.233  21.448  0.00  0.00    +0.048 C 
BRANCH  11  13
ATOM     12  C   UNL     1      10.215  -2.082  22.880  0.00  0.00    +0.004 C 
ATOM     13  C   UNL     1       9.135  -1.707  21.879  0.00  0.00    +0.000 C 
ENDBRANCH  11  13
ENDBRANCH   2  11
BRANCH   2  14
ATOM     14  C   UNL     1       7.719   1.845  21.577  0.00  0.00    +0.053 C 
BRANCH  14  15
ATOM     15  C   UNL     1       7.688   3.243  22.201  0.00  0.00    +0.039 C 
BRANCH  15  16
ATOM     16  C   UNL     1       6.441   3.434  23.035  0.00  0.00    -0.047 A 
ATOM     17  C   UNL     1       5.178   3.159  22.494  0.00  0.00    +0.003 A 
ATOM     18  C   UNL     1       4.027   3.297  23.273  0.00  0.00    +0.000 A 
ATOM     19  C   UNL     1       4.125   3.706  24.601  0.00  0.00    +0.000 A 
ATOM     20  C   UNL     1       5.375   3.979  25.152  0.00  0.00    +0.000 A 
ATOM     21  C   UNL     1       6.527   3.842  24.372  0.00  0.00    +0.003 A 
ENDBRANCH  15  16
ENDBRANCH  14  15
ENDBRANCH   2  14
ENDBRANCH   1   6
BRANCH   1  22
ATOM     22  C   UNL     1       7.653  -2.041  26.521  0.00  0.00    -0.038 A 
ATOM     23  C   UNL     1       8.647  -2.947  26.119  0.00  0.00    +0.004 A 
ATOM     24  C   UNL     1       8.428  -4.326  26.206  0.00  0.00    +0.002 A 
ATOM     25  C   UNL     1       7.210  -4.822  26.678  0.00  0.00    +0.024 A 
ATOM     26  C   UNL     1       6.193  -3.938  27.036  0.00  0.00    +0.048 A 
ATOM     27  C   UNL     1       6.414  -2.560  26.964  0.00  0.00    +0.028 A 
BRANCH  26  28
ATOM     28  N   UNL     1       4.961  -4.439  27.562  0.00  0.00    -0.215 N 
ATOM     29  H   UNL     1       4.681  -4.075  28.476  0.00  0.00    +0.174 HD
BRANCH  28  30
ATOM     30  S   UNL     1       3.620  -4.388  26.506  0.00  0.00    +0.090 S 
ATOM     31  O   UNL     1       3.057  -3.052  26.524  0.00  0.00    -0.148 OA
ATOM     32  O   UNL     1       2.802  -5.561  26.744  0.00  0.00    -0.148 OA
BRANCH  30  33
ATOM     33  C   UNL     1       4.368  -4.627  24.888  0.00  0.00    +0.197 A 
ATOM     34  C   UNL     1       4.606  -3.532  24.071  0.00  0.00    +0.050 A 
ATOM     35  C   UNL     1       5.197  -3.771  22.833  0.00  0.00    +0.017 A 
ATOM     36  C   UNL     1       5.536  -5.082  22.463  0.00  0.00    +0.073 A 
ATOM     37  C   UNL     1       5.241  -6.108  23.357  0.00  0.00    +0.125 A 
ATOM     38  N   UNL     1       4.648  -5.921  24.562  0.00  0.00    -0.235 NA
BRANCH  36  39
ATOM     39  C   UNL     1       6.197  -5.374  21.147  0.00  0.00    +0.419 C 
ATOM     40  F   UNL     1       5.660  -6.459  20.527  0.00  0.00    -0.166 F 
ATOM     41  F   UNL     1       7.525  -5.639  21.279  0.00  0.00    -0.166 F 
ATOM     42  F   UNL     1       6.107  -4.351  20.253  0.00  0.00    -0.166 F 
ENDBRANCH  36  39
ENDBRANCH  30  33
ENDBRANCH  28  30
ENDBRANCH  26  28
ENDBRANCH   1  22
BRANCH   1  43
ATOM     43  C   UNL     1       6.889   0.218  27.476  0.00  0.00    +0.010 C 
ATOM     44  C   UNL     1       7.085   1.718  27.626  0.00  0.00    +0.005 C 
ENDBRANCH   1  43
TORSDOF 13
ENDMDL
MODEL 2
REMARK VINA RESULT:      -7.0      1.535      3.162
REMARK  Name = 
REMARK  15 active torsions:
REMARK  status: ('A' for Active; 'I' for Inactive)
REMARK    1  A    between atoms: C_1  and  C_2
REMARK    2  A    between atoms: C_2  and  C_3
REMARK    3  A    between atoms: C_3  and  C_4
REMARK    4  A    between atoms: C_4  and  C_36
REMARK    5  A    between atoms: C_6  and  O_35
REMARK    6  A    between atoms: C_7  and  C_11
REMARK    7  A    between atoms: C_11  and  C_13
REMARK    8  A    between atoms: C_11  and  C_15
REMARK    9  A    between atoms: C_13  and  C_14
REMARK   10  A    between atoms: C_17  and  N_21
REMARK   11  A    between atoms: N_21  and  S_22
REMARK   12  A    between atoms: S_22  and  C_25
REMARK   13  A    between atoms: C_28  and  C_31
REMARK   14  A    between atoms: C_36  and  C_37
REMARK   15  A    between atoms: C_37  and  C_38
REMARK                            x       y       z     vdW  Elec       q    Type
REMARK                         _______ _______ _______ _____ _____    ______ ____
ROOT
ATOM      1  C   UNL     1       6.675   0.655  27.133  0.00  0.00    +0.059 C 
ENDROOT
BRANCH   1   6
ATOM      2  C   UNL     1       8.617  -2.083  24.233  0.00  0.00    +0.121 C 
ATOM      3  O   UNL     1       7.249  -1.605  24.241  0.00  0.00    -0.454 OA
ATOM      4  C   UNL     1       6.992  -0.371  24.729  0.00  0.00    +0.339 C 
ATOM      5  O   UNL     1       6.327   0.433  24.097  0.00  0.00    -0.245 OA
ATOM      6  C   UNL     1       7.489  -0.163  26.116  0.00  0.00    +0.081 C 
ATOM      7  C   UNL     1       8.722  -0.657  26.335  0.00  0.00    +0.108 C 
ATOM      8  C   UNL     1       9.505  -1.341  25.256  0.00  0.00    +0.122 C 
BRANCH   7   9
ATOM      9  O   UNL     1       9.357  -0.492  27.549  0.00  0.00    -0.510 OA
ATOM     10  H   UNL     1       8.943   0.219  28.065  0.00  0.00    +0.292 HD
ENDBRANCH   7   9
BRANCH   2  11
ATOM     11  C   UNL     1       8.525  -3.605  24.531  0.00  0.00    +0.048 C 
BRANCH  11  13
ATOM     12  C   UNL     1       7.793  -5.360  26.216  0.00  0.00    +0.004 C 
ATOM     13  C   UNL     1       7.581  -3.947  25.697  0.00  0.00    +0.000 C 
ENDBRANCH  11  13
ENDBRANCH   2  11
BRANCH   2  14
ATOM     14  C   UNL     1       9.112  -1.814  22.785  0.00  0.00    +0.053 C 
BRANCH  14  15
ATOM     15  C   UNL     1      10.201  -0.751  22.615  0.00  0.00    +0.039 C 
BRANCH  15  16
ATOM     16  C   UNL     1       9.598   0.636  22.571  0.00  0.00    -0.047 A 
ATOM     17  C   UNL     1       8.638   0.961  21.604  0.00  0.00    +0.003 A 
ATOM     18  C   UNL     1       8.051   2.227  21.585  0.00  0.00    +0.000 A 
ATOM     19  C   UNL     1       8.413   3.182  22.533  0.00  0.00    +0.000 A 
ATOM     20  C   UNL     1       9.363   2.870  23.502  0.00  0.00    +0.000 A 
ATOM     21  C   UNL     1       9.952   1.602  23.522  0.00  0.00    +0.003 A 
ENDBRANCH  15  16
ENDBRANCH  14  15
ENDBRANCH   2  14
ENDBRANCH   1   6
BRANCH   1  22
ATOM     22  C   UNL     1       5.556  -0.184  27.774  0.00  0.00    -0.038 A 
ATOM     23  C   UNL     1       4.621   0.391  28.649  0.00  0.00    +0.004 A 
ATOM     24  C   UNL     1       3.518  -0.345  29.093  0.00  0.00    +0.002 A 
ATOM     25  C   UNL     1       3.339  -1.670  28.686  0.00  0.00    +0.024 A 
ATOM     26  C   UNL     1       4.282  -2.274  27.856  0.00  0.00    +0.048 A 
ATOM     27  C   UNL     1       5.378  -1.535  27.399  0.00  0.00    +0.028 A 
BRANCH  26  28
ATOM     28  N   UNL     1       4.080  -3.614  27.400  0.00  0.00    -0.215 N 
ATOM     29  H   UNL     1       3.881  -4.310  28.122  0.00  0.00    +0.174 HD
BRANCH  28  30
ATOM     30  S   UNL     1       2.970  -3.808  26.116  0.00  0.00    +0.090 S 
ATOM     31  O   UNL     1       2.461  -2.505  25.733  0.00  0.00    -0.148 OA
ATOM     32  O   UNL     1       2.081  -4.907  26.439  0.00  0.00    -0.148 OA
BRANCH  30  33
ATOM     33  C   UNL     1       4.008  -4.390  24.767  0.00  0.00    +0.197 A 
ATOM     34  C   UNL     1       4.426  -3.502  23.788  0.00  0.00    +0.050 A 
ATOM     35  C   UNL     1       5.236  -4.002  22.771  0.00  0.00    +0.017 A 
ATOM     36  C   UNL     1       5.604  -5.356  22.776  0.00  0.00    +0.073 A 
ATOM     37  C   UNL     1       5.118  -6.160  23.803  0.00  0.00    +0.125 A 
ATOM     38  N   UNL     1       4.311  -5.719  24.799  0.00  0.00    -0.235 NA
BRANCH  36  39
ATOM     39  C   UNL     1       6.497  -5.924  21.711  0.00  0.00    +0.419 C 
ATOM     40  F   UNL     1       6.865  -7.208  21.972  0.00  0.00    -0.166 F 
ATOM     41  F   UNL     1       7.656  -5.225  21.573  0.00  0.00    -0.166 F 
ATOM     42  F   UNL     1       5.925  -5.945  20.475  0.00  0.00    -0.166 F 
ENDBRANCH  36  39
ENDBRANCH  30  33
ENDBRANCH  28  30
ENDBRANCH  26  28
ENDBRANCH   1  22
BRANCH   1  43
ATOM     43  C   UNL     1       6.156   2.010  26.582  0.00  0.00    +0.010 C 
ATOM     44  C   UNL     1       7.179   3.129  26.468  0.00  0.00    +0.005 C 
ENDBRANCH   1  43
TORSDOF 13
ENDMDL
MODEL 3
REMARK VINA RESULT:      -7.0      1.451      3.649
REMARK  Name = 
REMARK  15 active torsions:
REMARK  status: ('A' for Active; 'I' for Inactive)
REMARK    1  A    between atoms: C_1  and  C_2
REMARK    2  A    between atoms: C_2  and  C_3
REMARK    3  A    between atoms: C_3  and  C_4
REMARK    4  A    between atoms: C_4  and  C_36
REMARK    5  A    between atoms: C_6  and  O_35
REMARK    6  A    between atoms: C_7  and  C_11
REMARK    7  A    between atoms: C_11  and  C_13
REMARK    8  A    between atoms: C_11  and  C_15
REMARK    9  A    between atoms: C_13  and  C_14
REMARK   10  A    between atoms: C_17  and  N_21
REMARK   11  A    between atoms: N_21  and  S_22
REMARK   12  A    between atoms: S_22  and  C_25
REMARK   13  A    between atoms: C_28  and  C_31
REMARK   14  A    between atoms: C_36  and  C_37
REMARK   15  A    between atoms: C_37  and  C_38
REMARK                            x       y       z     vdW  Elec       q    Type
REMARK                         _______ _______ _______ _____ _____    ______ ____
ROOT
ATOM      1  C   UNL     1       6.887   0.291  26.922  0.00  0.00    +0.059 C 
ENDROOT
BRANCH   1   6
ATOM      2  C   UNL     1       8.170   2.547  23.324  0.00  0.00    +0.121 C 
ATOM      3  O   UNL     1       8.932   2.256  24.522  0.00  0.00    -0.454 OA
ATOM      4  C   UNL     1       8.691   1.102  25.184  0.00  0.00    +0.339 C 
ATOM      5  O   UNL     1       9.599   0.353  25.500  0.00  0.00    -0.245 OA
ATOM      6  C   UNL     1       7.265   0.924  25.571  0.00  0.00    +0.081 C 
ATOM      7  C   UNL     1       6.389   1.264  24.607  0.00  0.00    +0.108 C 
ATOM      8  C   UNL     1       6.840   1.763  23.268  0.00  0.00    +0.122 C 
BRANCH   7   9
ATOM      9  O   UNL     1       5.031   1.098  24.780  0.00  0.00    -0.510 OA
ATOM     10  H   UNL     1       4.842   0.571  25.574  0.00  0.00    +0.292 HD
ENDBRANCH   7   9
BRANCH   2  11
ATOM     11  C   UNL     1       7.946   4.084  23.340  0.00  0.00    +0.048 C 
BRANCH  11  13
ATOM     12  C   UNL     1       7.264   6.051  21.884  0.00  0.00    +0.004 C 
ATOM     13  C   UNL     1       7.032   4.584  22.208  0.00  0.00    +0.000 C 
ENDBRANCH  11  13
ENDBRANCH   2  11
BRANCH   2  14
ATOM     14  C   UNL     1       9.104   2.118  22.159  0.00  0.00    +0.053 C 
BRANCH  14  15
ATOM     15  C   UNL     1       8.667   0.901  21.337  0.00  0.00    +0.039 C 
BRANCH  15  16
ATOM     16  C   UNL     1       9.022  -0.386  22.050  0.00  0.00    -0.047 A 
ATOM     17  C   UNL     1      10.355  -0.671  22.373  0.00  0.00    +0.003 A 
ATOM     18  C   UNL     1      10.682  -1.839  23.066  0.00  0.00    +0.000 A 
ATOM     19  C   UNL     1       9.682  -2.732  23.445  0.00  0.00    +0.000 A 
ATOM     20  C   UNL     1       8.353  -2.457  23.132  0.00  0.00    +0.000 A 
ATOM     21  C   UNL     1       8.025  -1.289  22.439  0.00  0.00    +0.003 A 
ENDBRANCH  15  16
ENDBRANCH  14  15
ENDBRANCH   2  14
ENDBRANCH   1   6
BRANCH   1  22
ATOM     22  C   UNL     1       6.673  -1.228  26.799  0.00  0.00    -0.038 A 
ATOM     23  C   UNL     1       7.750  -2.102  26.585  0.00  0.00    +0.004 A 
ATOM     24  C   UNL     1       7.562  -3.487  26.639  0.00  0.00    +0.002 A 
ATOM     25  C   UNL     1       6.295  -4.021  26.889  0.00  0.00    +0.024 A 
ATOM     26  C   UNL     1       5.203  -3.169  27.054  0.00  0.00    +0.048 A 
ATOM     27  C   UNL     1       5.392  -1.785  27.017  0.00  0.00    +0.028 A 
BRANCH  26  28
ATOM     28  N   UNL     1       3.914  -3.709  27.355  0.00  0.00    -0.215 N 
ATOM     29  H   UNL     1       3.422  -3.284  28.145  0.00  0.00    +0.174 HD
BRANCH  28  30
ATOM     30  S   UNL     1       2.836  -3.850  26.038  0.00  0.00    +0.090 S 
ATOM     31  O   UNL     1       2.368  -2.529  25.667  0.00  0.00    -0.148 OA
ATOM     32  O   UNL     1       1.913  -4.934  26.313  0.00  0.00    -0.148 OA
BRANCH  30  33
ATOM     33  C   UNL     1       3.897  -4.430  24.706  0.00  0.00    +0.197 A 
ATOM     34  C   UNL     1       4.361  -3.534  23.756  0.00  0.00    +0.050 A 
ATOM     35  C   UNL     1       5.188  -4.034  22.752  0.00  0.00    +0.017 A 
ATOM     36  C   UNL     1       5.526  -5.395  22.741  0.00  0.00    +0.073 A 
ATOM     37  C   UNL     1       4.994  -6.207  23.739  0.00  0.00    +0.125 A 
ATOM     38  N   UNL     1       4.170  -5.767  24.721  0.00  0.00    -0.235 NA
BRANCH  36  39
ATOM     39  C   UNL     1       6.435  -5.964  21.690  0.00  0.00    +0.419 C 
ATOM     40  F   UNL     1       6.866  -7.216  21.998  0.00  0.00    -0.166 F 
ATOM     41  F   UNL     1       7.559  -5.216  21.512  0.00  0.00    -0.166 F 
ATOM     42  F   UNL     1       5.854  -6.061  20.462  0.00  0.00    -0.166 F 
ENDBRANCH  36  39
ENDBRANCH  30  33
ENDBRANCH  28  30
ENDBRANCH  26  28
ENDBRANCH   1  22
BRANCH   1  43
ATOM     43  C   UNL     1       5.708   0.998  27.642  0.00  0.00    +0.010 C 
ATOM     44  C   UNL     1       5.981   2.396  28.174  0.00  0.00    +0.005 C 
ENDBRANCH   1  43
TORSDOF 13
ENDMDL
MODEL 4
REMARK VINA RESULT:      -6.9      1.753      4.552
REMARK  Name = 
REMARK  15 active torsions:
REMARK  status: ('A' for Active; 'I' for Inactive)
REMARK    1  A    between atoms: C_1  and  C_2
REMARK    2  A    between atoms: C_2  and  C_3
REMARK    3  A    between atoms: C_3  and  C_4
REMARK    4  A    between atoms: C_4  and  C_36
REMARK    5  A    between atoms: C_6  and  O_35
REMARK    6  A    between atoms: C_7  and  C_11
REMARK    7  A    between atoms: C_11  and  C_13
REMARK    8  A    between atoms: C_11  and  C_15
REMARK    9  A    between atoms: C_13  and  C_14
REMARK   10  A    between atoms: C_17  and  N_21
REMARK   11  A    between atoms: N_21  and  S_22
REMARK   12  A    between atoms: S_22  and  C_25
REMARK   13  A    between atoms: C_28  and  C_31
REMARK   14  A    between atoms: C_36  and  C_37
REMARK   15  A    between atoms: C_37  and  C_38
REMARK                            x       y       z     vdW  Elec       q    Type
REMARK                         _______ _______ _______ _____ _____    ______ ____
ROOT
ATOM      1  C   UNL     1       6.377   1.295  27.086  0.00  0.00    +0.059 C 
ENDROOT
BRANCH   1   6
ATOM      2  C   UNL     1       8.844  -0.154  23.695  0.00  0.00    +0.121 C 
ATOM      3  O   UNL     1       9.270   0.176  25.040  0.00  0.00    -0.454 OA
ATOM      4  C   UNL     1       8.412  -0.028  26.065  0.00  0.00    +0.339 C 
ATOM      5  O   UNL     1       8.754  -0.638  27.064  0.00  0.00    -0.245 OA
ATOM      6  C   UNL     1       7.101   0.653  25.889  0.00  0.00    +0.081 C 
ATOM      7  C   UNL     1       6.595   0.554  24.645  0.00  0.00    +0.108 C 
ATOM      8  C   UNL     1       7.306  -0.192  23.558  0.00  0.00    +0.122 C 
BRANCH   7   9
ATOM      9  O   UNL     1       5.357   1.074  24.330  0.00  0.00    -0.510 OA
ATOM     10  H   UNL     1       4.645   0.536  24.714  0.00  0.00    +0.292 HD
ENDBRANCH   7   9
BRANCH   2  11
ATOM     11  C   UNL     1       9.488   0.925  22.782  0.00  0.00    +0.048 C 
BRANCH  11  13
ATOM     12  C   UNL     1       9.712   3.291  23.681  0.00  0.00    +0.004 C 
ATOM     13  C   UNL     1      10.372   1.929  23.543  0.00  0.00    +0.000 C 
ENDBRANCH  11  13
ENDBRANCH   2  11
BRANCH   2  14
ATOM     14  C   UNL     1       9.451  -1.560  23.432  0.00  0.00    +0.053 C 
BRANCH  14  15
ATOM     15  C   UNL     1       8.460  -2.704  23.197  0.00  0.00    +0.039 C 
BRANCH  15  16
ATOM     16  C   UNL     1       8.333  -3.569  24.432  0.00  0.00    -0.047 A 
ATOM     17  C   UNL     1       7.472  -3.196  25.472  0.00  0.00    +0.003 A 
ATOM     18  C   UNL     1       7.321  -4.012  26.596  0.00  0.00    +0.000 A 
ATOM     19  C   UNL     1       8.027  -5.209  26.692  0.00  0.00    +0.000 A 
ATOM     20  C   UNL     1       8.883  -5.593  25.663  0.00  0.00    +0.000 A 
ATOM     21  C   UNL     1       9.034  -4.777  24.538  0.00  0.00    +0.003 A 
ENDBRANCH  15  16
ENDBRANCH  14  15
ENDBRANCH   2  14
ENDBRANCH   1   6
BRANCH   1  22
ATOM     22  C   UNL     1       5.156   0.468  27.523  0.00  0.00    -0.038 A 
ATOM     23  C   UNL     1       3.985   1.086  27.991  0.00  0.00    +0.004 A 
ATOM     24  C   UNL     1       2.831   0.332  28.228  0.00  0.00    +0.002 A 
ATOM     25  C   UNL     1       2.831  -1.050  28.021  0.00  0.00    +0.024 A 
ATOM     26  C   UNL     1       3.999  -1.688  27.604  0.00  0.00    +0.048 A 
ATOM     27  C   UNL     1       5.149  -0.935  27.351  0.00  0.00    +0.028 A 
BRANCH  26  28
ATOM     28  N   UNL     1       3.993  -3.095  27.346  0.00  0.00    -0.215 N 
ATOM     29  H   UNL     1       3.927  -3.702  28.167  0.00  0.00    +0.174 HD
BRANCH  28  30
ATOM     30  S   UNL     1       2.885  -3.634  26.163  0.00  0.00    +0.090 S 
ATOM     31  O   UNL     1       2.246  -2.482  25.556  0.00  0.00    -0.148 OA
ATOM     32  O   UNL     1       2.112  -4.727  26.719  0.00  0.00    -0.148 OA
BRANCH  30  33
ATOM     33  C   UNL     1       3.952  -4.368  24.913  0.00  0.00    +0.197 A 
ATOM     34  C   UNL     1       4.431  -5.656  25.089  0.00  0.00    +0.050 A 
ATOM     35  C   UNL     1       5.245  -6.180  24.087  0.00  0.00    +0.017 A 
ATOM     36  C   UNL     1       5.538  -5.409  22.952  0.00  0.00    +0.073 A 
ATOM     37  C   UNL     1       5.010  -4.122  22.885  0.00  0.00    +0.125 A 
ATOM     38  N   UNL     1       4.233  -3.566  23.846  0.00  0.00    -0.235 NA
BRANCH  36  39
ATOM     39  C   UNL     1       6.389  -5.950  21.840  0.00  0.00    +0.419 C 
ATOM     40  F   UNL     1       6.994  -7.122  22.173  0.00  0.00    -0.166 F 
ATOM     41  F   UNL     1       7.393  -5.100  21.490  0.00  0.00    -0.166 F 
ATOM     42  F   UNL     1       5.696  -6.200  20.695  0.00  0.00    -0.166 F 
ENDBRANCH  36  39
ENDBRANCH  30  33
ENDBRANCH  28  30
ENDBRANCH  26  28
ENDBRANCH   1  22
BRANCH   1  43
ATOM     43  C   UNL     1       6.035   2.796  26.885  0.00  0.00    +0.010 C 
ATOM     44  C   UNL     1       7.184   3.702  26.472  0.00  0.00    +0.005 C 
ENDBRANCH   1  43
TORSDOF 13
ENDMDL
MODEL 5
REMARK VINA RESULT:      -6.7      2.722      6.275
REMARK  Name = 
REMARK  15 active torsions:
REMARK  status: ('A' for Active; 'I' for Inactive)
REMARK    1  A    between atoms: C_1  and  C_2
REMARK    2  A    between atoms: C_2  and  C_3
REMARK    3  A    between atoms: C_3  and  C_4
REMARK    4  A    between atoms: C_4  and  C_36
REMARK    5  A    between atoms: C_6  and  O_35
REMARK    6  A    between atoms: C_7  and  C_11
REMARK    7  A    between atoms: C_11  and  C_13
REMARK    8  A    between atoms: C_11  and  C_15
REMARK    9  A    between atoms: C_13  and  C_14
REMARK   10  A    between atoms: C_17  and  N_21
REMARK   11  A    between atoms: N_21  and  S_22
REMARK   12  A    between atoms: S_22  and  C_25
REMARK   13  A    between atoms: C_28  and  C_31
REMARK   14  A    between atoms: C_36  and  C_37
REMARK   15  A    between atoms: C_37  and  C_38
REMARK                            x       y       z     vdW  Elec       q    Type
REMARK                         _______ _______ _______ _____ _____    ______ ____
ROOT
ATOM      1  C   UNL     1       7.055   2.986  25.275  0.00  0.00    +0.059 C 
ENDROOT
BRANCH   1   6
ATOM      2  C   UNL     1       4.900  -0.330  27.285  0.00  0.00    +0.121 C 
ATOM      3  O   UNL     1       4.355   0.900  26.747  0.00  0.00    -0.454 OA
ATOM      4  C   UNL     1       4.946   1.458  25.666  0.00  0.00    +0.339 C 
ATOM      5  O   UNL     1       4.296   1.790  24.690  0.00  0.00    -0.245 OA
ATOM      6  C   UNL     1       6.400   1.718  25.851  0.00  0.00    +0.081 C 
ATOM      7  C   UNL     1       7.063   0.715  26.455  0.00  0.00    +0.108 C 
ATOM      8  C   UNL     1       6.375  -0.546  26.882  0.00  0.00    +0.122 C 
BRANCH   7   9
ATOM      9  O   UNL     1       8.429   0.767  26.644  0.00  0.00    -0.510 OA
ATOM     10  H   UNL     1       8.699   0.209  27.393  0.00  0.00    +0.292 HD
ENDBRANCH   7   9
BRANCH   2  11
ATOM     11  C   UNL     1       4.720  -0.223  28.824  0.00  0.00    +0.048 C 
BRANCH  11  13
ATOM     12  C   UNL     1       6.232   1.366  30.106  0.00  0.00    +0.004 C 
ATOM     13  C   UNL     1       4.914   1.203  29.368  0.00  0.00    +0.000 C 
ENDBRANCH  11  13
ENDBRANCH   2  11
BRANCH   2  14
ATOM     14  C   UNL     1       4.001  -1.446  26.682  0.00  0.00    +0.053 C 
BRANCH  14  15
ATOM     15  C   UNL     1       4.623  -2.311  25.581  0.00  0.00    +0.039 C 
BRANCH  15  16
ATOM     16  C   UNL     1       4.743  -3.751  26.031  0.00  0.00    -0.047 A 
ATOM     17  C   UNL     1       3.629  -4.599  25.997  0.00  0.00    +0.003 A 
ATOM     18  C   UNL     1       3.745  -5.938  26.374  0.00  0.00    +0.000 A 
ATOM     19  C   UNL     1       4.975  -6.446  26.785  0.00  0.00    +0.000 A 
ATOM     20  C   UNL     1       6.092  -5.614  26.819  0.00  0.00    +0.000 A 
ATOM     21  C   UNL     1       5.976  -4.273  26.442  0.00  0.00    +0.003 A 
ENDBRANCH  15  16
ENDBRANCH  14  15
ENDBRANCH   2  14
ENDBRANCH   1   6
BRANCH   1  22
ATOM     22  C   UNL     1       8.167   2.646  24.268  0.00  0.00    -0.038 A 
ATOM     23  C   UNL     1       9.278   3.487  24.095  0.00  0.00    +0.004 A 
ATOM     24  C   UNL     1      10.355   3.084  23.299  0.00  0.00    +0.002 A 
ATOM     25  C   UNL     1      10.333   1.847  22.649  0.00  0.00    +0.024 A 
ATOM     26  C   UNL     1       9.217   1.020  22.768  0.00  0.00    +0.048 A 
ATOM     27  C   UNL     1       8.146   1.413  23.576  0.00  0.00    +0.028 A 
BRANCH  26  28
ATOM     28  N   UNL     1       9.208  -0.265  22.143  0.00  0.00    -0.215 N 
ATOM     29  H   UNL     1       9.682  -0.328  21.238  0.00  0.00    +0.174 HD
BRANCH  28  30
ATOM     30  S   UNL     1       9.699  -1.577  23.122  0.00  0.00    +0.090 S 
ATOM     31  O   UNL     1       9.738  -1.144  24.505  0.00  0.00    -0.148 OA
ATOM     32  O   UNL     1      10.835  -2.221  22.494  0.00  0.00    -0.148 OA
BRANCH  30  33
ATOM     33  C   UNL     1       8.328  -2.732  22.967  0.00  0.00    +0.197 A 
ATOM     34  C   UNL     1       7.112  -2.295  22.465  0.00  0.00    +0.050 A 
ATOM     35  C   UNL     1       6.088  -3.233  22.357  0.00  0.00    +0.017 A 
ATOM     36  C   UNL     1       6.317  -4.563  22.741  0.00  0.00    +0.073 A 
ATOM     37  C   UNL     1       7.574  -4.889  23.242  0.00  0.00    +0.125 A 
ATOM     38  N   UNL     1       8.591  -4.004  23.384  0.00  0.00    -0.235 NA
BRANCH  36  39
ATOM     39  C   UNL     1       5.244  -5.606  22.614  0.00  0.00    +0.419 C 
ATOM     40  F   UNL     1       5.391  -6.613  23.516  0.00  0.00    -0.166 F 
ATOM     41  F   UNL     1       5.236  -6.200  21.390  0.00  0.00    -0.166 F 
ATOM     42  F   UNL     1       3.986  -5.119  22.800  0.00  0.00    -0.166 F 
ENDBRANCH  36  39
ENDBRANCH  30  33
ENDBRANCH  28  30
ENDBRANCH  26  28
ENDBRANCH   1  22
BRANCH   1  43
ATOM     43  C   UNL     1       7.523   3.999  26.354  0.00  0.00    +0.010 C 
ATOM     44  C   UNL     1       6.685   4.075  27.620  0.00  0.00    +0.005 C 
ENDBRANCH   1  43
TORSDOF 13
ENDMDL
MODEL 6
REMARK VINA RESULT:      -6.7      3.589      6.471
REMARK  Name = 
REMARK  15 active torsions:
REMARK  status: ('A' for Active; 'I' for Inactive)
REMARK    1  A    between atoms: C_1  and  C_2
REMARK    2  A    between atoms: C_2  and  C_3
REMARK    3  A    between atoms: C_3  and  C_4
REMARK    4  A    between atoms: C_4  and  C_36
REMARK    5  A    between atoms: C_6  and  O_35
REMARK    6  A    between atoms: C_7  and  C_11
REMARK    7  A    between atoms: C_11  and  C_13
REMARK    8  A    between atoms: C_11  and  C_15
REMARK    9  A    between atoms: C_13  and  C_14
REMARK   10  A    between atoms: C_17  and  N_21
REMARK   11  A    between atoms: N_21  and  S_22
REMARK   12  A    between atoms: S_22  and  C_25
REMARK   13  A    between atoms: C_28  and  C_31
REMARK   14  A    between atoms: C_36  and  C_37
REMARK   15  A    between atoms: C_37  and  C_38
REMARK                            x       y       z     vdW  Elec       q    Type
REMARK                         _______ _______ _______ _____ _____    ______ ____
ROOT
ATOM      1  C   UNL     1       4.507  -1.823  26.082  0.00  0.00    +0.059 C 
ENDROOT
BRANCH   1   6
ATOM      2  C   UNL     1       8.275  -3.428  24.377  0.00  0.00    +0.121 C 
ATOM      3  O   UNL     1       7.248  -2.650  23.713  0.00  0.00    -0.454 OA
ATOM      4  C   UNL     1       6.556  -1.736  24.430  0.00  0.00    +0.339 C 
ATOM      5  O   UNL     1       6.424  -0.590  24.035  0.00  0.00    -0.245 OA
ATOM      6  C   UNL     1       5.902  -2.300  25.642  0.00  0.00    +0.081 C 
ATOM      7  C   UNL     1       6.678  -3.154  26.336  0.00  0.00    +0.108 C 
ATOM      8  C   UNL     1       8.077  -3.479  25.907  0.00  0.00    +0.122 C 
BRANCH   7   9
ATOM      9  O   UNL     1       6.248  -3.716  27.520  0.00  0.00    -0.510 OA
ATOM     10  H   UNL     1       6.112  -4.673  27.423  0.00  0.00    +0.292 HD
ENDBRANCH   7   9
BRANCH   2  11
ATOM     11  C   UNL     1       8.210  -4.837  23.728  0.00  0.00    +0.048 C 
BRANCH  11  13
ATOM     12  C   UNL     1       6.920  -6.042  21.900  0.00  0.00    +0.004 C 
ATOM     13  C   UNL     1       6.826  -5.187  23.153  0.00  0.00    +0.000 C 
ENDBRANCH  11  13
ENDBRANCH   2  11
BRANCH   2  14
ATOM     14  C   UNL     1       9.600  -2.697  24.023  0.00  0.00    +0.053 C 
BRANCH  14  15
ATOM     15  C   UNL     1       9.649  -1.973  22.674  0.00  0.00    +0.039 C 
BRANCH  15  16
ATOM     16  C   UNL     1       9.932  -0.499  22.864  0.00  0.00    -0.047 A 
ATOM     17  C   UNL     1      10.475  -0.032  24.068  0.00  0.00    +0.003 A 
ATOM     18  C   UNL     1      10.776   1.322  24.233  0.00  0.00    +0.000 A 
ATOM     19  C   UNL     1      10.540   2.223  23.197  0.00  0.00    +0.000 A 
ATOM     20  C   UNL     1      10.004   1.770  21.994  0.00  0.00    +0.000 A 
ATOM     21  C   UNL     1       9.703   0.415  21.828  0.00  0.00    +0.003 A 
ENDBRANCH  15  16
ENDBRANCH  14  15
ENDBRANCH   2  14
ENDBRANCH   1   6
BRANCH   1  22
ATOM     22  C   UNL     1       4.566  -1.020  27.393  0.00  0.00    -0.038 A 
ATOM     23  C   UNL     1       3.770  -1.365  28.497  0.00  0.00    +0.004 A 
ATOM     24  C   UNL     1       3.953  -0.730  29.729  0.00  0.00    +0.002 A 
ATOM     25  C   UNL     1       4.919   0.270  29.876  0.00  0.00    +0.024 A 
ATOM     26  C   UNL     1       5.685   0.660  28.778  0.00  0.00    +0.048 A 
ATOM     27  C   UNL     1       5.515   0.016  27.549  0.00  0.00    +0.028 A 
BRANCH  26  28
ATOM     28  N   UNL     1       6.706   1.649  28.933  0.00  0.00    -0.215 N 
ATOM     29  H   UNL     1       7.620   1.417  28.539  0.00  0.00    +0.174 HD
BRANCH  28  30
ATOM     30  S   UNL     1       6.284   3.238  28.468  0.00  0.00    +0.090 S 
ATOM     31  O   UNL     1       7.323   4.150  28.909  0.00  0.00    -0.148 OA
ATOM     32  O   UNL     1       4.890   3.459  28.795  0.00  0.00    -0.148 OA
BRANCH  30  33
ATOM     33  C   UNL     1       6.367   3.170  26.672  0.00  0.00    +0.197 A 
ATOM     34  C   UNL     1       7.516   2.702  26.053  0.00  0.00    +0.050 A 
ATOM     35  C   UNL     1       7.523   2.660  24.661  0.00  0.00    +0.017 A 
ATOM     36  C   UNL     1       6.390   3.075  23.945  0.00  0.00    +0.073 A 
ATOM     37  C   UNL     1       5.294   3.538  24.670  0.00  0.00    +0.125 A 
ATOM     38  N   UNL     1       5.253   3.614  26.022  0.00  0.00    -0.235 NA
BRANCH  36  39
ATOM     39  C   UNL     1       6.353   3.020  22.445  0.00  0.00    +0.419 C 
ATOM     40  F   UNL     1       5.129   3.339  21.944  0.00  0.00    -0.166 F 
ATOM     41  F   UNL     1       6.642   1.781  21.961  0.00  0.00    -0.166 F 
ATOM     42  F   UNL     1       7.233   3.869  21.847  0.00  0.00    -0.166 F 
ENDBRANCH  36  39
ENDBRANCH  30  33
ENDBRANCH  28  30
ENDBRANCH  26  28
ENDBRANCH   1  22
BRANCH   1  43
ATOM     43  C   UNL     1       3.439  -2.949  26.125  0.00  0.00    +0.010 C 
ATOM     44  C   UNL     1       3.328  -3.822  24.885  0.00  0.00    +0.005 C 
ENDBRANCH   1  43
TORSDOF 13
ENDMDL
MODEL 7
REMARK VINA RESULT:      -6.7      3.410      5.421
REMARK  Name = 
REMARK  15 active torsions:
REMARK  status: ('A' for Active; 'I' for Inactive)
REMARK    1  A    between atoms: C_1  and  C_2
REMARK    2  A    between atoms: C_2  and  C_3
REMARK    3  A    between atoms: C_3  and  C_4
REMARK    4  A    between atoms: C_4  and  C_36
REMARK    5  A    between atoms: C_6  and  O_35
REMARK    6  A    between atoms: C_7  and  C_11
REMARK    7  A    between atoms: C_11  and  C_13
REMARK    8  A    between atoms: C_11  and  C_15
REMARK    9  A    between atoms: C_13  and  C_14
REMARK   10  A    between atoms: C_17  and  N_21
REMARK   11  A    between atoms: N_21  and  S_22
REMARK   12  A    between atoms: S_22  and  C_25
REMARK   13  A    between atoms: C_28  and  C_31
REMARK   14  A    between atoms: C_36  and  C_37
REMARK   15  A    between atoms: C_37  and  C_38
REMARK                            x       y       z     vdW  Elec       q    Type
REMARK                         _______ _______ _______ _____ _____    ______ ____
ROOT
ATOM      1  C   UNL     1       5.996  -4.967  23.022  0.00  0.00    +0.059 C 
ENDROOT
BRANCH   1   6
ATOM      2  C   UNL     1       8.823  -1.814  24.344  0.00  0.00    +0.121 C 
ATOM      3  O   UNL     1       7.554  -1.655  23.661  0.00  0.00    -0.454 OA
ATOM      4  C   UNL     1       6.570  -2.551  23.898  0.00  0.00    +0.339 C 
ATOM      5  O   UNL     1       5.442  -2.189  24.189  0.00  0.00    -0.245 OA
ATOM      6  C   UNL     1       6.975  -3.961  23.652  0.00  0.00    +0.081 C 
ATOM      7  C   UNL     1       8.200  -4.268  24.120  0.00  0.00    +0.108 C 
ATOM      8  C   UNL     1       9.051  -3.261  24.833  0.00  0.00    +0.122 C 
BRANCH   7   9
ATOM      9  O   UNL     1       8.702  -5.550  24.033  0.00  0.00    -0.510 OA
ATOM     10  H   UNL     1       9.010  -5.863  24.900  0.00  0.00    +0.292 HD
ENDBRANCH   7   9
BRANCH   2  11
ATOM     11  C   UNL     1       9.901  -1.362  23.323  0.00  0.00    +0.048 C 
BRANCH  11  13
ATOM     12  C   UNL     1       9.486   0.310  21.455  0.00  0.00    +0.004 C 
ATOM     13  C   UNL     1       9.349  -1.135  21.904  0.00  0.00    +0.000 C 
ENDBRANCH  11  13
ENDBRANCH   2  11
BRANCH   2  14
ATOM     14  C   UNL     1       8.736  -0.839  25.551  0.00  0.00    +0.053 C 
BRANCH  14  15
ATOM     15  C   UNL     1       7.579   0.165  25.543  0.00  0.00    +0.039 C 
BRANCH  15  16
ATOM     16  C   UNL     1       7.903   1.355  24.666  0.00  0.00    -0.047 A 
ATOM     17  C   UNL     1       6.946   1.861  23.778  0.00  0.00    +0.003 A 
ATOM     18  C   UNL     1       7.227   2.983  22.996  0.00  0.00    +0.000 A 
ATOM     19  C   UNL     1       8.465   3.613  23.094  0.00  0.00    +0.000 A 
ATOM     20  C   UNL     1       9.424   3.122  23.977  0.00  0.00    +0.000 A 
ATOM     21  C   UNL     1       9.143   1.998  24.760  0.00  0.00    +0.003 A 
ENDBRANCH  15  16
ENDBRANCH  14  15
ENDBRANCH   2  14
ENDBRANCH   1   6
BRANCH   1  22
ATOM     22  C   UNL     1       5.072  -5.600  24.077  0.00  0.00    -0.038 A 
ATOM     23  C   UNL     1       3.740  -5.929  23.778  0.00  0.00    +0.004 A 
ATOM     24  C   UNL     1       2.966  -6.650  24.692  0.00  0.00    +0.002 A 
ATOM     25  C   UNL     1       3.499  -7.038  25.924  0.00  0.00    +0.024 A 
ATOM     26  C   UNL     1       4.804  -6.677  26.259  0.00  0.00    +0.048 A 
ATOM     27  C   UNL     1       5.586  -5.970  25.341  0.00  0.00    +0.028 A 
BRANCH  26  28
ATOM     28  N   UNL     1       5.370  -7.110  27.498  0.00  0.00    -0.215 N 
ATOM     29  H   UNL     1       5.873  -8.000  27.476  0.00  0.00    +0.174 HD
BRANCH  28  30
ATOM     30  S   UNL     1       6.315  -5.957  28.333  0.00  0.00    +0.090 S 
ATOM     31  O   UNL     1       7.523  -5.698  27.573  0.00  0.00    -0.148 OA
ATOM     32  O   UNL     1       6.362  -6.327  29.733  0.00  0.00    -0.148 OA
BRANCH  30  33
ATOM     33  C   UNL     1       5.307  -4.469  28.248  0.00  0.00    +0.197 A 
ATOM     34  C   UNL     1       5.756  -3.373  27.527  0.00  0.00    +0.050 A 
ATOM     35  C   UNL     1       4.932  -2.251  27.485  0.00  0.00    +0.017 A 
ATOM     36  C   UNL     1       3.697  -2.268  28.150  0.00  0.00    +0.073 A 
ATOM     37  C   UNL     1       3.351  -3.419  28.854  0.00  0.00    +0.125 A 
ATOM     38  N   UNL     1       4.131  -4.524  28.937  0.00  0.00    -0.235 NA
BRANCH  36  39
ATOM     39  C   UNL     1       2.772  -1.086  28.106  0.00  0.00    +0.419 C 
ATOM     40  F   UNL     1       3.442   0.097  28.080  0.00  0.00    -0.166 F 
ATOM     41  F   UNL     1       1.950  -1.026  29.189  0.00  0.00    -0.166 F 
ATOM     42  F   UNL     1       1.954  -1.075  27.017  0.00  0.00    -0.166 F 
ENDBRANCH  36  39
ENDBRANCH  30  33
ENDBRANCH  28  30
ENDBRANCH  26  28
ENDBRANCH   1  22
BRANCH   1  43
ATOM     43  C   UNL     1       6.677  -6.029  22.118  0.00  0.00    +0.010 C 
ATOM     44  C   UNL     1       6.258  -6.041  20.656  0.00  0.00    +0.005 C 
ENDBRANCH   1  43
TORSDOF 13
ENDMDL
MODEL 8
REMARK VINA RESULT:      -6.6      4.648      8.905
REMARK  Name = 
REMARK  15 active torsions:
REMARK  status: ('A' for Active; 'I' for Inactive)
REMARK    1  A    between atoms: C_1  and  C_2
REMARK    2  A    between atoms: C_2  and  C_3
REMARK    3  A    between atoms: C_3  and  C_4
REMARK    4  A    between atoms: C_4  and  C_36
REMARK    5  A    between atoms: C_6  and  O_35
REMARK    6  A    between atoms: C_7  and  C_11
REMARK    7  A    between atoms: C_11  and  C_13
REMARK    8  A    between atoms: C_11  and  C_15
REMARK    9  A    between atoms: C_13  and  C_14
REMARK   10  A    between atoms: C_17  and  N_21
REMARK   11  A    between atoms: N_21  and  S_22
REMARK   12  A    between atoms: S_22  and  C_25
REMARK   13  A    between atoms: C_28  and  C_31
REMARK   14  A    between atoms: C_36  and  C_37
REMARK   15  A    between atoms: C_37  and  C_38
REMARK                            x       y       z     vdW  Elec       q    Type
REMARK                         _______ _______ _______ _____ _____    ______ ____
ROOT
ATOM      1  C   UNL     1       7.063  -5.056  24.130  0.00  0.00    +0.059 C 
ENDROOT
BRANCH   1   6
ATOM      2  C   UNL     1       2.782  -6.169  24.469  0.00  0.00    +0.121 C 
ATOM      3  O   UNL     1       3.946  -6.952  24.833  0.00  0.00    -0.454 OA
ATOM      4  C   UNL     1       5.051  -6.311  25.275  0.00  0.00    +0.339 C 
ATOM      5  O   UNL     1       5.609  -6.649  26.305  0.00  0.00    -0.245 OA
ATOM      6  C   UNL     1       5.554  -5.272  24.336  0.00  0.00    +0.081 C 
ATOM      7  C   UNL     1       4.585  -4.509  23.795  0.00  0.00    +0.108 C 
ATOM      8  C   UNL     1       3.140  -4.703  24.137  0.00  0.00    +0.122 C 
BRANCH   7   9
ATOM      9  O   UNL     1       4.885  -3.457  22.954  0.00  0.00    -0.510 OA
ATOM     10  H   UNL     1       4.083  -3.117  22.521  0.00  0.00    +0.292 HD
ENDBRANCH   7   9
BRANCH   2  11
ATOM     11  C   UNL     1       2.149  -6.908  23.259  0.00  0.00    +0.048 C 
BRANCH  11  13
ATOM     12  C   UNL     1       0.485  -8.748  22.711  0.00  0.00    +0.004 C 
ATOM     13  C   UNL     1       1.643  -8.321  23.597  0.00  0.00    +0.000 C 
ENDBRANCH  11  13
ENDBRANCH   2  11
BRANCH   2  14
ATOM     14  C   UNL     1       1.865  -6.235  25.722  0.00  0.00    +0.053 C 
BRANCH  14  15
ATOM     15  C   UNL     1       1.768  -4.966  26.573  0.00  0.00    +0.039 C 
BRANCH  15  16
ATOM     16  C   UNL     1       2.842  -4.947  27.638  0.00  0.00    -0.047 A 
ATOM     17  C   UNL     1       2.958  -6.008  28.545  0.00  0.00    +0.003 A 
ATOM     18  C   UNL     1       3.973  -6.013  29.505  0.00  0.00    +0.000 A 
ATOM     19  C   UNL     1       4.884  -4.961  29.566  0.00  0.00    +0.000 A 
ATOM     20  C   UNL     1       4.781  -3.902  28.667  0.00  0.00    +0.000 A 
ATOM     21  C   UNL     1       3.766  -3.896  27.707  0.00  0.00    +0.003 A 
ENDBRANCH  15  16
ENDBRANCH  14  15
ENDBRANCH   2  14
ENDBRANCH   1   6
BRANCH   1  22
ATOM     22  C   UNL     1       7.526  -3.699  24.689  0.00  0.00    -0.038 A 
ATOM     23  C   UNL     1       7.365  -3.375  26.046  0.00  0.00    +0.004 A 
ATOM     24  C   UNL     1       7.935  -2.210  26.569  0.00  0.00    +0.002 A 
ATOM     25  C   UNL     1       8.659  -1.343  25.747  0.00  0.00    +0.024 A 
ATOM     26  C   UNL     1       8.788  -1.623  24.387  0.00  0.00    +0.048 A 
ATOM     27  C   UNL     1       8.232  -2.794  23.864  0.00  0.00    +0.028 A 
BRANCH  26  28
ATOM     28  N   UNL     1       9.565  -0.763  23.550  0.00  0.00    -0.215 N 
ATOM     29  H   UNL     1      10.356  -1.199  23.070  0.00  0.00    +0.174 HD
BRANCH  28  30
ATOM     30  S   UNL     1       8.689   0.187  22.433  0.00  0.00    +0.090 S 
ATOM     31  O   UNL     1       7.270   0.012  22.676  0.00  0.00    -0.148 OA
ATOM     32  O   UNL     1       9.265  -0.002  21.116  0.00  0.00    -0.148 OA
BRANCH  30  33
ATOM     33  C   UNL     1       9.105   1.869  22.918  0.00  0.00    +0.197 A 
ATOM     34  C   UNL     1       8.102   2.818  23.043  0.00  0.00    +0.050 A 
ATOM     35  C   UNL     1       8.478   4.101  23.431  0.00  0.00    +0.017 A 
ATOM     36  C   UNL     1       9.828   4.386  23.687  0.00  0.00    +0.073 A 
ATOM     37  C   UNL     1      10.753   3.359  23.519  0.00  0.00    +0.125 A 
ATOM     38  N   UNL     1      10.433   2.103  23.123  0.00  0.00    -0.235 NA
BRANCH  36  39
ATOM     39  C   UNL     1      10.266   5.751  24.131  0.00  0.00    +0.419 C 
ATOM     40  F   UNL     1      11.612   5.922  24.034  0.00  0.00    -0.166 F 
ATOM     41  F   UNL     1       9.951   6.003  25.431  0.00  0.00    -0.166 F 
ATOM     42  F   UNL     1       9.709   6.764  23.410  0.00  0.00    -0.166 F 
ENDBRANCH  36  39
ENDBRANCH  30  33
ENDBRANCH  28  30
ENDBRANCH  26  28
ENDBRANCH   1  22
BRANCH   1  43
ATOM     43  C   UNL     1       7.542  -5.289  22.672  0.00  0.00    +0.010 C 
ATOM     44  C   UNL     1       6.788  -6.341  21.874  0.00  0.00    +0.005 C 
ENDBRANCH   1  43
TORSDOF 13
ENDMDL
MODEL 9
REMARK VINA RESULT:      -6.5      3.163      7.413
REMARK  Name = 
REMARK  15 active torsions:
REMARK  status: ('A' for Active; 'I' for Inactive)
REMARK    1  A    between atoms: C_1  and  C_2
REMARK    2  A    between atoms: C_2  and  C_3
REMARK    3  A    between atoms: C_3  and  C_4
REMARK    4  A    between atoms: C_4  and  C_36
REMARK    5  A    between atoms: C_6  and  O_35
REMARK    6  A    between atoms: C_7  and  C_11
REMARK    7  A    between atoms: C_11  and  C_13
REMARK    8  A    between atoms: C_11  and  C_15
REMARK    9  A    between atoms: C_13  and  C_14
REMARK   10  A    between atoms: C_17  and  N_21
REMARK   11  A    between atoms: N_21  and  S_22
REMARK   12  A    between atoms: S_22  and  C_25
REMARK   13  A    between atoms: C_28  and  C_31
REMARK   14  A    between atoms: C_36  and  C_37
REMARK   15  A    between atoms: C_37  and  C_38
REMARK                            x       y       z     vdW  Elec       q    Type
REMARK                         _______ _______ _______ _____ _____    ______ ____
ROOT
ATOM      1  C   UNL     1       6.494  -1.757  27.087  0.00  0.00    +0.059 C 
ENDROOT
BRANCH   1   6
ATOM      2  C   UNL     1       3.071  -4.067  25.465  0.00  0.00    +0.121 C 
ATOM      3  O   UNL     1       3.616  -2.812  24.987  0.00  0.00    -0.454 OA
ATOM      4  C   UNL     1       4.941  -2.582  25.127  0.00  0.00    +0.339 C 
ATOM      5  O   UNL     1       5.620  -2.208  24.185  0.00  0.00    -0.245 OA
ATOM      6  C   UNL     1       5.424  -2.712  26.528  0.00  0.00    +0.081 C 
ATOM      7  C   UNL     1       4.921  -3.775  27.184  0.00  0.00    +0.108 C 
ATOM      8  C   UNL     1       3.971  -4.731  26.530  0.00  0.00    +0.122 C 
BRANCH   7   9
ATOM      9  O   UNL     1       5.316  -4.078  28.470  0.00  0.00    -0.510 OA
ATOM     10  H   UNL     1       4.602  -4.520  28.959  0.00  0.00    +0.292 HD
ENDBRANCH   7   9
BRANCH   2  11
ATOM     11  C   UNL     1       1.662  -3.721  26.020  0.00  0.00    +0.048 C 
BRANCH  11  13
ATOM     12  C   UNL     1       1.701  -2.169  28.031  0.00  0.00    +0.004 C 
ATOM     13  C   UNL     1       1.538  -2.272  26.524  0.00  0.00    +0.000 C 
ENDBRANCH  11  13
ENDBRANCH   2  11
BRANCH   2  14
ATOM     14  C   UNL     1       2.981  -4.958  24.195  0.00  0.00    +0.053 C 
BRANCH  14  15
ATOM     15  C   UNL     1       3.906  -6.177  24.142  0.00  0.00    +0.039 C 
BRANCH  15  16
ATOM     16  C   UNL     1       5.171  -5.861  23.375  0.00  0.00    -0.047 A 
ATOM     17  C   UNL     1       6.352  -5.543  24.057  0.00  0.00    +0.003 A 
ATOM     18  C   UNL     1       7.532  -5.289  23.354  0.00  0.00    +0.000 A 
ATOM     19  C   UNL     1       7.546  -5.354  21.963  0.00  0.00    +0.000 A 
ATOM     20  C   UNL     1       6.379  -5.673  21.273  0.00  0.00    +0.000 A 
ATOM     21  C   UNL     1       5.198  -5.927  21.976  0.00  0.00    +0.003 A 
ENDBRANCH  15  16
ENDBRANCH  14  15
ENDBRANCH   2  14
ENDBRANCH   1   6
BRANCH   1  22
ATOM     22  C   UNL     1       6.028  -0.292  27.043  0.00  0.00    -0.038 A 
ATOM     23  C   UNL     1       4.722   0.071  27.407  0.00  0.00    +0.004 A 
ATOM     24  C   UNL     1       4.365   1.419  27.518  0.00  0.00    +0.002 A 
ATOM     25  C   UNL     1       5.298   2.424  27.252  0.00  0.00    +0.024 A 
ATOM     26  C   UNL     1       6.586   2.084  26.841  0.00  0.00    +0.048 A 
ATOM     27  C   UNL     1       6.950   0.738  26.744  0.00  0.00    +0.028 A 
BRANCH  26  28
ATOM     28  N   UNL     1       7.558   3.107  26.612  0.00  0.00    -0.215 N 
ATOM     29  H   UNL     1       8.444   3.007  27.114  0.00  0.00    +0.174 HD
BRANCH  28  30
ATOM     30  S   UNL     1       7.882   3.479  24.977  0.00  0.00    +0.090 S 
ATOM     31  O   UNL     1       8.970   4.436  24.917  0.00  0.00    -0.148 OA
ATOM     32  O   UNL     1       6.622   3.716  24.300  0.00  0.00    -0.148 OA
BRANCH  30  33
ATOM     33  C   UNL     1       8.508   1.923  24.324  0.00  0.00    +0.197 A 
ATOM     34  C   UNL     1       9.766   1.477  24.697  0.00  0.00    +0.050 A 
ATOM     35  C   UNL     1      10.198   0.262  24.171  0.00  0.00    +0.017 A 
ATOM     36  C   UNL     1       9.361  -0.462  23.308  0.00  0.00    +0.073 A 
ATOM     37  C   UNL     1       8.121   0.087  22.992  0.00  0.00    +0.125 A 
ATOM     38  N   UNL     1       7.671   1.275  23.464  0.00  0.00    -0.235 NA
BRANCH  36  39
ATOM     39  C   UNL     1       9.783  -1.787  22.743  0.00  0.00    +0.419 C 
ATOM     40  F   UNL     1      10.011  -2.715  23.710  0.00  0.00    -0.166 F 
ATOM     41  F   UNL     1      10.937  -1.705  22.026  0.00  0.00    -0.166 F 
ATOM     42  F   UNL     1       8.863  -2.340  21.905  0.00  0.00    -0.166 F 
ENDBRANCH  36  39
ENDBRANCH  30  33
ENDBRANCH  28  30
ENDBRANCH  26  28
ENDBRANCH   1  22
BRANCH   1  43
ATOM     43  C   UNL     1       7.901  -1.951  26.461  0.00  0.00    +0.010 C 
ATOM     44  C   UNL     1       8.454  -3.367  26.465  0.00  0.00    +0.005 C 
ENDBRANCH   1  43
TORSDOF 13
ENDMDL
