MODEL 1
REMARK VINA RESULT:      -5.3      0.000      0.000
REMARK  Name = 
REMARK  1 active torsions:
REMARK  status: ('A' for Active; 'I' for Inactive)
REMARK    1  A    between atoms: C_7  and  N_9
REMARK                            x       y       z     vdW  Elec       q    Type
REMARK                         _______ _______ _______ _____ _____    ______ ____
ROOT
ATOM      1  C   UNL     1       9.560  -2.753  24.109  0.00  0.00    +0.216 C 
ATOM      2  N   UNL     1       9.081  -1.514  23.497  0.00  0.00    -0.216 N 
ATOM      3  C   UNL     1       9.779  -0.891  22.511  0.00  0.00    +0.419 C 
ATOM      4  N   UNL     1       9.916  -1.503  21.373  0.00  0.00    -0.128 NA
ATOM      5  H   UNL     1       9.386  -2.372  21.479  0.00  0.00    +0.306 HD
ATOM      6  C   UNL     1       8.056  -0.846  24.293  0.00  0.00    +0.216 C 
ATOM      7  C   UNL     1       6.886  -1.838  24.450  0.00  0.00    +0.195 C 
ATOM      8  O   UNL     1       7.317  -3.073  25.059  0.00  0.00    -0.374 OA
ATOM      9  C   UNL     1       8.362  -3.693  24.284  0.00  0.00    +0.195 C 
ENDROOT
BRANCH   3  10
ATOM     10  N   UNL     1      10.287   0.364  22.667  0.00  0.00    -0.006 NA
ATOM     11  C   UNL     1       9.822   1.342  21.960  0.00  0.00    +0.387 C 
ATOM     12  N   UNL     1      10.343   2.585  22.085  0.00  0.00    -0.289 N 
ATOM     13  H   UNL     1       9.692   3.350  22.000  0.00  0.00    +0.255 HD
ATOM     14  H   UNL     1      10.944   2.661  22.894  0.00  0.00    +0.255 HD
ATOM     15  N   UNL     1       8.855   1.307  21.011  0.00  0.00    -0.289 N 
ATOM     16  H   UNL     1       8.226   2.095  20.994  0.00  0.00    +0.255 HD
ATOM     17  H   UNL     1       8.329   0.429  21.110  0.00  0.00    +0.255 HD
ENDBRANCH   3  10
TORSDOF 1
ENDMDL
MODEL 2
REMARK VINA RESULT:      -5.1      1.484      1.933
REMARK  Name = 
REMARK  1 active torsions:
REMARK  status: ('A' for Active; 'I' for Inactive)
REMARK    1  A    between atoms: C_7  and  N_9
REMARK                            x       y       z     vdW  Elec       q    Type
REMARK                         _______ _______ _______ _____ _____    ______ ____
ROOT
ATOM      1  C   UNL     1       8.114  -2.509  22.221  0.00  0.00    +0.216 C 
ATOM      2  N   UNL     1       8.463  -1.530  23.250  0.00  0.00    -0.216 N 
ATOM      3  C   UNL     1       8.110  -0.222  23.137  0.00  0.00    +0.419 C 
ATOM      4  N   UNL     1       6.846   0.078  23.157  0.00  0.00    -0.128 NA
ATOM      5  H   UNL     1       6.368  -0.815  23.306  0.00  0.00    +0.306 HD
ATOM      6  C   UNL     1       9.517  -1.997  24.145  0.00  0.00    +0.216 C 
ATOM      7  C   UNL     1       9.009  -3.292  24.807  0.00  0.00    +0.195 C 
ATOM      8  O   UNL     1       8.660  -4.289  23.824  0.00  0.00    -0.374 OA
ATOM      9  C   UNL     1       7.653  -3.793  22.921  0.00  0.00    +0.195 C 
ENDROOT
BRANCH   3  10
ATOM     10  N   UNL     1       9.038   0.773  23.057  0.00  0.00    -0.006 NA
ATOM     11  C   UNL     1       9.228   1.391  21.937  0.00  0.00    +0.387 C 
ATOM     12  N   UNL     1      10.170   2.358  21.841  0.00  0.00    -0.289 N 
ATOM     13  H   UNL     1       9.946   3.137  21.241  0.00  0.00    +0.255 HD
ATOM     14  H   UNL     1      10.513   2.640  22.749  0.00  0.00    +0.255 HD
ATOM     15  N   UNL     1       8.620   1.176  20.745  0.00  0.00    -0.289 N 
ATOM     16  H   UNL     1       8.408   2.000  20.204  0.00  0.00    +0.255 HD
ATOM     17  H   UNL     1       7.769   0.622  20.906  0.00  0.00    +0.255 HD
ENDBRANCH   3  10
TORSDOF 1
ENDMDL
MODEL 3
REMARK VINA RESULT:      -5.0      2.802      5.188
REMARK  Name = 
REMARK  1 active torsions:
REMARK  status: ('A' for Active; 'I' for Inactive)
REMARK    1  A    between atoms: C_7  and  N_9
REMARK                            x       y       z     vdW  Elec       q    Type
REMARK                         _______ _______ _______ _____ _____    ______ ____
ROOT
ATOM      1  C   UNL     1       9.283  -0.711  24.853  0.00  0.00    +0.216 C 
ATOM      2  N   UNL     1       9.219  -1.820  23.902  0.00  0.00    -0.216 N 
ATOM      3  C   UNL     1       8.545  -2.965  24.188  0.00  0.00    +0.419 C 
ATOM      4  N   UNL     1       7.255  -2.899  24.332  0.00  0.00    -0.128 NA
ATOM      5  H   UNL     1       7.021  -1.922  24.141  0.00  0.00    +0.306 HD
ATOM      6  C   UNL     1      10.235  -1.734  22.857  0.00  0.00    +0.216 C 
ATOM      7  C   UNL     1      10.013  -0.399  22.119  0.00  0.00    +0.195 C 
ATOM      8  O   UNL     1      10.077   0.724  23.024  0.00  0.00    -0.374 OA
ATOM      9  C   UNL     1       9.099   0.597  24.074  0.00  0.00    +0.195 C 
ENDROOT
BRANCH   3  10
ATOM     10  N   UNL     1       9.172  -4.172  24.275  0.00  0.00    -0.006 NA
ATOM     11  C   UNL     1       9.307  -4.749  25.424  0.00  0.00    +0.387 C 
ATOM     12  N   UNL     1       9.958  -5.932  25.523  0.00  0.00    -0.289 N 
ATOM     13  H   UNL     1       9.598  -6.580  26.207  0.00  0.00    +0.255 HD
ATOM     14  H   UNL     1      10.112  -6.353  24.618  0.00  0.00    +0.255 HD
ATOM     15  N   UNL     1       8.912  -4.302  26.641  0.00  0.00    -0.289 N 
ATOM     16  H   UNL     1       8.545  -4.999  27.269  0.00  0.00    +0.255 HD
ATOM     17  H   UNL     1       8.230  -3.544  26.506  0.00  0.00    +0.255 HD
ENDBRANCH   3  10
TORSDOF 1
ENDMDL
MODEL 4
REMARK VINA RESULT:      -4.9      1.501      2.274
REMARK  Name = 
REMARK  1 active torsions:
REMARK  status: ('A' for Active; 'I' for Inactive)
REMARK    1  A    between atoms: C_7  and  N_9
REMARK                            x       y       z     vdW  Elec       q    Type
REMARK                         _______ _______ _______ _____ _____    ______ ____
ROOT
ATOM      1  C   UNL     1       8.166  -1.222  25.310  0.00  0.00    +0.216 C 
ATOM      2  N   UNL     1       9.389  -1.223  24.509  0.00  0.00    -0.216 N 
ATOM      3  C   UNL     1      10.108  -0.088  24.305  0.00  0.00    +0.419 C 
ATOM      4  N   UNL     1      10.676   0.473  25.331  0.00  0.00    -0.128 NA
ATOM      5  H   UNL     1      10.465  -0.147  26.117  0.00  0.00    +0.306 HD
ATOM      6  C   UNL     1       9.517  -2.410  23.668  0.00  0.00    +0.216 C 
ATOM      7  C   UNL     1       9.504  -3.633  24.605  0.00  0.00    +0.195 C 
ATOM      8  O   UNL     1       8.307  -3.672  25.409  0.00  0.00    -0.374 OA
ATOM      9  C   UNL     1       8.174  -2.473  26.196  0.00  0.00    +0.195 C 
ENDROOT
BRANCH   3  10
ATOM     10  N   UNL     1      10.289   0.441  23.062  0.00  0.00    -0.006 NA
ATOM     11  C   UNL     1       9.780   1.592  22.769  0.00  0.00    +0.387 C 
ATOM     12  N   UNL     1       9.927   2.109  21.527  0.00  0.00    -0.289 N 
ATOM     13  H   UNL     1      10.040   3.110  21.473  0.00  0.00    +0.255 HD
ATOM     14  H   UNL     1      10.614   1.601  20.988  0.00  0.00    +0.255 HD
ATOM     15  N   UNL     1       9.027   2.403  23.553  0.00  0.00    -0.289 N 
ATOM     16  H   UNL     1       9.205   3.391  23.463  0.00  0.00    +0.255 HD
ATOM     17  H   UNL     1       9.136   2.105  24.531  0.00  0.00    +0.255 HD
ENDBRANCH   3  10
TORSDOF 1
ENDMDL
MODEL 5
REMARK VINA RESULT:      -4.8      2.030      2.926
REMARK  Name = 
REMARK  1 active torsions:
REMARK  status: ('A' for Active; 'I' for Inactive)
REMARK    1  A    between atoms: C_7  and  N_9
REMARK                            x       y       z     vdW  Elec       q    Type
REMARK                         _______ _______ _______ _____ _____    ______ ____
ROOT
ATOM      1  C   UNL     1       8.021  -0.042  22.892  0.00  0.00    +0.216 C 
ATOM      2  N   UNL     1       9.285   0.107  23.612  0.00  0.00    -0.216 N 
ATOM      3  C   UNL     1       9.569   1.227  24.328  0.00  0.00    +0.419 C 
ATOM      4  N   UNL     1       8.842   1.489  25.373  0.00  0.00    -0.128 NA
ATOM      5  H   UNL     1       8.194   0.701  25.444  0.00  0.00    +0.306 HD
ATOM      6  C   UNL     1      10.308  -0.834  23.166  0.00  0.00    +0.216 C 
ATOM      7  C   UNL     1       9.746  -2.252  23.386  0.00  0.00    +0.195 C 
ATOM      8  O   UNL     1       8.500  -2.442  22.684  0.00  0.00    -0.374 OA
ATOM      9  C   UNL     1       7.518  -1.475  23.103  0.00  0.00    +0.195 C 
ENDROOT
BRANCH   3  10
ATOM     10  N   UNL     1      10.614   2.043  24.012  0.00  0.00    -0.006 NA
ATOM     11  C   UNL     1      10.396   3.175  23.426  0.00  0.00    +0.387 C 
ATOM     12  N   UNL     1      11.431   3.976  23.079  0.00  0.00    -0.289 N 
ATOM     13  H   UNL     1      11.270   4.968  23.159  0.00  0.00    +0.255 HD
ATOM     14  H   UNL     1      12.297   3.677  23.506  0.00  0.00    +0.255 HD
ATOM     15  N   UNL     1       9.212   3.703  23.032  0.00  0.00    -0.289 N 
ATOM     16  H   UNL     1       9.111   4.698  23.158  0.00  0.00    +0.255 HD
ATOM     17  H   UNL     1       8.454   3.201  23.511  0.00  0.00    +0.255 HD
ENDBRANCH   3  10
TORSDOF 1
ENDMDL
MODEL 6
REMARK VINA RESULT:      -4.8      2.511      4.546
REMARK  Name = 
REMARK  1 active torsions:
REMARK  status: ('A' for Active; 'I' for Inactive)
REMARK    1  A    between atoms: C_7  and  N_9
REMARK                            x       y       z     vdW  Elec       q    Type
REMARK                         _______ _______ _______ _____ _____    ______ ____
ROOT
ATOM      1  C   UNL     1       8.406   0.705  22.671  0.00  0.00    +0.216 C 
ATOM      2  N   UNL     1       9.663   0.089  23.094  0.00  0.00    -0.216 N 
ATOM      3  C   UNL     1       9.969  -1.197  22.774  0.00  0.00    +0.419 C 
ATOM      4  N   UNL     1      10.143  -1.494  21.521  0.00  0.00    -0.128 NA
ATOM      5  H   UNL     1      10.040  -0.605  21.025  0.00  0.00    +0.306 HD
ATOM      6  C   UNL     1      10.320   0.819  24.173  0.00  0.00    +0.216 C 
ATOM      7  C   UNL     1      10.585   2.248  23.657  0.00  0.00    +0.195 C 
ATOM      8  O   UNL     1       9.366   2.894  23.237  0.00  0.00    -0.374 OA
ATOM      9  C   UNL     1       8.708   2.134  22.205  0.00  0.00    +0.195 C 
ENDROOT
BRANCH   3  10
ATOM     10  N   UNL     1      10.145  -2.156  23.725  0.00  0.00    -0.006 NA
ATOM     11  C   UNL     1       9.228  -3.045  23.925  0.00  0.00    +0.387 C 
ATOM     12  N   UNL     1       9.381  -3.982  24.890  0.00  0.00    -0.289 N 
ATOM     13  H   UNL     1       9.012  -4.897  24.683  0.00  0.00    +0.255 HD
ATOM     14  H   UNL     1      10.328  -4.005  25.245  0.00  0.00    +0.255 HD
ATOM     15  N   UNL     1       8.028  -3.169  23.307  0.00  0.00    -0.289 N 
ATOM     16  H   UNL     1       7.728  -4.111  23.112  0.00  0.00    +0.255 HD
ATOM     17  H   UNL     1       8.046  -2.611  22.443  0.00  0.00    +0.255 HD
ENDBRANCH   3  10
TORSDOF 1
ENDMDL
MODEL 7
REMARK VINA RESULT:      -4.8      2.270      3.093
REMARK  Name = 
REMARK  1 active torsions:
REMARK  status: ('A' for Active; 'I' for Inactive)
REMARK    1  A    between atoms: C_7  and  N_9
REMARK                            x       y       z     vdW  Elec       q    Type
REMARK                         _______ _______ _______ _____ _____    ______ ____
ROOT
ATOM      1  C   UNL     1       9.386   0.510  24.133  0.00  0.00    +0.216 C 
ATOM      2  N   UNL     1       8.615   0.561  22.891  0.00  0.00    -0.216 N 
ATOM      3  C   UNL     1       8.617   1.663  22.096  0.00  0.00    +0.419 C 
ATOM      4  N   UNL     1       9.731   2.004  21.520  0.00  0.00    -0.128 NA
ATOM      5  H   UNL     1      10.398   1.277  21.791  0.00  0.00    +0.306 HD
ATOM      6  C   UNL     1       7.587  -0.473  22.817  0.00  0.00    +0.216 C 
ATOM      7  C   UNL     1       8.303  -1.833  22.933  0.00  0.00    +0.195 C 
ATOM      8  O   UNL     1       9.071  -1.926  24.151  0.00  0.00    -0.374 OA
ATOM      9  C   UNL     1      10.048  -0.870  24.228  0.00  0.00    +0.195 C 
ENDROOT
BRANCH   3  10
ATOM     10  N   UNL     1       7.484   2.380  21.849  0.00  0.00    -0.006 NA
ATOM     11  C   UNL     1       7.424   3.628  22.181  0.00  0.00    +0.387 C 
ATOM     12  N   UNL     1       6.291   4.338  21.969  0.00  0.00    -0.289 N 
ATOM     13  H   UNL     1       6.415   5.303  21.706  0.00  0.00    +0.255 HD
ATOM     14  H   UNL     1       5.643   3.843  21.372  0.00  0.00    +0.255 HD
ATOM     15  N   UNL     1       8.369   4.382  22.793  0.00  0.00    -0.289 N 
ATOM     16  H   UNL     1       8.453   5.332  22.469  0.00  0.00    +0.255 HD
ATOM     17  H   UNL     1       9.272   3.896  22.722  0.00  0.00    +0.255 HD
ENDBRANCH   3  10
TORSDOF 1
ENDMDL
MODEL 8
REMARK VINA RESULT:      -4.7      3.243      5.545
REMARK  Name = 
REMARK  1 active torsions:
REMARK  status: ('A' for Active; 'I' for Inactive)
REMARK    1  A    between atoms: C_7  and  N_9
REMARK                            x       y       z     vdW  Elec       q    Type
REMARK                         _______ _______ _______ _____ _____    ______ ____
ROOT
ATOM      1  C   UNL     1       7.542  -2.061  23.606  0.00  0.00    +0.216 C 
ATOM      2  N   UNL     1       8.522  -3.140  23.715  0.00  0.00    -0.216 N 
ATOM      3  C   UNL     1       8.143  -4.430  23.918  0.00  0.00    +0.419 C 
ATOM      4  N   UNL     1       7.463  -5.025  22.984  0.00  0.00    -0.128 NA
ATOM      5  H   UNL     1       7.399  -4.337  22.229  0.00  0.00    +0.306 HD
ATOM      6  C   UNL     1       9.874  -2.656  23.981  0.00  0.00    +0.216 C 
ATOM      7  C   UNL     1      10.255  -1.718  22.819  0.00  0.00    +0.195 C 
ATOM      8  O   UNL     1       9.314  -0.633  22.682  0.00  0.00    -0.374 OA
ATOM      9  C   UNL     1       7.979  -1.132  22.468  0.00  0.00    +0.195 C 
ENDROOT
BRANCH   3  10
ATOM     10  N   UNL     1       8.497  -5.121  25.037  0.00  0.00    -0.006 NA
ATOM     11  C   UNL     1       7.644  -5.282  25.995  0.00  0.00    +0.387 C 
ATOM     12  N   UNL     1       7.998  -5.939  27.124  0.00  0.00    -0.289 N 
ATOM     13  H   UNL     1       7.283  -6.507  27.551  0.00  0.00    +0.255 HD
ATOM     14  H   UNL     1       8.879  -6.423  27.017  0.00  0.00    +0.255 HD
ATOM     15  N   UNL     1       6.371  -4.823  26.073  0.00  0.00    -0.289 N 
ATOM     16  H   UNL     1       5.702  -5.449  26.493  0.00  0.00    +0.255 HD
ATOM     17  H   UNL     1       6.064  -4.548  25.131  0.00  0.00    +0.255 HD
ENDBRANCH   3  10
TORSDOF 1
ENDMDL
MODEL 9
REMARK VINA RESULT:      -4.7      3.365      5.711
REMARK  Name = 
REMARK  1 active torsions:
REMARK  status: ('A' for Active; 'I' for Inactive)
REMARK    1  A    between atoms: C_7  and  N_9
REMARK                            x       y       z     vdW  Elec       q    Type
REMARK                         _______ _______ _______ _____ _____    ______ ____
ROOT
ATOM      1  C   UNL     1       9.049  -2.230  23.420  0.00  0.00    +0.216 C 
ATOM      2  N   UNL     1       8.615  -2.869  24.661  0.00  0.00    -0.216 N 
ATOM      3  C   UNL     1       8.519  -4.221  24.771  0.00  0.00    +0.419 C 
ATOM      4  N   UNL     1       9.610  -4.923  24.688  0.00  0.00    -0.128 NA
ATOM      5  H   UNL     1      10.358  -4.232  24.591  0.00  0.00    +0.306 HD
ATOM      6  C   UNL     1       7.943  -1.946  25.571  0.00  0.00    +0.216 C 
ATOM      7  C   UNL     1       8.941  -0.815  25.886  0.00  0.00    +0.195 C 
ATOM      8  O   UNL     1       9.388  -0.153  24.685  0.00  0.00    -0.374 OA
ATOM      9  C   UNL     1      10.006  -1.088  23.780  0.00  0.00    +0.195 C 
ENDROOT
BRANCH   3  10
ATOM     10  N   UNL     1       7.332  -4.845  25.014  0.00  0.00    -0.006 NA
ATOM     11  C   UNL     1       7.167  -5.518  26.105  0.00  0.00    +0.387 C 
ATOM     12  N   UNL     1       6.004  -6.169  26.339  0.00  0.00    -0.289 N 
ATOM     13  H   UNL     1       5.691  -6.188  27.297  0.00  0.00    +0.255 HD
ATOM     14  H   UNL     1       5.281  -5.891  25.689  0.00  0.00    +0.255 HD
ATOM     15  N   UNL     1       8.058  -5.730  27.105  0.00  0.00    -0.289 N 
ATOM     16  H   UNL     1       7.681  -5.717  28.040  0.00  0.00    +0.255 HD
ATOM     17  H   UNL     1       8.820  -5.045  27.015  0.00  0.00    +0.255 HD
ENDBRANCH   3  10
TORSDOF 1
ENDMDL
