MODEL 1
REMARK VINA RESULT:      -7.2      0.000      0.000
REMARK  Name = 
REMARK  5 active torsions:
REMARK  status: ('A' for Active; 'I' for Inactive)
REMARK    1  A    between atoms: C_3  and  N_4
REMARK    2  A    between atoms: N_4  and  C_5
REMARK    3  A    between atoms: N_12  and  C_15
REMARK    4  A    between atoms: C_17  and  C_20
REMARK    5  A    between atoms: C_20  and  O_21
REMARK                            x       y       z     vdW  Elec       q    Type
REMARK                         _______ _______ _______ _____ _____    ______ ____
ROOT
ATOM      1  C   UNL     1       7.025  -4.459  24.666  0.00  0.00    +0.152 A 
ATOM      2  N   UNL     1       8.057  -5.162  25.207  0.00  0.00    -0.198 NA
ATOM      3  C   UNL     1       9.315  -4.718  25.057  0.00  0.00    +0.216 A 
ATOM      4  N   UNL     1      10.302  -5.493  25.634  0.00  0.00    -0.327 N 
ATOM      5  H   UNL     1       9.949  -6.434  25.754  0.00  0.00    +0.145 HD
ATOM      6  H   UNL     1      11.171  -5.384  25.131  0.00  0.00    +0.145 HD
ATOM      7  N   UNL     1       9.713  -3.626  24.381  0.00  0.00    -0.195 NA
ATOM      8  C   UNL     1       8.676  -2.949  23.871  0.00  0.00    +0.168 A 
ATOM      9  N   UNL     1       8.698  -1.781  23.153  0.00  0.00    -0.308 N 
ATOM     10  C   UNL     1       7.394  -1.446  22.884  0.00  0.00    +0.202 A 
ATOM     11  N   UNL     1       6.545  -2.338  23.349  0.00  0.00    -0.231 NA
ATOM     12  C   UNL     1       7.336  -3.282  23.967  0.00  0.00    +0.148 A 
ENDROOT
BRANCH   9  13
ATOM     13  C   UNL     1       9.899  -1.064  22.755  0.00  0.00    +0.113 C 
ATOM     14  C   UNL     1       9.689  -0.182  21.556  0.00  0.00    -0.006 C 
ATOM     15  C   UNL     1       9.660   1.113  21.882  0.00  0.00    -0.023 C 
ATOM     16  C   UNL     1       9.868   1.322  23.357  0.00  0.00    +0.039 C 
ATOM     17  C   UNL     1      10.397  -0.053  23.804  0.00  0.00    +0.039 C 
BRANCH  16  18
ATOM     18  C   UNL     1      10.845   2.455  23.678  0.00  0.00    +0.163 C 
BRANCH  18  19
ATOM     19  O   UNL     1      10.865   3.415  22.624  0.00  0.00    -0.394 OA
ATOM     20  H   UNL     1      10.600   4.272  23.003  0.00  0.00    +0.209 HD
ENDBRANCH  18  19
ENDBRANCH  16  18
ENDBRANCH   9  13
BRANCH   1  21
ATOM     21  N   UNL     1       5.688  -4.878  24.827  0.00  0.00    -0.324 N 
ATOM     22  H   UNL     1       5.463  -4.911  25.819  0.00  0.00    +0.148 HD
BRANCH  21  24
ATOM     23  C   UNL     1       5.248  -5.801  22.461  0.00  0.00    +0.024 C 
ATOM     24  C   UNL     1       5.181  -5.933  23.955  0.00  0.00    +0.072 C 
ATOM     25  C   UNL     1       3.924  -5.720  23.161  0.00  0.00    +0.024 C 
ENDBRANCH  21  24
ENDBRANCH   1  21
TORSDOF 5
ENDMDL
MODEL 2
REMARK VINA RESULT:      -6.4      3.295      6.943
REMARK  Name = 
REMARK  5 active torsions:
REMARK  status: ('A' for Active; 'I' for Inactive)
REMARK    1  A    between atoms: C_3  and  N_4
REMARK    2  A    between atoms: N_4  and  C_5
REMARK    3  A    between atoms: N_12  and  C_15
REMARK    4  A    between atoms: C_17  and  C_20
REMARK    5  A    between atoms: C_20  and  O_21
REMARK                            x       y       z     vdW  Elec       q    Type
REMARK                         _______ _______ _______ _____ _____    ______ ____
ROOT
ATOM      1  C   UNL     1       9.021  -2.827  23.488  0.00  0.00    +0.152 A 
ATOM      2  N   UNL     1       9.790  -3.647  24.255  0.00  0.00    -0.198 NA
ATOM      3  C   UNL     1       9.212  -4.636  24.957  0.00  0.00    +0.216 A 
ATOM      4  N   UNL     1      10.066  -5.418  25.711  0.00  0.00    -0.327 N 
ATOM      5  H   UNL     1      10.915  -4.898  25.888  0.00  0.00    +0.145 HD
ATOM      6  H   UNL     1       9.578  -5.798  26.509  0.00  0.00    +0.145 HD
ATOM      7  N   UNL     1       7.901  -4.918  25.030  0.00  0.00    -0.195 NA
ATOM      8  C   UNL     1       7.171  -4.103  24.256  0.00  0.00    +0.168 A 
ATOM      9  N   UNL     1       5.814  -4.114  24.058  0.00  0.00    -0.308 N 
ATOM     10  C   UNL     1       5.529  -3.123  23.151  0.00  0.00    +0.202 A 
ATOM     11  N   UNL     1       6.606  -2.459  22.785  0.00  0.00    -0.231 NA
ATOM     12  C   UNL     1       7.637  -3.063  23.471  0.00  0.00    +0.148 A 
ENDROOT
BRANCH   9  13
ATOM     13  C   UNL     1       4.878  -5.012  24.715  0.00  0.00    +0.113 C 
ATOM     14  C   UNL     1       3.553  -4.367  25.015  0.00  0.00    -0.006 C 
ATOM     15  C   UNL     1       2.586  -4.804  24.203  0.00  0.00    -0.023 C 
ATOM     16  C   UNL     1       3.094  -5.834  23.232  0.00  0.00    +0.039 C 
ATOM     17  C   UNL     1       4.454  -6.212  23.848  0.00  0.00    +0.039 C 
BRANCH  16  18
ATOM     18  C   UNL     1       2.165  -7.041  23.086  0.00  0.00    +0.163 C 
BRANCH  18  19
ATOM     19  O   UNL     1       2.744  -8.197  23.684  0.00  0.00    -0.394 OA
ATOM     20  H   UNL     1       2.118  -8.525  24.353  0.00  0.00    +0.209 HD
ENDBRANCH  18  19
ENDBRANCH  16  18
ENDBRANCH   9  13
BRANCH   1  21
ATOM     21  N   UNL     1       9.592  -1.797  22.714  0.00  0.00    -0.324 N 
ATOM     22  H   UNL     1      10.480  -2.118  22.330  0.00  0.00    +0.148 HD
BRANCH  21  24
ATOM     23  C   UNL     1      10.019   0.724  22.391  0.00  0.00    +0.024 C 
ATOM     24  C   UNL     1       9.493  -0.425  23.202  0.00  0.00    +0.072 C 
ATOM     25  C   UNL     1      10.724   0.311  23.649  0.00  0.00    +0.024 C 
ENDBRANCH  21  24
ENDBRANCH   1  21
TORSDOF 5
ENDMDL
MODEL 3
REMARK VINA RESULT:      -6.3      3.464      7.208
REMARK  Name = 
REMARK  5 active torsions:
REMARK  status: ('A' for Active; 'I' for Inactive)
REMARK    1  A    between atoms: C_3  and  N_4
REMARK    2  A    between atoms: N_4  and  C_5
REMARK    3  A    between atoms: N_12  and  C_15
REMARK    4  A    between atoms: C_17  and  C_20
REMARK    5  A    between atoms: C_20  and  O_21
REMARK                            x       y       z     vdW  Elec       q    Type
REMARK                         _______ _______ _______ _____ _____    ______ ____
ROOT
ATOM      1  C   UNL     1       9.334   0.614  24.328  0.00  0.00    +0.152 A 
ATOM      2  N   UNL     1       9.579   0.399  23.007  0.00  0.00    -0.198 NA
ATOM      3  C   UNL     1       9.495  -0.845  22.508  0.00  0.00    +0.216 A 
ATOM      4  N   UNL     1       9.763  -0.974  21.159  0.00  0.00    -0.327 N 
ATOM      5  H   UNL     1      10.321  -0.184  20.860  0.00  0.00    +0.145 HD
ATOM      6  H   UNL     1      10.120  -1.897  20.960  0.00  0.00    +0.145 HD
ATOM      7  N   UNL     1       9.214  -1.972  23.185  0.00  0.00    -0.195 NA
ATOM      8  C   UNL     1       8.966  -1.727  24.479  0.00  0.00    +0.168 A 
ATOM      9  N   UNL     1       8.619  -2.623  25.458  0.00  0.00    -0.308 N 
ATOM     10  C   UNL     1       8.425  -1.905  26.613  0.00  0.00    +0.202 A 
ATOM     11  N   UNL     1       8.658  -0.621  26.445  0.00  0.00    -0.231 NA
ATOM     12  C   UNL     1       8.999  -0.499  25.115  0.00  0.00    +0.148 A 
ENDROOT
BRANCH   9  13
ATOM     13  C   UNL     1       8.503  -4.061  25.276  0.00  0.00    +0.113 C 
ATOM     14  C   UNL     1       8.708  -4.835  26.549  0.00  0.00    -0.006 C 
ATOM     15  C   UNL     1       7.563  -5.334  27.025  0.00  0.00    -0.023 C 
ATOM     16  C   UNL     1       6.395  -4.996  26.138  0.00  0.00    +0.039 C 
ATOM     17  C   UNL     1       7.097  -4.522  24.851  0.00  0.00    +0.039 C 
BRANCH  16  18
ATOM     18  C   UNL     1       5.460  -6.181  25.890  0.00  0.00    +0.163 C 
BRANCH  18  19
ATOM     19  O   UNL     1       5.356  -6.992  27.057  0.00  0.00    -0.394 OA
ATOM     20  H   UNL     1       5.281  -6.396  27.823  0.00  0.00    +0.209 HD
ENDBRANCH  18  19
ENDBRANCH  16  18
ENDBRANCH   9  13
BRANCH   1  21
ATOM     21  N   UNL     1       9.384   1.909  24.882  0.00  0.00    -0.324 N 
ATOM     22  H   UNL     1       9.022   1.881  25.835  0.00  0.00    +0.148 HD
BRANCH  21  24
ATOM     23  C   UNL     1      10.035   4.127  23.743  0.00  0.00    +0.024 C 
ATOM     24  C   UNL     1       9.037   3.043  24.032  0.00  0.00    +0.072 C 
ATOM     25  C   UNL     1       8.858   4.410  24.630  0.00  0.00    +0.024 C 
ENDBRANCH  21  24
ENDBRANCH   1  21
TORSDOF 5
ENDMDL
MODEL 4
REMARK VINA RESULT:      -6.3      3.524      7.645
REMARK  Name = 
REMARK  5 active torsions:
REMARK  status: ('A' for Active; 'I' for Inactive)
REMARK    1  A    between atoms: C_3  and  N_4
REMARK    2  A    between atoms: N_4  and  C_5
REMARK    3  A    between atoms: N_12  and  C_15
REMARK    4  A    between atoms: C_17  and  C_20
REMARK    5  A    between atoms: C_20  and  O_21
REMARK                            x       y       z     vdW  Elec       q    Type
REMARK                         _______ _______ _______ _____ _____    ______ ____
ROOT
ATOM      1  C   UNL     1       9.829   2.605  23.451  0.00  0.00    +0.152 A 
ATOM      2  N   UNL     1       9.158   3.115  24.520  0.00  0.00    -0.198 NA
ATOM      3  C   UNL     1       8.322   2.329  25.217  0.00  0.00    +0.216 A 
ATOM      4  N   UNL     1       7.681   2.927  26.284  0.00  0.00    -0.327 N 
ATOM      5  H   UNL     1       7.672   3.929  26.140  0.00  0.00    +0.145 HD
ATOM      6  H   UNL     1       6.795   2.474  26.458  0.00  0.00    +0.145 HD
ATOM      7  N   UNL     1       8.021   1.043  24.966  0.00  0.00    -0.195 NA
ATOM      8  C   UNL     1       8.704   0.566  23.917  0.00  0.00    +0.168 A 
ATOM      9  N   UNL     1       8.675  -0.701  23.394  0.00  0.00    -0.308 N 
ATOM     10  C   UNL     1       9.571  -0.730  22.354  0.00  0.00    +0.202 A 
ATOM     11  N   UNL     1      10.142   0.439  22.156  0.00  0.00    -0.231 NA
ATOM     12  C   UNL     1       9.606   1.257  23.128  0.00  0.00    +0.148 A 
ENDROOT
BRANCH   9  13
ATOM     13  C   UNL     1       7.828  -1.785  23.867  0.00  0.00    +0.113 C 
ATOM     14  C   UNL     1       6.402  -1.663  23.408  0.00  0.00    -0.006 C 
ATOM     15  C   UNL     1       6.103  -2.551  22.454  0.00  0.00    -0.023 C 
ATOM     16  C   UNL     1       7.275  -3.435  22.127  0.00  0.00    +0.039 C 
ATOM     17  C   UNL     1       8.220  -3.167  23.313  0.00  0.00    +0.039 C 
BRANCH  16  18
ATOM     18  C   UNL     1       6.903  -4.914  22.000  0.00  0.00    +0.163 C 
BRANCH  18  19
ATOM     19  O   UNL     1       5.894  -5.095  21.010  0.00  0.00    -0.394 OA
ATOM     20  H   UNL     1       6.211  -5.776  20.390  0.00  0.00    +0.209 HD
ENDBRANCH  18  19
ENDBRANCH  16  18
ENDBRANCH   9  13
BRANCH   1  21
ATOM     21  N   UNL     1      10.736   3.389  22.711  0.00  0.00    -0.324 N 
ATOM     22  H   UNL     1      11.032   2.873  21.885  0.00  0.00    +0.148 HD
BRANCH  21  24
ATOM     23  C   UNL     1      11.545   5.654  23.639  0.00  0.00    +0.024 C 
ATOM     24  C   UNL     1      11.727   4.177  23.439  0.00  0.00    +0.072 C 
ATOM     25  C   UNL     1      12.606   5.150  22.706  0.00  0.00    +0.024 C 
ENDBRANCH  21  24
ENDBRANCH   1  21
TORSDOF 5
ENDMDL
MODEL 5
REMARK VINA RESULT:      -6.3      1.442      1.959
REMARK  Name = 
REMARK  5 active torsions:
REMARK  status: ('A' for Active; 'I' for Inactive)
REMARK    1  A    between atoms: C_3  and  N_4
REMARK    2  A    between atoms: N_4  and  C_5
REMARK    3  A    between atoms: N_12  and  C_15
REMARK    4  A    between atoms: C_17  and  C_20
REMARK    5  A    between atoms: C_20  and  O_21
REMARK                            x       y       z     vdW  Elec       q    Type
REMARK                         _______ _______ _______ _____ _____    ______ ____
ROOT
ATOM      1  C   UNL     1       5.939  -5.539  23.972  0.00  0.00    +0.152 A 
ATOM      2  N   UNL     1       6.322  -5.954  25.210  0.00  0.00    -0.198 NA
ATOM      3  C   UNL     1       7.284  -5.285  25.867  0.00  0.00    +0.216 A 
ATOM      4  N   UNL     1       7.614  -5.774  27.116  0.00  0.00    -0.327 N 
ATOM      5  H   UNL     1       7.339  -6.747  27.168  0.00  0.00    +0.145 HD
ATOM      6  H   UNL     1       8.573  -5.550  27.337  0.00  0.00    +0.145 HD
ATOM      7  N   UNL     1       7.976  -4.221  25.426  0.00  0.00    -0.195 NA
ATOM      8  C   UNL     1       7.569  -3.829  24.211  0.00  0.00    +0.168 A 
ATOM      9  N   UNL     1       8.022  -2.771  23.467  0.00  0.00    -0.308 N 
ATOM     10  C   UNL     1       7.279  -2.739  22.312  0.00  0.00    +0.202 A 
ATOM     11  N   UNL     1       6.408  -3.724  22.255  0.00  0.00    -0.231 NA
ATOM     12  C   UNL     1       6.582  -4.412  23.436  0.00  0.00    +0.148 A 
ENDROOT
BRANCH   9  13
ATOM     13  C   UNL     1       9.104  -1.877  23.851  0.00  0.00    +0.113 C 
ATOM     14  C   UNL     1      10.224  -1.842  22.850  0.00  0.00    -0.006 C 
ATOM     15  C   UNL     1      10.239  -0.704  22.150  0.00  0.00    -0.023 C 
ATOM     16  C   UNL     1       9.140   0.230  22.579  0.00  0.00    +0.039 C 
ATOM     17  C   UNL     1       8.692  -0.395  23.914  0.00  0.00    +0.039 C 
BRANCH  16  18
ATOM     18  C   UNL     1       9.604   1.679  22.740  0.00  0.00    +0.163 C 
BRANCH  18  19
ATOM     19  O   UNL     1      10.025   2.214  21.488  0.00  0.00    -0.394 OA
ATOM     20  H   UNL     1      10.841   2.721  21.646  0.00  0.00    +0.209 HD
ENDBRANCH  18  19
ENDBRANCH  16  18
ENDBRANCH   9  13
BRANCH   1  21
ATOM     21  N   UNL     1       4.913  -6.197  23.263  0.00  0.00    -0.324 N 
ATOM     22  H   UNL     1       5.297  -6.590  22.404  0.00  0.00    +0.148 HD
BRANCH  21  24
ATOM     23  C   UNL     1       2.653  -5.690  24.394  0.00  0.00    +0.024 C 
ATOM     24  C   UNL     1       3.590  -5.583  23.225  0.00  0.00    +0.072 C 
ATOM     25  C   UNL     1       2.360  -6.441  23.129  0.00  0.00    +0.024 C 
ENDBRANCH  21  24
ENDBRANCH   1  21
TORSDOF 5
ENDMDL
MODEL 6
REMARK VINA RESULT:      -6.2      1.742      2.424
REMARK  Name = 
REMARK  5 active torsions:
REMARK  status: ('A' for Active; 'I' for Inactive)
REMARK    1  A    between atoms: C_3  and  N_4
REMARK    2  A    between atoms: N_4  and  C_5
REMARK    3  A    between atoms: N_12  and  C_15
REMARK    4  A    between atoms: C_17  and  C_20
REMARK    5  A    between atoms: C_20  and  O_21
REMARK                            x       y       z     vdW  Elec       q    Type
REMARK                         _______ _______ _______ _____ _____    ______ ____
ROOT
ATOM      1  C   UNL     1       7.829  -3.943  23.683  0.00  0.00    +0.152 A 
ATOM      2  N   UNL     1       7.269  -4.150  24.906  0.00  0.00    -0.198 NA
ATOM      3  C   UNL     1       7.420  -3.229  25.871  0.00  0.00    +0.216 A 
ATOM      4  N   UNL     1       6.823  -3.520  27.082  0.00  0.00    -0.327 N 
ATOM      5  H   UNL     1       6.687  -4.521  27.147  0.00  0.00    +0.145 HD
ATOM      6  H   UNL     1       7.322  -3.070  27.836  0.00  0.00    +0.145 HD
ATOM      7  N   UNL     1       8.115  -2.081  25.793  0.00  0.00    -0.195 NA
ATOM      8  C   UNL     1       8.644  -1.899  24.576  0.00  0.00    +0.168 A 
ATOM      9  N   UNL     1       9.384  -0.836  24.125  0.00  0.00    -0.308 N 
ATOM     10  C   UNL     1       9.667  -1.073  22.802  0.00  0.00    +0.202 A 
ATOM     11  N   UNL     1       9.190  -2.229  22.390  0.00  0.00    -0.231 NA
ATOM     12  C   UNL     1       8.549  -2.753  23.492  0.00  0.00    +0.148 A 
ENDROOT
BRANCH   9  13
ATOM     13  C   UNL     1       9.789   0.306  24.929  0.00  0.00    +0.113 C 
ATOM     14  C   UNL     1      11.021   0.988  24.406  0.00  0.00    -0.006 C 
ATOM     15  C   UNL     1      10.742   2.162  23.830  0.00  0.00    -0.023 C 
ATOM     16  C   UNL     1       9.272   2.476  23.889  0.00  0.00    +0.039 C 
ATOM     17  C   UNL     1       8.768   1.458  24.930  0.00  0.00    +0.039 C 
BRANCH  16  18
ATOM     18  C   UNL     1       8.976   3.921  24.296  0.00  0.00    +0.163 C 
BRANCH  18  19
ATOM     19  O   UNL     1       9.183   4.805  23.197  0.00  0.00    -0.394 OA
ATOM     20  H   UNL     1       9.998   5.307  23.375  0.00  0.00    +0.209 HD
ENDBRANCH  18  19
ENDBRANCH  16  18
ENDBRANCH   9  13
BRANCH   1  21
ATOM     21  N   UNL     1       7.669  -4.873  22.636  0.00  0.00    -0.324 N 
ATOM     22  H   UNL     1       8.552  -4.975  22.139  0.00  0.00    +0.148 HD
BRANCH  21  24
ATOM     23  C   UNL     1       5.315  -5.809  22.158  0.00  0.00    +0.024 C 
ATOM     24  C   UNL     1       6.429  -4.846  21.866  0.00  0.00    +0.072 C 
ATOM     25  C   UNL     1       6.115  -5.951  20.897  0.00  0.00    +0.024 C 
ENDBRANCH  21  24
ENDBRANCH   1  21
TORSDOF 5
ENDMDL
MODEL 7
REMARK VINA RESULT:      -6.0      2.692      4.303
REMARK  Name = 
REMARK  5 active torsions:
REMARK  status: ('A' for Active; 'I' for Inactive)
REMARK    1  A    between atoms: C_3  and  N_4
REMARK    2  A    between atoms: N_4  and  C_5
REMARK    3  A    between atoms: N_12  and  C_15
REMARK    4  A    between atoms: C_17  and  C_20
REMARK    5  A    between atoms: C_20  and  O_21
REMARK                            x       y       z     vdW  Elec       q    Type
REMARK                         _______ _______ _______ _____ _____    ______ ____
ROOT
ATOM      1  C   UNL     1       5.338  -6.544  26.268  0.00  0.00    +0.152 A 
ATOM      2  N   UNL     1       4.561  -6.802  25.181  0.00  0.00    -0.198 NA
ATOM      3  C   UNL     1       4.848  -6.219  24.005  0.00  0.00    +0.216 A 
ATOM      4  N   UNL     1       4.007  -6.534  22.955  0.00  0.00    -0.327 N 
ATOM      5  H   UNL     1       3.124  -6.856  23.329  0.00  0.00    +0.145 HD
ATOM      6  H   UNL     1       3.981  -5.776  22.289  0.00  0.00    +0.145 HD
ATOM      7  N   UNL     1       5.836  -5.343  23.755  0.00  0.00    -0.195 NA
ATOM      8  C   UNL     1       6.589  -5.117  24.840  0.00  0.00    +0.168 A 
ATOM      9  N   UNL     1       7.693  -4.312  24.951  0.00  0.00    -0.308 N 
ATOM     10  C   UNL     1       8.154  -4.432  26.239  0.00  0.00    +0.202 A 
ATOM     11  N   UNL     1       7.400  -5.231  26.964  0.00  0.00    -0.231 NA
ATOM     12  C   UNL     1       6.418  -5.663  26.100  0.00  0.00    +0.148 A 
ENDROOT
BRANCH   9  13
ATOM     13  C   UNL     1       8.238  -3.484  23.886  0.00  0.00    +0.113 C 
ATOM     14  C   UNL     1       7.370  -2.303  23.554  0.00  0.00    -0.006 C 
ATOM     15  C   UNL     1       7.891  -1.155  23.996  0.00  0.00    -0.023 C 
ATOM     16  C   UNL     1       9.212  -1.369  24.684  0.00  0.00    +0.039 C 
ATOM     17  C   UNL     1       9.570  -2.803  24.249  0.00  0.00    +0.039 C 
BRANCH  16  18
ATOM     18  C   UNL     1      10.280  -0.353  24.275  0.00  0.00    +0.163 C 
BRANCH  18  19
ATOM     19  O   UNL     1      10.598   0.508  25.366  0.00  0.00    -0.394 OA
ATOM     20  H   UNL     1      10.695  -0.048  26.159  0.00  0.00    +0.209 HD
ENDBRANCH  18  19
ENDBRANCH  16  18
ENDBRANCH   9  13
BRANCH   1  21
ATOM     21  N   UNL     1       5.087  -7.158  27.512  0.00  0.00    -0.324 N 
ATOM     22  H   UNL     1       5.221  -8.164  27.423  0.00  0.00    +0.148 HD
BRANCH  21  24
ATOM     23  C   UNL     1       3.962  -5.259  28.844  0.00  0.00    +0.024 C 
ATOM     24  C   UNL     1       3.974  -6.666  28.318  0.00  0.00    +0.072 C 
ATOM     25  C   UNL     1       4.160  -6.409  29.787  0.00  0.00    +0.024 C 
ENDBRANCH  21  24
ENDBRANCH   1  21
TORSDOF 5
ENDMDL
MODEL 8
REMARK VINA RESULT:      -5.9      1.970      2.678
REMARK  Name = 
REMARK  5 active torsions:
REMARK  status: ('A' for Active; 'I' for Inactive)
REMARK    1  A    between atoms: C_3  and  N_4
REMARK    2  A    between atoms: N_4  and  C_5
REMARK    3  A    between atoms: N_12  and  C_15
REMARK    4  A    between atoms: C_17  and  C_20
REMARK    5  A    between atoms: C_20  and  O_21
REMARK                            x       y       z     vdW  Elec       q    Type
REMARK                         _______ _______ _______ _____ _____    ______ ____
ROOT
ATOM      1  C   UNL     1       7.234  -4.962  24.877  0.00  0.00    +0.152 A 
ATOM      2  N   UNL     1       6.853  -5.545  23.708  0.00  0.00    -0.198 NA
ATOM      3  C   UNL     1       7.015  -4.883  22.551  0.00  0.00    +0.216 A 
ATOM      4  N   UNL     1       6.600  -5.546  21.413  0.00  0.00    -0.327 N 
ATOM      5  H   UNL     1       5.923  -6.252  21.675  0.00  0.00    +0.145 HD
ATOM      6  H   UNL     1       6.327  -4.883  20.701  0.00  0.00    +0.145 HD
ATOM      7  N   UNL     1       7.504  -3.641  22.390  0.00  0.00    -0.195 NA
ATOM      8  C   UNL     1       7.881  -3.098  23.555  0.00  0.00    +0.168 A 
ATOM      9  N   UNL     1       8.445  -1.867  23.772  0.00  0.00    -0.308 N 
ATOM     10  C   UNL     1       8.698  -1.770  25.119  0.00  0.00    +0.202 A 
ATOM     11  N   UNL     1       8.301  -2.838  25.778  0.00  0.00    -0.231 NA
ATOM     12  C   UNL     1       7.788  -3.673  24.810  0.00  0.00    +0.148 A 
ENDROOT
BRANCH   9  13
ATOM     13  C   UNL     1       8.700  -0.869  22.746  0.00  0.00    +0.113 C 
ATOM     14  C   UNL     1       7.664   0.219  22.711  0.00  0.00    -0.006 C 
ATOM     15  C   UNL     1       8.126   1.372  23.203  0.00  0.00    -0.023 C 
ATOM     16  C   UNL     1       9.563   1.258  23.634  0.00  0.00    +0.039 C 
ATOM     17  C   UNL     1       9.993  -0.063  22.970  0.00  0.00    +0.039 C 
BRANCH  16  18
ATOM     18  C   UNL     1      10.425   2.442  23.189  0.00  0.00    +0.163 C 
BRANCH  18  19
ATOM     19  O   UNL     1      10.454   2.537  21.767  0.00  0.00    -0.394 OA
ATOM     20  H   UNL     1      11.098   3.228  21.533  0.00  0.00    +0.209 HD
ENDBRANCH  18  19
ENDBRANCH  16  18
ENDBRANCH   9  13
BRANCH   1  21
ATOM     21  N   UNL     1       7.106  -5.635  26.109  0.00  0.00    -0.324 N 
ATOM     22  H   UNL     1       7.869  -6.304  26.207  0.00  0.00    +0.148 HD
BRANCH  21  24
ATOM     23  C   UNL     1       4.897  -5.058  27.305  0.00  0.00    +0.024 C 
ATOM     24  C   UNL     1       5.771  -6.022  26.554  0.00  0.00    +0.072 C 
ATOM     25  C   UNL     1       5.494  -6.237  28.015  0.00  0.00    +0.024 C 
ENDBRANCH  21  24
ENDBRANCH   1  21
TORSDOF 5
ENDMDL
MODEL 9
REMARK VINA RESULT:      -5.9      4.094      7.839
REMARK  Name = 
REMARK  5 active torsions:
REMARK  status: ('A' for Active; 'I' for Inactive)
REMARK    1  A    between atoms: C_3  and  N_4
REMARK    2  A    between atoms: N_4  and  C_5
REMARK    3  A    between atoms: N_12  and  C_15
REMARK    4  A    between atoms: C_17  and  C_20
REMARK    5  A    between atoms: C_20  and  O_21
REMARK                            x       y       z     vdW  Elec       q    Type
REMARK                         _______ _______ _______ _____ _____    ______ ____
ROOT
ATOM      1  C   UNL     1       7.848   4.009  22.759  0.00  0.00    +0.152 A 
ATOM      2  N   UNL     1       6.492   3.896  22.735  0.00  0.00    -0.198 NA
ATOM      3  C   UNL     1       5.926   2.680  22.664  0.00  0.00    +0.216 A 
ATOM      4  N   UNL     1       4.545   2.657  22.642  0.00  0.00    -0.327 N 
ATOM      5  H   UNL     1       4.209   3.556  22.321  0.00  0.00    +0.145 HD
ATOM      6  H   UNL     1       4.217   1.837  22.152  0.00  0.00    +0.145 HD
ATOM      7  N   UNL     1       6.558   1.497  22.578  0.00  0.00    -0.195 NA
ATOM      8  C   UNL     1       7.890   1.639  22.616  0.00  0.00    +0.168 A 
ATOM      9  N   UNL     1       8.847   0.657  22.582  0.00  0.00    -0.308 N 
ATOM     10  C   UNL     1      10.067   1.278  22.688  0.00  0.00    +0.202 A 
ATOM     11  N   UNL     1       9.955   2.587  22.753  0.00  0.00    -0.231 NA
ATOM     12  C   UNL     1       8.598   2.823  22.707  0.00  0.00    +0.148 A 
ENDROOT
BRANCH   9  13
ATOM     13  C   UNL     1       8.583  -0.767  22.441  0.00  0.00    +0.113 C 
ATOM     14  C   UNL     1       9.824  -1.572  22.176  0.00  0.00    -0.006 C 
ATOM     15  C   UNL     1      10.200  -2.284  23.243  0.00  0.00    -0.023 C 
ATOM     16  C   UNL     1       9.260  -2.092  24.402  0.00  0.00    +0.039 C 
ATOM     17  C   UNL     1       8.047  -1.429  23.723  0.00  0.00    +0.039 C 
BRANCH  16  18
ATOM     18  C   UNL     1       8.892  -3.398  25.107  0.00  0.00    +0.163 C 
BRANCH  18  19
ATOM     19  O   UNL     1       9.756  -4.454  24.694  0.00  0.00    -0.394 OA
ATOM     20  H   UNL     1      10.625  -4.299  25.107  0.00  0.00    +0.209 HD
ENDBRANCH  18  19
ENDBRANCH  16  18
ENDBRANCH   9  13
BRANCH   1  21
ATOM     21  N   UNL     1       8.478   5.265  22.862  0.00  0.00    -0.324 N 
ATOM     22  H   UNL     1       8.950   5.478  21.984  0.00  0.00    +0.148 HD
BRANCH  21  24
ATOM     23  C   UNL     1       9.250   7.039  24.565  0.00  0.00    +0.024 C 
ATOM     24  C   UNL     1       9.139   5.610  24.116  0.00  0.00    +0.072 C 
ATOM     25  C   UNL     1      10.473   6.302  24.104  0.00  0.00    +0.024 C 
ENDBRANCH  21  24
ENDBRANCH   1  21
TORSDOF 5
ENDMDL
