MODEL 1
REMARK VINA RESULT:      -3.5      0.000      0.000
REMARK  Name = 
REMARK  4 active torsions:
REMARK  status: ('A' for Active; 'I' for Inactive)
REMARK    1  A    between atoms: C_1  and  O_3
REMARK    2  A    between atoms: C_1  and  P_4
REMARK    3  A    between atoms: P_4  and  O_6
REMARK    4  A    between atoms: P_4  and  O_7
REMARK                            x       y       z     vdW  Elec       q    Type
REMARK                         _______ _______ _______ _____ _____    ______ ____
ROOT
ATOM      1  P   UNL     1       7.753  -4.715  26.382  0.00  0.00    +0.434 P 
ATOM      2  O   UNL     1       6.672  -5.315  25.455  0.00  0.00    -0.247 OA
ENDROOT
BRANCH   1   3
ATOM      3  C   UNL     1       9.085  -5.278  25.260  0.00  0.00    +0.418 C 
ATOM      4  O   UNL     1       8.839  -5.423  24.070  0.00  0.00    -0.237 OA
BRANCH   3   5
ATOM      5  O   UNL     1      10.316  -5.549  25.801  0.00  0.00    -0.472 OA
ATOM      6  H   UNL     1      10.242  -5.304  26.759  0.00  0.00    +0.296 HD
ENDBRANCH   3   5
ENDBRANCH   1   3
BRANCH   1   7
ATOM      7  O   UNL     1       6.493  -4.182  27.442  0.00  0.00    -0.316 OA
ATOM      8  H   UNL     1       6.941  -3.863  28.249  0.00  0.00    +0.220 HD
ENDBRANCH   1   7
BRANCH   1   9
ATOM      9  O   UNL     1       8.014  -5.919  27.476  0.00  0.00    -0.316 OA
ATOM     10  H   UNL     1       8.933  -6.241  27.453  0.00  0.00    +0.220 HD
ENDBRANCH   1   9
TORSDOF 4
ENDMDL
MODEL 2
REMARK VINA RESULT:      -3.5      1.552      2.977
REMARK  Name = 
REMARK  4 active torsions:
REMARK  status: ('A' for Active; 'I' for Inactive)
REMARK    1  A    between atoms: C_1  and  O_3
REMARK    2  A    between atoms: C_1  and  P_4
REMARK    3  A    between atoms: P_4  and  O_6
REMARK    4  A    between atoms: P_4  and  O_7
REMARK                            x       y       z     vdW  Elec       q    Type
REMARK                         _______ _______ _______ _____ _____    ______ ____
ROOT
ATOM      1  P   UNL     1       8.786  -4.632  25.313  0.00  0.00    +0.434 P 
ATOM      2  O   UNL     1       8.890  -3.503  26.363  0.00  0.00    -0.247 OA
ENDROOT
BRANCH   1   3
ATOM      3  C   UNL     1       7.513  -5.493  26.306  0.00  0.00    +0.418 C 
ATOM      4  O   UNL     1       6.402  -5.669  25.824  0.00  0.00    -0.237 OA
BRANCH   3   5
ATOM      5  O   UNL     1       7.841  -5.889  27.577  0.00  0.00    -0.472 OA
ATOM      6  H   UNL     1       7.004  -6.258  27.962  0.00  0.00    +0.296 HD
ENDBRANCH   3   5
ENDBRANCH   1   3
BRANCH   1   7
ATOM      7  O   UNL     1       9.990  -3.817  24.375  0.00  0.00    -0.316 OA
ATOM      8  H   UNL     1      10.815  -3.869  24.896  0.00  0.00    +0.220 HD
ENDBRANCH   1   7
BRANCH   1   9
ATOM      9  O   UNL     1       9.990  -5.665  25.758  0.00  0.00    -0.316 OA
ATOM     10  H   UNL     1       9.652  -6.420  26.272  0.00  0.00    +0.220 HD
ENDBRANCH   1   9
TORSDOF 4
ENDMDL
MODEL 3
REMARK VINA RESULT:      -3.5     11.586     11.886
REMARK  Name = 
REMARK  4 active torsions:
REMARK  status: ('A' for Active; 'I' for Inactive)
REMARK    1  A    between atoms: C_1  and  O_3
REMARK    2  A    between atoms: C_1  and  P_4
REMARK    3  A    between atoms: P_4  and  O_6
REMARK    4  A    between atoms: P_4  and  O_7
REMARK                            x       y       z     vdW  Elec       q    Type
REMARK                         _______ _______ _______ _____ _____    ______ ____
ROOT
ATOM      1  P   UNL     1      11.916   5.740  23.443  0.00  0.00    +0.434 P 
ATOM      2  O   UNL     1      11.707   4.223  23.652  0.00  0.00    -0.247 OA
ENDROOT
BRANCH   1   3
ATOM      3  C   UNL     1      13.459   5.441  22.507  0.00  0.00    +0.418 C 
ATOM      4  O   UNL     1      13.463   5.611  21.296  0.00  0.00    -0.237 OA
BRANCH   3   5
ATOM      5  O   UNL     1      14.561   5.005  23.198  0.00  0.00    -0.472 OA
ATOM      6  H   UNL     1      14.344   4.080  23.483  0.00  0.00    +0.296 HD
ENDBRANCH   3   5
ENDBRANCH   1   3
BRANCH   1   7
ATOM      7  O   UNL     1      10.456   6.023  24.328  0.00  0.00    -0.316 OA
ATOM      8  H   UNL     1       9.870   5.269  24.125  0.00  0.00    +0.220 HD
ENDBRANCH   1   7
BRANCH   1   9
ATOM      9  O   UNL     1      12.706   6.199  24.815  0.00  0.00    -0.316 OA
ATOM     10  H   UNL     1      12.768   7.168  24.895  0.00  0.00    +0.220 HD
ENDBRANCH   1   9
TORSDOF 4
ENDMDL
MODEL 4
REMARK VINA RESULT:      -3.5      1.453      2.259
REMARK  Name = 
REMARK  4 active torsions:
REMARK  status: ('A' for Active; 'I' for Inactive)
REMARK    1  A    between atoms: C_1  and  O_3
REMARK    2  A    between atoms: C_1  and  P_4
REMARK    3  A    between atoms: P_4  and  O_6
REMARK    4  A    between atoms: P_4  and  O_7
REMARK                            x       y       z     vdW  Elec       q    Type
REMARK                         _______ _______ _______ _____ _____    ______ ____
ROOT
ATOM      1  P   UNL     1       8.539  -4.834  25.922  0.00  0.00    +0.434 P 
ATOM      2  O   UNL     1       7.257  -5.391  25.264  0.00  0.00    -0.247 OA
ENDROOT
BRANCH   1   3
ATOM      3  C   UNL     1       8.928  -3.851  24.428  0.00  0.00    +0.418 C 
ATOM      4  O   UNL     1      10.089  -3.535  24.209  0.00  0.00    -0.237 OA
BRANCH   3   5
ATOM      5  O   UNL     1       7.891  -3.474  23.613  0.00  0.00    -0.472 OA
ATOM      6  H   UNL     1       7.652  -4.288  23.099  0.00  0.00    +0.296 HD
ENDBRANCH   3   5
ENDBRANCH   1   3
BRANCH   1   7
ATOM      7  O   UNL     1       8.172  -5.762  27.335  0.00  0.00    -0.316 OA
ATOM      8  H   UNL     1       8.748  -6.550  27.294  0.00  0.00    +0.220 HD
ENDBRANCH   1   7
BRANCH   1   9
ATOM      9  O   UNL     1       9.662  -5.993  25.587  0.00  0.00    -0.316 OA
ATOM     10  H   UNL     1      10.547  -5.612  25.439  0.00  0.00    +0.220 HD
ENDBRANCH   1   9
TORSDOF 4
ENDMDL
MODEL 5
REMARK VINA RESULT:      -3.4      7.127      7.798
REMARK  Name = 
REMARK  4 active torsions:
REMARK  status: ('A' for Active; 'I' for Inactive)
REMARK    1  A    between atoms: C_1  and  O_3
REMARK    2  A    between atoms: C_1  and  P_4
REMARK    3  A    between atoms: P_4  and  O_6
REMARK    4  A    between atoms: P_4  and  O_7
REMARK                            x       y       z     vdW  Elec       q    Type
REMARK                         _______ _______ _______ _____ _____    ______ ____
ROOT
ATOM      1  P   UNL     1       8.989   1.584  22.023  0.00  0.00    +0.434 P 
ATOM      2  O   UNL     1       9.002   1.671  23.566  0.00  0.00    -0.247 OA
ENDROOT
BRANCH   1   3
ATOM      3  C   UNL     1       9.781  -0.065  22.069  0.00  0.00    +0.418 C 
ATOM      4  O   UNL     1      10.484  -0.361  23.025  0.00  0.00    -0.237 OA
BRANCH   3   5
ATOM      5  O   UNL     1       9.580  -0.910  21.006  0.00  0.00    -0.472 OA
ATOM      6  H   UNL     1       9.786  -0.371  20.200  0.00  0.00    +0.296 HD
ENDBRANCH   3   5
ENDBRANCH   1   3
BRANCH   1   7
ATOM      7  O   UNL     1       8.241   3.144  21.980  0.00  0.00    -0.316 OA
ATOM      8  H   UNL     1       8.756   3.669  21.337  0.00  0.00    +0.220 HD
ENDBRANCH   1   7
BRANCH   1   9
ATOM      9  O   UNL     1      10.379   2.361  21.596  0.00  0.00    -0.316 OA
ATOM     10  H   UNL     1      10.264   3.328  21.571  0.00  0.00    +0.220 HD
ENDBRANCH   1   9
TORSDOF 4
ENDMDL
MODEL 6
REMARK VINA RESULT:      -3.4      6.916      7.408
REMARK  Name = 
REMARK  4 active torsions:
REMARK  status: ('A' for Active; 'I' for Inactive)
REMARK    1  A    between atoms: C_1  and  O_3
REMARK    2  A    between atoms: C_1  and  P_4
REMARK    3  A    between atoms: P_4  and  O_6
REMARK    4  A    between atoms: P_4  and  O_7
REMARK                            x       y       z     vdW  Elec       q    Type
REMARK                         _______ _______ _______ _____ _____    ______ ____
ROOT
ATOM      1  P   UNL     1      10.232   0.718  23.777  0.00  0.00    +0.434 P 
ATOM      2  O   UNL     1      10.773   2.158  23.916  0.00  0.00    -0.247 OA
ENDROOT
BRANCH   1   3
ATOM      3  C   UNL     1       9.891   0.975  21.997  0.00  0.00    +0.418 C 
ATOM      4  O   UNL     1       9.547   0.021  21.313  0.00  0.00    -0.237 OA
BRANCH   3   5
ATOM      5  O   UNL     1      10.061   2.234  21.480  0.00  0.00    -0.472 OA
ATOM      6  H   UNL     1       9.811   2.855  22.212  0.00  0.00    +0.296 HD
ENDBRANCH   3   5
ENDBRANCH   1   3
BRANCH   1   7
ATOM      7  O   UNL     1      10.554   0.474  25.459  0.00  0.00    -0.316 OA
ATOM      8  H   UNL     1      11.504   0.669  25.580  0.00  0.00    +0.220 HD
ENDBRANCH   1   7
BRANCH   1   9
ATOM      9  O   UNL     1       8.650   0.872  24.215  0.00  0.00    -0.316 OA
ATOM     10  H   UNL     1       8.553   1.263  25.102  0.00  0.00    +0.220 HD
ENDBRANCH   1   9
TORSDOF 4
ENDMDL
MODEL 7
REMARK VINA RESULT:      -3.3      7.054      7.783
REMARK  Name = 
REMARK  4 active torsions:
REMARK  status: ('A' for Active; 'I' for Inactive)
REMARK    1  A    between atoms: C_1  and  O_3
REMARK    2  A    between atoms: C_1  and  P_4
REMARK    3  A    between atoms: P_4  and  O_6
REMARK    4  A    between atoms: P_4  and  O_7
REMARK                            x       y       z     vdW  Elec       q    Type
REMARK                         _______ _______ _______ _____ _____    ______ ____
ROOT
ATOM      1  P   UNL     1       9.877   0.619  22.397  0.00  0.00    +0.434 P 
ATOM      2  O   UNL     1       8.426   0.450  22.900  0.00  0.00    -0.247 OA
ENDROOT
BRANCH   1   3
ATOM      3  C   UNL     1      10.311   1.626  23.862  0.00  0.00    +0.418 C 
ATOM      4  O   UNL     1      10.676   2.783  23.702  0.00  0.00    -0.237 OA
BRANCH   3   5
ATOM      5  O   UNL     1      10.239   1.036  25.099  0.00  0.00    -0.472 OA
ATOM      6  H   UNL     1      10.737   0.183  25.012  0.00  0.00    +0.296 HD
ENDBRANCH   3   5
ENDBRANCH   1   3
BRANCH   1   7
ATOM      7  O   UNL     1       9.468  -0.334  21.012  0.00  0.00    -0.316 OA
ATOM      8  H   UNL     1      10.067  -0.039  20.299  0.00  0.00    +0.220 HD
ENDBRANCH   1   7
BRANCH   1   9
ATOM      9  O   UNL     1       9.774   1.922  21.394  0.00  0.00    -0.316 OA
ATOM     10  H   UNL     1      10.280   2.683  21.731  0.00  0.00    +0.220 HD
ENDBRANCH   1   9
TORSDOF 4
ENDMDL
MODEL 8
REMARK VINA RESULT:      -3.3      1.734      3.161
REMARK  Name = 
REMARK  4 active torsions:
REMARK  status: ('A' for Active; 'I' for Inactive)
REMARK    1  A    between atoms: C_1  and  O_3
REMARK    2  A    between atoms: C_1  and  P_4
REMARK    3  A    between atoms: P_4  and  O_6
REMARK    4  A    between atoms: P_4  and  O_7
REMARK                            x       y       z     vdW  Elec       q    Type
REMARK                         _______ _______ _______ _____ _____    ______ ____
ROOT
ATOM      1  P   UNL     1       8.601  -3.886  24.478  0.00  0.00    +0.434 P 
ATOM      2  O   UNL     1      10.034  -3.440  24.112  0.00  0.00    -0.247 OA
ENDROOT
BRANCH   1   3
ATOM      3  C   UNL     1       9.215  -4.795  25.943  0.00  0.00    +0.418 C 
ATOM      4  O   UNL     1       8.619  -4.684  27.005  0.00  0.00    -0.237 OA
BRANCH   3   5
ATOM      5  O   UNL     1      10.351  -5.553  25.806  0.00  0.00    -0.472 OA
ATOM      6  H   UNL     1      11.076  -4.907  25.608  0.00  0.00    +0.296 HD
ENDBRANCH   3   5
ENDBRANCH   1   3
BRANCH   1   7
ATOM      7  O   UNL     1       8.020  -3.027  23.094  0.00  0.00    -0.316 OA
ATOM      8  H   UNL     1       8.371  -3.505  22.317  0.00  0.00    +0.220 HD
ENDBRANCH   1   7
BRANCH   1   9
ATOM      9  O   UNL     1       8.396  -5.253  23.579  0.00  0.00    -0.316 OA
ATOM     10  H   UNL     1       8.540  -6.061  24.105  0.00  0.00    +0.220 HD
ENDBRANCH   1   9
TORSDOF 4
ENDMDL
MODEL 9
REMARK VINA RESULT:      -3.3      6.779      7.286
REMARK  Name = 
REMARK  4 active torsions:
REMARK  status: ('A' for Active; 'I' for Inactive)
REMARK    1  A    between atoms: C_1  and  O_3
REMARK    2  A    between atoms: C_1  and  P_4
REMARK    3  A    between atoms: P_4  and  O_6
REMARK    4  A    between atoms: P_4  and  O_7
REMARK                            x       y       z     vdW  Elec       q    Type
REMARK                         _______ _______ _______ _____ _____    ______ ____
ROOT
ATOM      1  P   UNL     1       9.794   0.783  23.792  0.00  0.00    +0.434 P 
ATOM      2  O   UNL     1      10.544  -0.552  23.589  0.00  0.00    -0.247 OA
ENDROOT
BRANCH   1   3
ATOM      3  C   UNL     1       9.744   1.076  21.986  0.00  0.00    +0.418 C 
ATOM      4  O   UNL     1       9.370   0.175  21.247  0.00  0.00    -0.237 OA
BRANCH   3   5
ATOM      5  O   UNL     1      10.157   2.296  21.515  0.00  0.00    -0.472 OA
ATOM      6  H   UNL     1      10.668   2.706  22.260  0.00  0.00    +0.296 HD
ENDBRANCH   3   5
ENDBRANCH   1   3
BRANCH   1   7
ATOM      7  O   UNL     1       9.841   0.507  25.499  0.00  0.00    -0.316 OA
ATOM      8  H   UNL     1       9.131  -0.137  25.685  0.00  0.00    +0.220 HD
ENDBRANCH   1   7
BRANCH   1   9
ATOM      9  O   UNL     1      11.016   1.861  24.043  0.00  0.00    -0.316 OA
ATOM     10  H   UNL     1      10.770   2.548  24.688  0.00  0.00    +0.220 HD
ENDBRANCH   1   9
TORSDOF 4
ENDMDL
