MODEL 1
REMARK VINA RESULT:      -6.6      0.000      0.000
REMARK  Name = 
REMARK  5 active torsions:
REMARK  status: ('A' for Active; 'I' for Inactive)
REMARK    1  A    between atoms: C_1  and  C_5
REMARK    2  A    between atoms: N_7  and  C_13
REMARK    3  A    between atoms: C_15  and  O_20
REMARK    4  A    between atoms: C_16  and  C_18
REMARK    5  A    between atoms: C_18  and  O_19
REMARK                            x       y       z     vdW  Elec       q    Type
REMARK                         _______ _______ _______ _____ _____    ______ ____
ROOT
ATOM      1  C   UNL     1       9.198  -2.522  24.039  0.00  0.00    +0.260 C 
ATOM      2  O   UNL     1       9.130  -1.117  24.363  0.00  0.00    -0.345 OA
ATOM      3  C   UNL     1       8.811  -0.411  23.136  0.00  0.00    +0.178 C 
ATOM      4  C   UNL     1       8.887  -1.435  21.988  0.00  0.00    +0.184 C 
ATOM      5  C   UNL     1       8.493  -2.710  22.695  0.00  0.00    +0.246 C 
ATOM      6  F   UNL     1       7.140  -2.717  22.860  0.00  0.00    -0.238 F 
ENDROOT
BRANCH   1  15
ATOM      7  C   UNL     1       5.661  -3.591  27.390  0.00  0.00    +0.051 C 
ATOM      8  C   UNL     1       6.953  -3.847  26.687  0.00  0.00    +0.030 A 
ATOM      9  C   UNL     1       7.684  -5.084  27.045  0.00  0.00    +0.257 A 
ATOM     10  O   UNL     1       7.258  -5.873  27.882  0.00  0.00    -0.267 OA
ATOM     11  N   UNL     1       8.852  -5.304  26.377  0.00  0.00    -0.275 N 
ATOM     12  H   UNL     1       9.345  -6.158  26.582  0.00  0.00    +0.173 HD
ATOM     13  C   UNL     1       9.361  -4.523  25.378  0.00  0.00    +0.331 A 
ATOM     14  O   UNL     1      10.365  -4.877  24.763  0.00  0.00    -0.246 OA
ATOM     15  N   UNL     1       8.675  -3.349  25.117  0.00  0.00    -0.271 N 
ATOM     16  C   UNL     1       7.485  -3.048  25.753  0.00  0.00    +0.102 A 
ENDBRANCH   1  15
BRANCH   4  17
ATOM     17  O   UNL     1      10.180  -1.609  21.402  0.00  0.00    -0.386 OA
ATOM     18  H   UNL     1      10.774  -0.891  21.707  0.00  0.00    +0.210 HD
ENDBRANCH   4  17
BRANCH   3  19
ATOM     19  C   UNL     1       9.763   0.772  23.007  0.00  0.00    +0.190 C 
BRANCH  19  20
ATOM     20  O   UNL     1       9.773   1.228  21.650  0.00  0.00    -0.392 OA
ATOM     21  H   UNL     1       8.967   1.774  21.550  0.00  0.00    +0.210 HD
ENDBRANCH  19  20
ENDBRANCH   3  19
TORSDOF 4
ENDMDL
MODEL 2
REMARK VINA RESULT:      -6.1      2.489      3.198
REMARK  Name = 
REMARK  5 active torsions:
REMARK  status: ('A' for Active; 'I' for Inactive)
REMARK    1  A    between atoms: C_1  and  C_5
REMARK    2  A    between atoms: N_7  and  C_13
REMARK    3  A    between atoms: C_15  and  O_20
REMARK    4  A    between atoms: C_16  and  C_18
REMARK    5  A    between atoms: C_18  and  O_19
REMARK                            x       y       z     vdW  Elec       q    Type
REMARK                         _______ _______ _______ _____ _____    ______ ____
ROOT
ATOM      1  C   UNL     1       8.315  -1.271  23.653  0.00  0.00    +0.260 C 
ATOM      2  O   UNL     1       8.184  -0.644  22.359  0.00  0.00    -0.345 OA
ATOM      3  C   UNL     1       9.449   0.007  22.071  0.00  0.00    +0.178 C 
ATOM      4  C   UNL     1      10.306  -0.076  23.348  0.00  0.00    +0.184 C 
ATOM      5  C   UNL     1       9.810  -1.364  23.961  0.00  0.00    +0.246 C 
ATOM      6  F   UNL     1      10.373  -2.410  23.292  0.00  0.00    -0.238 F 
ENDROOT
BRANCH   1  15
ATOM      7  C   UNL     1       7.048  -5.651  21.629  0.00  0.00    +0.051 C 
ATOM      8  C   UNL     1       7.044  -4.637  22.725  0.00  0.00    +0.030 A 
ATOM      9  C   UNL     1       6.360  -5.008  23.985  0.00  0.00    +0.257 A 
ATOM     10  O   UNL     1       5.816  -6.097  24.136  0.00  0.00    -0.267 OA
ATOM     11  N   UNL     1       6.384  -4.071  24.977  0.00  0.00    -0.275 N 
ATOM     12  H   UNL     1       5.955  -4.320  25.853  0.00  0.00    +0.173 HD
ATOM     13  C   UNL     1       7.030  -2.869  24.926  0.00  0.00    +0.331 A 
ATOM     14  O   UNL     1       7.084  -2.150  25.921  0.00  0.00    -0.246 OA
ATOM     15  N   UNL     1       7.606  -2.541  23.710  0.00  0.00    -0.271 N 
ATOM     16  C   UNL     1       7.622  -3.432  22.652  0.00  0.00    +0.102 A 
ENDBRANCH   1  15
BRANCH   4  17
ATOM     17  O   UNL     1      10.118   0.986  24.286  0.00  0.00    -0.386 OA
ATOM     18  H   UNL     1      10.497   1.814  23.919  0.00  0.00    +0.210 HD
ENDBRANCH   4  17
BRANCH   3  19
ATOM     19  C   UNL     1       9.155   1.420  21.583  0.00  0.00    +0.190 C 
BRANCH  19  20
ATOM     20  O   UNL     1      10.355   2.201  21.639  0.00  0.00    -0.392 OA
ATOM     21  H   UNL     1      10.963   1.794  20.988  0.00  0.00    +0.210 HD
ENDBRANCH  19  20
ENDBRANCH   3  19
TORSDOF 4
ENDMDL
MODEL 3
REMARK VINA RESULT:      -6.0      1.923      2.786
REMARK  Name = 
REMARK  5 active torsions:
REMARK  status: ('A' for Active; 'I' for Inactive)
REMARK    1  A    between atoms: C_1  and  C_5
REMARK    2  A    between atoms: N_7  and  C_13
REMARK    3  A    between atoms: C_15  and  O_20
REMARK    4  A    between atoms: C_16  and  C_18
REMARK    5  A    between atoms: C_18  and  O_19
REMARK                            x       y       z     vdW  Elec       q    Type
REMARK                         _______ _______ _______ _____ _____    ______ ____
ROOT
ATOM      1  C   UNL     1       9.464   0.074  23.545  0.00  0.00    +0.260 C 
ATOM      2  O   UNL     1       9.246   1.190  24.435  0.00  0.00    -0.345 OA
ATOM      3  C   UNL     1       8.695   2.270  23.637  0.00  0.00    +0.178 C 
ATOM      4  C   UNL     1       8.774   1.834  22.163  0.00  0.00    +0.184 C 
ATOM      5  C   UNL     1       8.640   0.335  22.284  0.00  0.00    +0.246 C 
ATOM      6  F   UNL     1       7.328   0.031  22.496  0.00  0.00    -0.238 F 
ENDROOT
BRANCH   1  15
ATOM      7  C   UNL     1       6.811  -2.704  26.726  0.00  0.00    +0.051 C 
ATOM      8  C   UNL     1       7.880  -2.501  25.704  0.00  0.00    +0.030 A 
ATOM      9  C   UNL     1       8.623  -3.701  25.257  0.00  0.00    +0.257 A 
ATOM     10  O   UNL     1       8.382  -4.820  25.699  0.00  0.00    -0.267 OA
ATOM     11  N   UNL     1       9.583  -3.492  24.311  0.00  0.00    -0.275 N 
ATOM     12  H   UNL     1      10.075  -4.302  23.969  0.00  0.00    +0.173 HD
ATOM     13  C   UNL     1       9.865  -2.300  23.708  0.00  0.00    +0.331 A 
ATOM     14  O   UNL     1      10.673  -2.247  22.782  0.00  0.00    -0.246 OA
ATOM     15  N   UNL     1       9.186  -1.197  24.197  0.00  0.00    -0.271 N 
ATOM     16  C   UNL     1       8.201  -1.321  25.159  0.00  0.00    +0.102 A 
ENDBRANCH   1  15
BRANCH   4  17
ATOM     17  O   UNL     1      10.001   2.138  21.495  0.00  0.00    -0.386 OA
ATOM     18  H   UNL     1       9.811   2.405  20.571  0.00  0.00    +0.210 HD
ENDBRANCH   4  17
BRANCH   3  19
ATOM     19  C   UNL     1       9.458   3.546  23.974  0.00  0.00    +0.190 C 
BRANCH  19  20
ATOM     20  O   UNL     1       9.165   4.547  22.993  0.00  0.00    -0.392 OA
ATOM     21  H   UNL     1       8.650   5.233  23.464  0.00  0.00    +0.210 HD
ENDBRANCH  19  20
ENDBRANCH   3  19
TORSDOF 4
ENDMDL
MODEL 4
REMARK VINA RESULT:      -6.0      2.661      3.776
REMARK  Name = 
REMARK  5 active torsions:
REMARK  status: ('A' for Active; 'I' for Inactive)
REMARK    1  A    between atoms: C_1  and  C_5
REMARK    2  A    between atoms: N_7  and  C_13
REMARK    3  A    between atoms: C_15  and  O_20
REMARK    4  A    between atoms: C_16  and  C_18
REMARK    5  A    between atoms: C_18  and  O_19
REMARK                            x       y       z     vdW  Elec       q    Type
REMARK                         _______ _______ _______ _____ _____    ______ ____
ROOT
ATOM      1  C   UNL     1       8.484   0.312  23.126  0.00  0.00    +0.260 C 
ATOM      2  O   UNL     1       7.210   0.865  22.731  0.00  0.00    -0.345 OA
ATOM      3  C   UNL     1       7.481   1.914  21.765  0.00  0.00    +0.178 C 
ATOM      4  C   UNL     1       9.006   2.122  21.735  0.00  0.00    +0.184 C 
ATOM      5  C   UNL     1       9.506   0.738  22.072  0.00  0.00    +0.246 C 
ATOM      6  F   UNL     1       9.405  -0.045  20.961  0.00  0.00    -0.238 F 
ENDROOT
BRANCH   1  15
ATOM      7  C   UNL     1       6.615  -4.171  21.991  0.00  0.00    +0.051 C 
ATOM      8  C   UNL     1       7.510  -3.254  22.757  0.00  0.00    +0.030 A 
ATOM      9  C   UNL     1       8.448  -3.875  23.721  0.00  0.00    +0.257 A 
ATOM     10  O   UNL     1       8.496  -5.089  23.893  0.00  0.00    -0.267 OA
ATOM     11  N   UNL     1       9.266  -3.019  24.396  0.00  0.00    -0.275 N 
ATOM     12  H   UNL     1       9.935  -3.426  25.030  0.00  0.00    +0.173 HD
ATOM     13  C   UNL     1       9.336  -1.667  24.213  0.00  0.00    +0.331 A 
ATOM     14  O   UNL     1      10.193  -1.004  24.792  0.00  0.00    -0.246 OA
ATOM     15  N   UNL     1       8.403  -1.124  23.345  0.00  0.00    -0.271 N 
ATOM     16  C   UNL     1       7.533  -1.922  22.624  0.00  0.00    +0.102 A 
ENDBRANCH   1  15
BRANCH   4  17
ATOM     17  O   UNL     1       9.521   3.049  22.694  0.00  0.00    -0.386 OA
ATOM     18  H   UNL     1       9.357   2.705  23.598  0.00  0.00    +0.210 HD
ENDBRANCH   4  17
BRANCH   3  19
ATOM     19  C   UNL     1       6.670   3.143  22.159  0.00  0.00    +0.190 C 
BRANCH  19  20
ATOM     20  O   UNL     1       7.324   4.319  21.669  0.00  0.00    -0.392 OA
ATOM     21  H   UNL     1       7.808   4.689  22.435  0.00  0.00    +0.210 HD
ENDBRANCH  19  20
ENDBRANCH   3  19
TORSDOF 4
ENDMDL
MODEL 5
REMARK VINA RESULT:      -5.8      3.166      3.914
REMARK  Name = 
REMARK  5 active torsions:
REMARK  status: ('A' for Active; 'I' for Inactive)
REMARK    1  A    between atoms: C_1  and  C_5
REMARK    2  A    between atoms: N_7  and  C_13
REMARK    3  A    between atoms: C_15  and  O_20
REMARK    4  A    between atoms: C_16  and  C_18
REMARK    5  A    between atoms: C_18  and  O_19
REMARK                            x       y       z     vdW  Elec       q    Type
REMARK                         _______ _______ _______ _____ _____    ______ ____
ROOT
ATOM      1  C   UNL     1       7.907  -1.173  23.596  0.00  0.00    +0.260 C 
ATOM      2  O   UNL     1       8.505  -0.584  22.421  0.00  0.00    -0.345 OA
ATOM      3  C   UNL     1       9.865  -0.221  22.772  0.00  0.00    +0.178 C 
ATOM      4  C   UNL     1      10.016  -0.428  24.290  0.00  0.00    +0.184 C 
ATOM      5  C   UNL     1       9.048  -1.561  24.537  0.00  0.00    +0.246 C 
ATOM      6  F   UNL     1       9.628  -2.726  24.132  0.00  0.00    -0.238 F 
ENDROOT
BRANCH   1  15
ATOM      7  C   UNL     1       7.042  -5.599  21.464  0.00  0.00    +0.051 C 
ATOM      8  C   UNL     1       6.637  -4.395  22.248  0.00  0.00    +0.030 A 
ATOM      9  C   UNL     1       5.261  -4.376  22.796  0.00  0.00    +0.257 A 
ATOM     10  O   UNL     1       4.477  -5.303  22.620  0.00  0.00    -0.267 OA
ATOM     11  N   UNL     1       4.922  -3.272  23.522  0.00  0.00    -0.275 N 
ATOM     12  H   UNL     1       4.002  -3.258  23.932  0.00  0.00    +0.173 HD
ATOM     13  C   UNL     1       5.751  -2.233  23.832  0.00  0.00    +0.331 A 
ATOM     14  O   UNL     1       5.375  -1.343  24.592  0.00  0.00    -0.246 OA
ATOM     15  N   UNL     1       7.008  -2.266  23.252  0.00  0.00    -0.271 N 
ATOM     16  C   UNL     1       7.430  -3.345  22.498  0.00  0.00    +0.102 A 
ENDBRANCH   1  15
BRANCH   4  17
ATOM     17  O   UNL     1       9.644   0.686  25.104  0.00  0.00    -0.386 OA
ATOM     18  H   UNL     1       8.926   0.416  25.716  0.00  0.00    +0.210 HD
ENDBRANCH   4  17
BRANCH   3  19
ATOM     19  C   UNL     1      10.116   1.203  22.288  0.00  0.00    +0.190 C 
BRANCH  19  20
ATOM     20  O   UNL     1       9.171   1.529  21.263  0.00  0.00    -0.392 OA
ATOM     21  H   UNL     1       9.389   2.443  20.986  0.00  0.00    +0.210 HD
ENDBRANCH  19  20
ENDBRANCH   3  19
TORSDOF 4
ENDMDL
MODEL 6
REMARK VINA RESULT:      -5.8      2.684      5.640
REMARK  Name = 
REMARK  5 active torsions:
REMARK  status: ('A' for Active; 'I' for Inactive)
REMARK    1  A    between atoms: C_1  and  C_5
REMARK    2  A    between atoms: N_7  and  C_13
REMARK    3  A    between atoms: C_15  and  O_20
REMARK    4  A    between atoms: C_16  and  C_18
REMARK    5  A    between atoms: C_18  and  O_19
REMARK                            x       y       z     vdW  Elec       q    Type
REMARK                         _______ _______ _______ _____ _____    ______ ____
ROOT
ATOM      1  C   UNL     1       8.253  -2.868  22.757  0.00  0.00    +0.260 C 
ATOM      2  O   UNL     1       7.005  -3.340  22.205  0.00  0.00    -0.345 OA
ATOM      3  C   UNL     1       6.501  -4.363  23.103  0.00  0.00    +0.178 C 
ATOM      4  C   UNL     1       7.607  -4.647  24.136  0.00  0.00    +0.184 C 
ATOM      5  C   UNL     1       8.292  -3.304  24.222  0.00  0.00    +0.246 C 
ATOM      6  F   UNL     1       7.530  -2.474  24.990  0.00  0.00    -0.238 F 
ENDROOT
BRANCH   1  15
ATOM      7  C   UNL     1       6.497   1.800  22.850  0.00  0.00    +0.051 C 
ATOM      8  C   UNL     1       7.566   0.781  22.630  0.00  0.00    +0.030 A 
ATOM      9  C   UNL     1       8.915   1.283  22.279  0.00  0.00    +0.257 A 
ATOM     10  O   UNL     1       9.157   2.480  22.172  0.00  0.00    -0.267 OA
ATOM     11  N   UNL     1       9.877   0.334  22.100  0.00  0.00    -0.275 N 
ATOM     12  H   UNL     1      10.809   0.658  21.896  0.00  0.00    +0.173 HD
ATOM     13  C   UNL     1       9.718  -1.011  22.275  0.00  0.00    +0.331 A 
ATOM     14  O   UNL     1      10.684  -1.767  22.199  0.00  0.00    -0.246 OA
ATOM     15  N   UNL     1       8.428  -1.438  22.546  0.00  0.00    -0.271 N 
ATOM     16  C   UNL     1       7.394  -0.542  22.739  0.00  0.00    +0.102 A 
ENDBRANCH   1  15
BRANCH   4  17
ATOM     17  O   UNL     1       8.568  -5.635  23.755  0.00  0.00    -0.386 OA
ATOM     18  H   UNL     1       8.896  -5.437  22.852  0.00  0.00    +0.210 HD
ENDBRANCH   4  17
BRANCH   3  19
ATOM     19  C   UNL     1       6.078  -5.564  22.265  0.00  0.00    +0.190 C 
BRANCH  19  20
ATOM     20  O   UNL     1       7.113  -5.876  21.326  0.00  0.00    -0.392 OA
ATOM     21  H   UNL     1       7.837  -6.270  21.854  0.00  0.00    +0.210 HD
ENDBRANCH  19  20
ENDBRANCH   3  19
TORSDOF 4
ENDMDL
MODEL 7
REMARK VINA RESULT:      -5.7      2.524      5.814
REMARK  Name = 
REMARK  5 active torsions:
REMARK  status: ('A' for Active; 'I' for Inactive)
REMARK    1  A    between atoms: C_1  and  C_5
REMARK    2  A    between atoms: N_7  and  C_13
REMARK    3  A    between atoms: C_15  and  O_20
REMARK    4  A    between atoms: C_16  and  C_18
REMARK    5  A    between atoms: C_18  and  O_19
REMARK                            x       y       z     vdW  Elec       q    Type
REMARK                         _______ _______ _______ _____ _____    ______ ____
ROOT
ATOM      1  C   UNL     1       7.490  -2.524  24.429  0.00  0.00    +0.260 C 
ATOM      2  O   UNL     1       8.853  -2.857  24.774  0.00  0.00    -0.345 OA
ATOM      3  C   UNL     1       9.039  -4.262  24.466  0.00  0.00    +0.178 C 
ATOM      4  C   UNL     1       7.658  -4.837  24.103  0.00  0.00    +0.184 C 
ATOM      5  C   UNL     1       6.976  -3.629  23.506  0.00  0.00    +0.246 C 
ATOM      6  F   UNL     1       7.441  -3.450  22.237  0.00  0.00    -0.238 F 
ENDROOT
BRANCH   1  15
ATOM      7  C   UNL     1       9.224   1.145  21.529  0.00  0.00    +0.051 C 
ATOM      8  C   UNL     1       8.228   0.541  22.462  0.00  0.00    +0.030 A 
ATOM      9  C   UNL     1       7.009   1.330  22.753  0.00  0.00    +0.257 A 
ATOM     10  O   UNL     1       6.813   2.434  22.255  0.00  0.00    -0.267 OA
ATOM     11  N   UNL     1       6.107   0.749  23.595  0.00  0.00    -0.275 N 
ATOM     12  H   UNL     1       5.256   1.256  23.776  0.00  0.00    +0.173 HD
ATOM     13  C   UNL     1       6.205  -0.503  24.132  0.00  0.00    +0.331 A 
ATOM     14  O   UNL     1       5.277  -0.973  24.787  0.00  0.00    -0.246 OA
ATOM     15  N   UNL     1       7.387  -1.180  23.879  0.00  0.00    -0.271 N 
ATOM     16  C   UNL     1       8.355  -0.661  23.040  0.00  0.00    +0.102 A 
ENDBRANCH   1  15
BRANCH   4  17
ATOM     17  O   UNL     1       6.880  -5.313  25.204  0.00  0.00    -0.386 OA
ATOM     18  H   UNL     1       6.920  -4.660  25.936  0.00  0.00    +0.210 HD
ENDBRANCH   4  17
BRANCH   3  19
ATOM     19  C   UNL     1       9.719  -4.923  25.660  0.00  0.00    +0.190 C 
BRANCH  19  20
ATOM     20  O   UNL     1       9.509  -6.339  25.602  0.00  0.00    -0.392 OA
ATOM     21  H   UNL     1       9.954  -6.703  26.393  0.00  0.00    +0.210 HD
ENDBRANCH  19  20
ENDBRANCH   3  19
TORSDOF 4
ENDMDL
MODEL 8
REMARK VINA RESULT:      -5.7      2.133      5.714
REMARK  Name = 
REMARK  5 active torsions:
REMARK  status: ('A' for Active; 'I' for Inactive)
REMARK    1  A    between atoms: C_1  and  C_5
REMARK    2  A    between atoms: N_7  and  C_13
REMARK    3  A    between atoms: C_15  and  O_20
REMARK    4  A    between atoms: C_16  and  C_18
REMARK    5  A    between atoms: C_18  and  O_19
REMARK                            x       y       z     vdW  Elec       q    Type
REMARK                         _______ _______ _______ _____ _____    ______ ____
ROOT
ATOM      1  C   UNL     1       8.340  -3.299  24.451  0.00  0.00    +0.260 C 
ATOM      2  O   UNL     1       6.966  -3.744  24.420  0.00  0.00    -0.345 OA
ATOM      3  C   UNL     1       6.655  -4.256  25.742  0.00  0.00    +0.178 C 
ATOM      4  C   UNL     1       7.972  -4.296  26.538  0.00  0.00    +0.184 C 
ATOM      5  C   UNL     1       8.732  -3.146  25.920  0.00  0.00    +0.246 C 
ATOM      6  F   UNL     1       8.244  -1.979  26.428  0.00  0.00    -0.238 F 
ENDROOT
BRANCH   1  15
ATOM      7  C   UNL     1       6.758   1.110  22.736  0.00  0.00    +0.051 C 
ATOM      8  C   UNL     1       7.761   0.013  22.867  0.00  0.00    +0.030 A 
ATOM      9  C   UNL     1       9.076   0.218  22.218  0.00  0.00    +0.257 A 
ATOM     10  O   UNL     1       9.343   1.241  21.596  0.00  0.00    -0.267 OA
ATOM     11  N   UNL     1       9.981  -0.792  22.366  0.00  0.00    -0.275 N 
ATOM     12  H   UNL     1      10.893  -0.655  21.961  0.00  0.00    +0.173 HD
ATOM     13  C   UNL     1       9.798  -1.927  23.104  0.00  0.00    +0.331 A 
ATOM     14  O   UNL     1      10.725  -2.719  23.265  0.00  0.00    -0.246 OA
ATOM     15  N   UNL     1       8.536  -2.103  23.644  0.00  0.00    -0.271 N 
ATOM     16  C   UNL     1       7.560  -1.130  23.536  0.00  0.00    +0.102 A 
ENDBRANCH   1  15
BRANCH   4  17
ATOM     17  O   UNL     1       8.743  -5.491  26.395  0.00  0.00    -0.386 OA
ATOM     18  H   UNL     1       8.154  -6.227  26.122  0.00  0.00    +0.210 HD
ENDBRANCH   4  17
BRANCH   3  19
ATOM     19  C   UNL     1       5.961  -5.604  25.577  0.00  0.00    +0.190 C 
BRANCH  19  20
ATOM     20  O   UNL     1       6.075  -6.348  26.795  0.00  0.00    -0.392 OA
ATOM     21  H   UNL     1       6.261  -5.686  27.491  0.00  0.00    +0.210 HD
ENDBRANCH  19  20
ENDBRANCH   3  19
TORSDOF 4
ENDMDL
MODEL 9
REMARK VINA RESULT:      -5.7      2.609      5.431
REMARK  Name = 
REMARK  5 active torsions:
REMARK  status: ('A' for Active; 'I' for Inactive)
REMARK    1  A    between atoms: C_1  and  C_5
REMARK    2  A    between atoms: N_7  and  C_13
REMARK    3  A    between atoms: C_15  and  O_20
REMARK    4  A    between atoms: C_16  and  C_18
REMARK    5  A    between atoms: C_18  and  O_19
REMARK                            x       y       z     vdW  Elec       q    Type
REMARK                         _______ _______ _______ _____ _____    ______ ____
ROOT
ATOM      1  C   UNL     1       7.859  -3.003  24.037  0.00  0.00    +0.260 C 
ATOM      2  O   UNL     1       8.114  -3.699  22.798  0.00  0.00    -0.345 OA
ATOM      3  C   UNL     1       6.879  -4.356  22.415  0.00  0.00    +0.178 C 
ATOM      4  C   UNL     1       5.896  -4.201  23.590  0.00  0.00    +0.184 C 
ATOM      5  C   UNL     1       6.341  -2.885  24.184  0.00  0.00    +0.246 C 
ATOM      6  F   UNL     1       5.862  -1.873  23.407  0.00  0.00    -0.238 F 
ENDROOT
BRANCH   1  15
ATOM      7  C   UNL     1       9.692   1.082  21.841  0.00  0.00    +0.051 C 
ATOM      8  C   UNL     1       9.411   0.217  23.024  0.00  0.00    +0.030 A 
ATOM      9  C   UNL     1       9.794   0.745  24.354  0.00  0.00    +0.257 A 
ATOM     10  O   UNL     1      10.320   1.845  24.491  0.00  0.00    -0.267 OA
ATOM     11  N   UNL     1       9.512  -0.057  25.420  0.00  0.00    -0.275 N 
ATOM     12  H   UNL     1       9.733   0.301  26.335  0.00  0.00    +0.173 HD
ATOM     13  C   UNL     1       8.860  -1.257  25.368  0.00  0.00    +0.331 A 
ATOM     14  O   UNL     1       8.554  -1.843  26.404  0.00  0.00    -0.246 OA
ATOM     15  N   UNL     1       8.573  -1.736  24.101  0.00  0.00    -0.271 N 
ATOM     16  C   UNL     1       8.830  -0.988  22.967  0.00  0.00    +0.102 A 
ENDBRANCH   1  15
BRANCH   4  17
ATOM     17  O   UNL     1       5.974  -5.214  24.596  0.00  0.00    -0.386 OA
ATOM     18  H   UNL     1       6.426  -4.851  25.389  0.00  0.00    +0.210 HD
ENDBRANCH   4  17
BRANCH   3  19
ATOM     19  C   UNL     1       7.205  -5.795  22.034  0.00  0.00    +0.190 C 
BRANCH  19  20
ATOM     20  O   UNL     1       6.015  -6.588  22.111  0.00  0.00    -0.392 OA
ATOM     21  H   UNL     1       5.853  -6.726  23.067  0.00  0.00    +0.210 HD
ENDBRANCH  19  20
ENDBRANCH   3  19
TORSDOF 4
ENDMDL
