MODEL 1
REMARK VINA RESULT:      -7.0      0.000      0.000
REMARK  Name = 
REMARK  16 active torsions:
REMARK  status: ('A' for Active; 'I' for Inactive)
REMARK    1  A    between atoms: C_1  and  C_2
REMARK    2  A    between atoms: C_2  and  C_4
REMARK    3  A    between atoms: C_2  and  N_10
REMARK    4  A    between atoms: C_4  and  O_6
REMARK    5  A    between atoms: O_6  and  C_7
REMARK    6  A    between atoms: C_7  and  C_8
REMARK    7  A    between atoms: C_7  and  C_9
REMARK    8  A    between atoms: N_10  and  P_11
REMARK    9  A    between atoms: P_11  and  O_13
REMARK   10  A    between atoms: P_11  and  O_34
REMARK   11  A    between atoms: O_13  and  C_14
REMARK   12  A    between atoms: C_14  and  C_15
REMARK   13  A    between atoms: C_17  and  O_33
REMARK   14  A    between atoms: C_19  and  C_31
REMARK   15  A    between atoms: C_20  and  N_23
REMARK   16  A    between atoms: O_34  and  C_35
REMARK                            x       y       z     vdW  Elec       q    Type
REMARK                         _______ _______ _______ _____ _____    ______ ____
ROOT
ATOM      1  O   UNL     1       8.097  -2.032  22.961  0.00  0.00    -0.284 OA
ENDROOT
BRANCH   1   2
ATOM      2  P   UNL     1       8.407  -3.107  24.187  0.00  0.00    +0.462 P 
ATOM      3  O   UNL     1       9.919  -3.377  24.144  0.00  0.00    -0.228 OA
BRANCH   2   4
ATOM      4  N   UNL     1       8.210  -4.468  23.057  0.00  0.00    -0.199 NA
ATOM      5  H   UNL     1       8.294  -5.260  23.691  0.00  0.00    +0.135 HD
BRANCH   4   7
ATOM      6  C   UNL     1       6.823  -5.693  21.368  0.00  0.00    +0.036 C 
ATOM      7  C   UNL     1       6.916  -4.539  22.359  0.00  0.00    +0.171 C 
BRANCH   7   8
ATOM      8  C   UNL     1       5.802  -4.636  23.397  0.00  0.00    +0.325 C 
ATOM      9  O   UNL     1       4.848  -3.859  23.445  0.00  0.00    -0.249 OA
BRANCH   8  10
ATOM     10  O   UNL     1       6.017  -5.686  24.235  0.00  0.00    -0.461 OA
BRANCH  10  11
ATOM     11  C   UNL     1       5.452  -5.595  25.556  0.00  0.00    +0.170 C 
ATOM     12  C   UNL     1       6.610  -5.566  26.549  0.00  0.00    +0.052 C 
ATOM     13  C   UNL     1       4.566  -6.807  25.822  0.00  0.00    +0.052 C 
ENDBRANCH  10  11
ENDBRANCH   8  10
ENDBRANCH   7   8
ENDBRANCH   4   7
ENDBRANCH   2   4
BRANCH   2  14
ATOM     14  O   UNL     1       8.598  -1.784  25.286  0.00  0.00    -0.413 OA
BRANCH  14  15
ATOM     15  C   UNL     1       7.553  -1.356  26.055  0.00  0.00    +0.131 A 
ATOM     16  C   UNL     1       6.267  -1.879  25.972  0.00  0.00    +0.046 A 
ATOM     17  C   UNL     1       5.257  -1.366  26.791  0.00  0.00    +0.004 A 
ATOM     18  C   UNL     1       5.533  -0.326  27.679  0.00  0.00    +0.000 A 
ATOM     19  C   UNL     1       6.818   0.211  27.745  0.00  0.00    +0.004 A 
ATOM     20  C   UNL     1       7.826  -0.303  26.929  0.00  0.00    +0.046 A 
ENDBRANCH  14  15
ENDBRANCH   2  14
ENDBRANCH   1   2
BRANCH   1  21
ATOM     21  C   UNL     1       9.223  -1.438  22.338  0.00  0.00    +0.206 C 
BRANCH  21  22
ATOM     22  C   UNL     1       8.979   0.050  22.047  0.00  0.00    +0.179 C 
ATOM     23  O   UNL     1       7.901   0.514  22.884  0.00  0.00    -0.345 OA
ATOM     24  C   UNL     1       8.418   1.462  23.850  0.00  0.00    +0.263 C 
ATOM     25  C   UNL     1       9.952   1.522  23.693  0.00  0.00    +0.182 C 
ATOM     26  C   UNL     1      10.680   0.677  24.735  0.00  0.00    +0.055 C 
ATOM     27  F   UNL     1      10.429   2.790  23.822  0.00  0.00    -0.235 F 
ATOM     28  C   UNL     1      10.160   1.004  22.269  0.00  0.00    +0.187 C 
BRANCH  24  29
ATOM     29  N   UNL     1       7.713   2.743  23.709  0.00  0.00    -0.271 N 
ATOM     30  C   UNL     1       7.528   3.499  24.859  0.00  0.00    +0.331 A 
ATOM     31  O   UNL     1       7.891   3.143  25.979  0.00  0.00    -0.246 OA
ATOM     32  N   UNL     1       6.874   4.692  24.693  0.00  0.00    -0.275 N 
ATOM     33  H   UNL     1       6.706   5.240  25.518  0.00  0.00    +0.173 HD
ATOM     34  C   UNL     1       6.431   5.211  23.509  0.00  0.00    +0.254 A 
ATOM     35  O   UNL     1       5.842   6.279  23.419  0.00  0.00    -0.268 OA
ATOM     36  C   UNL     1       6.703   4.392  22.316  0.00  0.00    +0.088 A 
ATOM     37  C   UNL     1       7.320   3.217  22.470  0.00  0.00    +0.098 A 
ENDBRANCH  24  29
BRANCH  28  38
ATOM     38  O   UNL     1      10.053   2.119  21.360  0.00  0.00    -0.386 OA
ATOM     39  H   UNL     1       9.829   1.792  20.474  0.00  0.00    +0.210 HD
ENDBRANCH  28  38
ENDBRANCH  21  22
ENDBRANCH   1  21
TORSDOF 12
ENDMDL
MODEL 2
REMARK VINA RESULT:      -6.9      1.734      2.344
REMARK  Name = 
REMARK  16 active torsions:
REMARK  status: ('A' for Active; 'I' for Inactive)
REMARK    1  A    between atoms: C_1  and  C_2
REMARK    2  A    between atoms: C_2  and  C_4
REMARK    3  A    between atoms: C_2  and  N_10
REMARK    4  A    between atoms: C_4  and  O_6
REMARK    5  A    between atoms: O_6  and  C_7
REMARK    6  A    between atoms: C_7  and  C_8
REMARK    7  A    between atoms: C_7  and  C_9
REMARK    8  A    between atoms: N_10  and  P_11
REMARK    9  A    between atoms: P_11  and  O_13
REMARK   10  A    between atoms: P_11  and  O_34
REMARK   11  A    between atoms: O_13  and  C_14
REMARK   12  A    between atoms: C_14  and  C_15
REMARK   13  A    between atoms: C_17  and  O_33
REMARK   14  A    between atoms: C_19  and  C_31
REMARK   15  A    between atoms: C_20  and  N_23
REMARK   16  A    between atoms: O_34  and  C_35
REMARK                            x       y       z     vdW  Elec       q    Type
REMARK                         _______ _______ _______ _____ _____    ______ ____
ROOT
ATOM      1  O   UNL     1       7.512  -2.051  24.198  0.00  0.00    -0.284 OA
ENDROOT
BRANCH   1   2
ATOM      2  P   UNL     1       7.961  -3.649  24.208  0.00  0.00    +0.462 P 
ATOM      3  O   UNL     1       9.495  -3.660  24.131  0.00  0.00    -0.228 OA
BRANCH   2   4
ATOM      4  N   UNL     1       7.948  -3.673  22.429  0.00  0.00    -0.199 NA
ATOM      5  H   UNL     1       8.917  -3.920  22.231  0.00  0.00    +0.135 HD
BRANCH   4   7
ATOM      6  C   UNL     1       7.320  -6.094  22.277  0.00  0.00    +0.036 C 
ATOM      7  C   UNL     1       7.058  -4.668  21.807  0.00  0.00    +0.171 C 
BRANCH   7   8
ATOM      8  C   UNL     1       5.610  -4.272  22.081  0.00  0.00    +0.325 C 
ATOM      9  O   UNL     1       5.178  -3.130  21.932  0.00  0.00    -0.249 OA
BRANCH   8  10
ATOM     10  O   UNL     1       4.890  -5.348  22.498  0.00  0.00    -0.461 OA
BRANCH  10  11
ATOM     11  C   UNL     1       4.175  -5.215  23.740  0.00  0.00    +0.170 C 
ATOM     12  C   UNL     1       4.535  -6.417  24.609  0.00  0.00    +0.052 C 
ATOM     13  C   UNL     1       2.673  -5.195  23.472  0.00  0.00    +0.052 C 
ENDBRANCH  10  11
ENDBRANCH   8  10
ENDBRANCH   7   8
ENDBRANCH   4   7
ENDBRANCH   2   4
BRANCH   2  14
ATOM     14  O   UNL     1       7.972  -3.625  25.938  0.00  0.00    -0.413 OA
BRANCH  14  15
ATOM     15  C   UNL     1       6.905  -4.092  26.653  0.00  0.00    +0.131 A 
ATOM     16  C   UNL     1       5.700  -3.407  26.777  0.00  0.00    +0.046 A 
ATOM     17  C   UNL     1       4.668  -3.957  27.542  0.00  0.00    +0.004 A 
ATOM     18  C   UNL     1       4.848  -5.180  28.190  0.00  0.00    +0.000 A 
ATOM     19  C   UNL     1       6.063  -5.853  28.081  0.00  0.00    +0.004 A 
ATOM     20  C   UNL     1       7.093  -5.305  27.315  0.00  0.00    +0.046 A 
ENDBRANCH  14  15
ENDBRANCH   2  14
ENDBRANCH   1   2
BRANCH   1  21
ATOM     21  C   UNL     1       8.558  -1.098  24.261  0.00  0.00    +0.206 C 
BRANCH  21  22
ATOM     22  C   UNL     1       8.330   0.048  23.265  0.00  0.00    +0.179 C 
ATOM     23  O   UNL     1       7.914   1.220  23.996  0.00  0.00    -0.345 OA
ATOM     24  C   UNL     1       8.950   2.230  23.913  0.00  0.00    +0.263 C 
ATOM     25  C   UNL     1      10.159   1.619  23.174  0.00  0.00    +0.182 C 
ATOM     26  C   UNL     1      11.253   1.151  24.129  0.00  0.00    +0.055 C 
ATOM     27  F   UNL     1      10.741   2.511  22.326  0.00  0.00    -0.235 F 
ATOM     28  C   UNL     1       9.525   0.464  22.397  0.00  0.00    +0.187 C 
BRANCH  24  29
ATOM     29  N   UNL     1       8.396   3.456  23.324  0.00  0.00    -0.271 N 
ATOM     30  C   UNL     1       9.073   4.643  23.570  0.00  0.00    +0.331 A 
ATOM     31  O   UNL     1      10.081   4.725  24.271  0.00  0.00    -0.246 OA
ATOM     32  N   UNL     1       8.536   5.769  23.001  0.00  0.00    -0.275 N 
ATOM     33  H   UNL     1       8.996   6.642  23.191  0.00  0.00    +0.173 HD
ATOM     34  C   UNL     1       7.434   5.816  22.194  0.00  0.00    +0.254 A 
ATOM     35  O   UNL     1       6.989   6.853  21.720  0.00  0.00    -0.268 OA
ATOM     36  C   UNL     1       6.789   4.521  21.924  0.00  0.00    +0.088 A 
ATOM     37  C   UNL     1       7.291   3.421  22.492  0.00  0.00    +0.098 A 
ENDBRANCH  24  29
BRANCH  28  38
ATOM     38  O   UNL     1       9.047   0.973  21.135  0.00  0.00    -0.386 OA
ATOM     39  H   UNL     1       8.146   1.318  21.247  0.00  0.00    +0.210 HD
ENDBRANCH  28  38
ENDBRANCH  21  22
ENDBRANCH   1  21
TORSDOF 12
ENDMDL
MODEL 3
REMARK VINA RESULT:      -6.8      2.197      3.371
REMARK  Name = 
REMARK  16 active torsions:
REMARK  status: ('A' for Active; 'I' for Inactive)
REMARK    1  A    between atoms: C_1  and  C_2
REMARK    2  A    between atoms: C_2  and  C_4
REMARK    3  A    between atoms: C_2  and  N_10
REMARK    4  A    between atoms: C_4  and  O_6
REMARK    5  A    between atoms: O_6  and  C_7
REMARK    6  A    between atoms: C_7  and  C_8
REMARK    7  A    between atoms: C_7  and  C_9
REMARK    8  A    between atoms: N_10  and  P_11
REMARK    9  A    between atoms: P_11  and  O_13
REMARK   10  A    between atoms: P_11  and  O_34
REMARK   11  A    between atoms: O_13  and  C_14
REMARK   12  A    between atoms: C_14  and  C_15
REMARK   13  A    between atoms: C_17  and  O_33
REMARK   14  A    between atoms: C_19  and  C_31
REMARK   15  A    between atoms: C_20  and  N_23
REMARK   16  A    between atoms: O_34  and  C_35
REMARK                            x       y       z     vdW  Elec       q    Type
REMARK                         _______ _______ _______ _____ _____    ______ ____
ROOT
ATOM      1  O   UNL     1       7.734  -3.168  24.962  0.00  0.00    -0.284 OA
ENDROOT
BRANCH   1   2
ATOM      2  P   UNL     1       7.808  -4.771  24.540  0.00  0.00    +0.462 P 
ATOM      3  O   UNL     1       9.301  -5.127  24.485  0.00  0.00    -0.228 OA
BRANCH   2   4
ATOM      4  N   UNL     1       7.931  -4.323  22.823  0.00  0.00    -0.199 NA
ATOM      5  H   UNL     1       8.827  -4.741  22.577  0.00  0.00    +0.135 HD
BRANCH   4   7
ATOM      6  C   UNL     1       6.710  -6.376  22.066  0.00  0.00    +0.036 C 
ATOM      7  C   UNL     1       6.884  -4.867  21.941  0.00  0.00    +0.171 C 
BRANCH   7   8
ATOM      8  C   UNL     1       5.570  -4.151  22.238  0.00  0.00    +0.325 C 
ATOM      9  O   UNL     1       5.323  -3.003  21.871  0.00  0.00    -0.249 OA
BRANCH   8  10
ATOM     10  O   UNL     1       4.735  -4.957  22.948  0.00  0.00    -0.461 OA
BRANCH  10  11
ATOM     11  C   UNL     1       3.491  -4.383  23.390  0.00  0.00    +0.170 C 
ATOM     12  C   UNL     1       3.759  -3.670  24.713  0.00  0.00    +0.052 C 
ATOM     13  C   UNL     1       2.456  -5.485  23.591  0.00  0.00    +0.052 C 
ENDBRANCH  10  11
ENDBRANCH   8  10
ENDBRANCH   7   8
ENDBRANCH   4   7
ENDBRANCH   2   4
BRANCH   2  14
ATOM     14  O   UNL     1       7.688  -5.207  26.211  0.00  0.00    -0.413 OA
BRANCH  14  15
ATOM     15  C   UNL     1       6.479  -5.505  26.772  0.00  0.00    +0.131 A 
ATOM     16  C   UNL     1       6.068  -5.036  28.016  0.00  0.00    +0.046 A 
ATOM     17  C   UNL     1       4.817  -5.407  28.516  0.00  0.00    +0.004 A 
ATOM     18  C   UNL     1       3.988  -6.255  27.779  0.00  0.00    +0.000 A 
ATOM     19  C   UNL     1       4.411  -6.740  26.543  0.00  0.00    +0.004 A 
ATOM     20  C   UNL     1       5.659  -6.368  26.043  0.00  0.00    +0.046 A 
ENDBRANCH  14  15
ENDBRANCH   2  14
ENDBRANCH   1   2
BRANCH   1  21
ATOM     21  C   UNL     1       8.461  -2.263  24.150  0.00  0.00    +0.206 C 
BRANCH  21  22
ATOM     22  C   UNL     1       7.891  -0.841  24.250  0.00  0.00    +0.179 C 
ATOM     23  O   UNL     1       8.913   0.031  24.772  0.00  0.00    -0.345 OA
ATOM     24  C   UNL     1       9.315   0.970  23.744  0.00  0.00    +0.263 C 
ATOM     25  C   UNL     1       8.578   0.599  22.440  0.00  0.00    +0.182 C 
ATOM     26  C   UNL     1       9.453  -0.205  21.482  0.00  0.00    +0.055 C 
ATOM     27  F   UNL     1       8.166   1.701  21.755  0.00  0.00    -0.235 F 
ATOM     28  C   UNL     1       7.380  -0.203  22.952  0.00  0.00    +0.187 C 
BRANCH  24  29
ATOM     29  N   UNL     1       9.108   2.343  24.223  0.00  0.00    -0.271 N 
ATOM     30  C   UNL     1       9.966   3.322  23.738  0.00  0.00    +0.331 A 
ATOM     31  O   UNL     1      10.894   3.098  22.964  0.00  0.00    -0.246 OA
ATOM     32  N   UNL     1       9.743   4.595  24.199  0.00  0.00    -0.275 N 
ATOM     33  H   UNL     1      10.371   5.312  23.881  0.00  0.00    +0.173 HD
ATOM     34  C   UNL     1       8.744   4.982  25.047  0.00  0.00    +0.254 A 
ATOM     35  O   UNL     1       8.597   6.132  25.435  0.00  0.00    -0.268 OA
ATOM     36  C   UNL     1       7.833   3.912  25.484  0.00  0.00    +0.088 A 
ATOM     37  C   UNL     1       8.054   2.664  25.060  0.00  0.00    +0.098 A 
ENDBRANCH  24  29
BRANCH  28  38
ATOM     38  O   UNL     1       6.313   0.719  23.258  0.00  0.00    -0.386 OA
ATOM     39  H   UNL     1       5.460   0.309  23.040  0.00  0.00    +0.210 HD
ENDBRANCH  28  38
ENDBRANCH  21  22
ENDBRANCH   1  21
TORSDOF 12
ENDMDL
MODEL 4
REMARK VINA RESULT:      -6.8      2.113      3.071
REMARK  Name = 
REMARK  16 active torsions:
REMARK  status: ('A' for Active; 'I' for Inactive)
REMARK    1  A    between atoms: C_1  and  C_2
REMARK    2  A    between atoms: C_2  and  C_4
REMARK    3  A    between atoms: C_2  and  N_10
REMARK    4  A    between atoms: C_4  and  O_6
REMARK    5  A    between atoms: O_6  and  C_7
REMARK    6  A    between atoms: C_7  and  C_8
REMARK    7  A    between atoms: C_7  and  C_9
REMARK    8  A    between atoms: N_10  and  P_11
REMARK    9  A    between atoms: P_11  and  O_13
REMARK   10  A    between atoms: P_11  and  O_34
REMARK   11  A    between atoms: O_13  and  C_14
REMARK   12  A    between atoms: C_14  and  C_15
REMARK   13  A    between atoms: C_17  and  O_33
REMARK   14  A    between atoms: C_19  and  C_31
REMARK   15  A    between atoms: C_20  and  N_23
REMARK   16  A    between atoms: O_34  and  C_35
REMARK                            x       y       z     vdW  Elec       q    Type
REMARK                         _______ _______ _______ _____ _____    ______ ____
ROOT
ATOM      1  O   UNL     1       8.652  -3.135  24.651  0.00  0.00    -0.284 OA
ENDROOT
BRANCH   1   2
ATOM      2  P   UNL     1       7.856  -4.554  24.324  0.00  0.00    +0.462 P 
ATOM      3  O   UNL     1       8.944  -5.583  23.983  0.00  0.00    -0.228 OA
BRANCH   2   4
ATOM      4  N   UNL     1       7.812  -4.142  22.593  0.00  0.00    -0.199 NA
ATOM      5  H   UNL     1       8.626  -4.652  22.252  0.00  0.00    +0.135 HD
BRANCH   4   7
ATOM      6  C   UNL     1       6.488  -6.105  21.772  0.00  0.00    +0.036 C 
ATOM      7  C   UNL     1       6.617  -4.589  21.858  0.00  0.00    +0.171 C 
BRANCH   7   8
ATOM      8  C   UNL     1       5.380  -3.983  22.515  0.00  0.00    +0.325 C 
ATOM      9  O   UNL     1       5.310  -2.810  22.882  0.00  0.00    -0.249 OA
BRANCH   8  10
ATOM     10  O   UNL     1       4.393  -4.913  22.627  0.00  0.00    -0.461 OA
BRANCH  10  11
ATOM     11  C   UNL     1       3.636  -4.919  23.851  0.00  0.00    +0.170 C 
ATOM     12  C   UNL     1       4.160  -6.067  24.710  0.00  0.00    +0.052 C 
ATOM     13  C   UNL     1       2.157  -5.131  23.542  0.00  0.00    +0.052 C 
ENDBRANCH  10  11
ENDBRANCH   8  10
ENDBRANCH   7   8
ENDBRANCH   4   7
ENDBRANCH   2   4
BRANCH   2  14
ATOM     14  O   UNL     1       7.898  -4.955  26.007  0.00  0.00    -0.413 OA
BRANCH  14  15
ATOM     15  C   UNL     1       6.831  -4.689  26.818  0.00  0.00    +0.131 A 
ATOM     16  C   UNL     1       6.052  -3.540  26.717  0.00  0.00    +0.046 A 
ATOM     17  C   UNL     1       4.988  -3.347  27.602  0.00  0.00    +0.004 A 
ATOM     18  C   UNL     1       4.714  -4.294  28.591  0.00  0.00    +0.000 A 
ATOM     19  C   UNL     1       5.510  -5.433  28.703  0.00  0.00    +0.004 A 
ATOM     20  C   UNL     1       6.571  -5.627  27.818  0.00  0.00    +0.046 A 
ENDBRANCH  14  15
ENDBRANCH   2  14
ENDBRANCH   1   2
BRANCH   1  21
ATOM     21  C   UNL     1       8.995  -2.329  23.537  0.00  0.00    +0.206 C 
BRANCH  21  22
ATOM     22  C   UNL     1       9.657  -1.016  23.981  0.00  0.00    +0.179 C 
ATOM     23  O   UNL     1       9.376  -0.001  22.997  0.00  0.00    -0.345 OA
ATOM     24  C   UNL     1       8.509   1.004  23.579  0.00  0.00    +0.263 C 
ATOM     25  C   UNL     1       8.117   0.539  24.997  0.00  0.00    +0.182 C 
ATOM     26  C   UNL     1       6.733  -0.102  25.042  0.00  0.00    +0.055 C 
ATOM     27  F   UNL     1       8.094   1.571  25.884  0.00  0.00    -0.235 F 
ATOM     28  C   UNL     1       9.232  -0.450  25.343  0.00  0.00    +0.187 C 
BRANCH  24  29
ATOM     29  N   UNL     1       9.155   2.320  23.497  0.00  0.00    -0.271 N 
ATOM     30  C   UNL     1       8.328   3.433  23.430  0.00  0.00    +0.331 A 
ATOM     31  O   UNL     1       7.100   3.374  23.405  0.00  0.00    -0.246 OA
ATOM     32  N   UNL     1       8.961   4.648  23.361  0.00  0.00    -0.275 N 
ATOM     33  H   UNL     1       8.380   5.463  23.283  0.00  0.00    +0.173 HD
ATOM     34  C   UNL     1      10.312   4.855  23.391  0.00  0.00    +0.254 A 
ATOM     35  O   UNL     1      10.826   5.962  23.316  0.00  0.00    -0.268 OA
ATOM     36  C   UNL     1      11.137   3.643  23.518  0.00  0.00    +0.088 A 
ATOM     37  C   UNL     1      10.531   2.453  23.564  0.00  0.00    +0.098 A 
ENDBRANCH  24  29
BRANCH  28  38
ATOM     38  O   UNL     1      10.331   0.287  25.919  0.00  0.00    -0.386 OA
ATOM     39  H   UNL     1      10.022   0.760  26.710  0.00  0.00    +0.210 HD
ENDBRANCH  28  38
ENDBRANCH  21  22
ENDBRANCH   1  21
TORSDOF 12
ENDMDL
MODEL 5
REMARK VINA RESULT:      -6.7      3.146      7.511
REMARK  Name = 
REMARK  16 active torsions:
REMARK  status: ('A' for Active; 'I' for Inactive)
REMARK    1  A    between atoms: C_1  and  C_2
REMARK    2  A    between atoms: C_2  and  C_4
REMARK    3  A    between atoms: C_2  and  N_10
REMARK    4  A    between atoms: C_4  and  O_6
REMARK    5  A    between atoms: O_6  and  C_7
REMARK    6  A    between atoms: C_7  and  C_8
REMARK    7  A    between atoms: C_7  and  C_9
REMARK    8  A    between atoms: N_10  and  P_11
REMARK    9  A    between atoms: P_11  and  O_13
REMARK   10  A    between atoms: P_11  and  O_34
REMARK   11  A    between atoms: O_13  and  C_14
REMARK   12  A    between atoms: C_14  and  C_15
REMARK   13  A    between atoms: C_17  and  O_33
REMARK   14  A    between atoms: C_19  and  C_31
REMARK   15  A    between atoms: C_20  and  N_23
REMARK   16  A    between atoms: O_34  and  C_35
REMARK                            x       y       z     vdW  Elec       q    Type
REMARK                         _______ _______ _______ _____ _____    ______ ____
ROOT
ATOM      1  O   UNL     1       7.123  -1.269  26.624  0.00  0.00    -0.284 OA
ENDROOT
BRANCH   1   2
ATOM      2  P   UNL     1       6.904  -0.283  25.307  0.00  0.00    +0.462 P 
ATOM      3  O   UNL     1       6.704   1.134  25.865  0.00  0.00    -0.228 OA
BRANCH   2   4
ATOM      4  N   UNL     1       5.142  -0.496  25.427  0.00  0.00    -0.199 NA
ATOM      5  H   UNL     1       5.033  -1.431  25.035  0.00  0.00    +0.135 HD
BRANCH   4   7
ATOM      6  C   UNL     1       3.636   0.693  27.038  0.00  0.00    +0.036 C 
ATOM      7  C   UNL     1       4.584  -0.474  26.789  0.00  0.00    +0.171 C 
BRANCH   7   8
ATOM      8  C   UNL     1       3.880  -1.801  27.055  0.00  0.00    +0.325 C 
ATOM      9  O   UNL     1       3.962  -2.413  28.119  0.00  0.00    -0.249 OA
BRANCH   8  10
ATOM     10  O   UNL     1       3.165  -2.191  25.965  0.00  0.00    -0.461 OA
BRANCH  10  11
ATOM     11  C   UNL     1       2.000  -3.003  26.203  0.00  0.00    +0.170 C 
ATOM     12  C   UNL     1       1.836  -3.933  25.004  0.00  0.00    +0.052 C 
ATOM     13  C   UNL     1       0.770  -2.112  26.346  0.00  0.00    +0.052 C 
ENDBRANCH  10  11
ENDBRANCH   8  10
ENDBRANCH   7   8
ENDBRANCH   4   7
ENDBRANCH   2   4
BRANCH   2  14
ATOM     14  O   UNL     1       8.618  -0.076  25.190  0.00  0.00    -0.413 OA
BRANCH  14  15
ATOM     15  C   UNL     1       9.169   0.650  24.172  0.00  0.00    +0.131 A 
ATOM     16  C   UNL     1       9.923   1.803  24.365  0.00  0.00    +0.046 A 
ATOM     17  C   UNL     1      10.435   2.488  23.260  0.00  0.00    +0.004 A 
ATOM     18  C   UNL     1      10.181   2.027  21.967  0.00  0.00    +0.000 A 
ATOM     19  C   UNL     1       9.407   0.884  21.776  0.00  0.00    +0.004 A 
ATOM     20  C   UNL     1       8.899   0.199  22.879  0.00  0.00    +0.046 A 
ENDBRANCH  14  15
ENDBRANCH   2  14
ENDBRANCH   1   2
BRANCH   1  21
ATOM     21  C   UNL     1       8.190  -2.198  26.552  0.00  0.00    +0.206 C 
BRANCH  21  22
ATOM     22  C   UNL     1       7.669  -3.638  26.439  0.00  0.00    +0.179 C 
ATOM     23  O   UNL     1       6.311  -3.603  25.958  0.00  0.00    -0.345 OA
ATOM     24  C   UNL     1       6.259  -4.177  24.628  0.00  0.00    +0.263 C 
ATOM     25  C   UNL     1       7.702  -4.497  24.185  0.00  0.00    +0.182 C 
ATOM     26  C   UNL     1       8.282  -3.428  23.263  0.00  0.00    +0.055 C 
ATOM     27  F   UNL     1       7.778  -5.675  23.507  0.00  0.00    -0.235 F 
ATOM     28  C   UNL     1       8.446  -4.588  25.518  0.00  0.00    +0.187 C 
BRANCH  24  29
ATOM     29  N   UNL     1       5.323  -5.309  24.617  0.00  0.00    -0.271 N 
ATOM     30  C   UNL     1       4.723  -5.627  23.405  0.00  0.00    +0.331 A 
ATOM     31  O   UNL     1       4.908  -5.001  22.363  0.00  0.00    -0.246 OA
ATOM     32  N   UNL     1       3.860  -6.693  23.426  0.00  0.00    -0.275 N 
ATOM     33  H   UNL     1       3.395  -6.921  22.565  0.00  0.00    +0.173 HD
ATOM     34  C   UNL     1       3.576  -7.479  24.507  0.00  0.00    +0.254 A 
ATOM     35  O   UNL     1       2.788  -8.414  24.473  0.00  0.00    -0.268 OA
ATOM     36  C   UNL     1       4.283  -7.129  25.750  0.00  0.00    +0.088 A 
ATOM     37  C   UNL     1       5.108  -6.078  25.746  0.00  0.00    +0.098 A 
ENDBRANCH  24  29
BRANCH  28  38
ATOM     38  O   UNL     1       8.329  -5.938  26.013  0.00  0.00    -0.386 OA
ATOM     39  H   UNL     1       9.216  -6.316  26.132  0.00  0.00    +0.210 HD
ENDBRANCH  28  38
ENDBRANCH  21  22
ENDBRANCH   1  21
TORSDOF 12
ENDMDL
MODEL 6
REMARK VINA RESULT:      -6.6      3.002      7.624
REMARK  Name = 
REMARK  16 active torsions:
REMARK  status: ('A' for Active; 'I' for Inactive)
REMARK    1  A    between atoms: C_1  and  C_2
REMARK    2  A    between atoms: C_2  and  C_4
REMARK    3  A    between atoms: C_2  and  N_10
REMARK    4  A    between atoms: C_4  and  O_6
REMARK    5  A    between atoms: O_6  and  C_7
REMARK    6  A    between atoms: C_7  and  C_8
REMARK    7  A    between atoms: C_7  and  C_9
REMARK    8  A    between atoms: N_10  and  P_11
REMARK    9  A    between atoms: P_11  and  O_13
REMARK   10  A    between atoms: P_11  and  O_34
REMARK   11  A    between atoms: O_13  and  C_14
REMARK   12  A    between atoms: C_14  and  C_15
REMARK   13  A    between atoms: C_17  and  O_33
REMARK   14  A    between atoms: C_19  and  C_31
REMARK   15  A    between atoms: C_20  and  N_23
REMARK   16  A    between atoms: O_34  and  C_35
REMARK                            x       y       z     vdW  Elec       q    Type
REMARK                         _______ _______ _______ _____ _____    ______ ____
ROOT
ATOM      1  O   UNL     1       8.758  -3.032  25.797  0.00  0.00    -0.284 OA
ENDROOT
BRANCH   1   2
ATOM      2  P   UNL     1       8.478  -1.396  25.791  0.00  0.00    +0.462 P 
ATOM      3  O   UNL     1       9.172  -0.841  27.043  0.00  0.00    -0.228 OA
BRANCH   2   4
ATOM      4  N   UNL     1       7.026  -1.630  26.794  0.00  0.00    -0.199 NA
ATOM      5  H   UNL     1       7.367  -1.321  27.703  0.00  0.00    +0.135 HD
BRANCH   4   7
ATOM      6  C   UNL     1       4.547  -1.346  27.013  0.00  0.00    +0.036 C 
ATOM      7  C   UNL     1       5.850  -0.828  26.418  0.00  0.00    +0.171 C 
BRANCH   7   8
ATOM      8  C   UNL     1       6.090   0.620  26.834  0.00  0.00    +0.325 C 
ATOM      9  O   UNL     1       6.489   0.950  27.950  0.00  0.00    -0.249 OA
BRANCH   8  10
ATOM     10  O   UNL     1       5.806   1.467  25.807  0.00  0.00    -0.461 OA
BRANCH  10  11
ATOM     11  C   UNL     1       6.878   1.775  24.898  0.00  0.00    +0.170 C 
ATOM     12  C   UNL     1       7.299   3.219  25.157  0.00  0.00    +0.052 C 
ATOM     13  C   UNL     1       6.394   1.622  23.459  0.00  0.00    +0.052 C 
ENDBRANCH  10  11
ENDBRANCH   8  10
ENDBRANCH   7   8
ENDBRANCH   4   7
ENDBRANCH   2   4
BRANCH   2  14
ATOM     14  O   UNL     1       9.888  -1.168  24.815  0.00  0.00    -0.413 OA
BRANCH  14  15
ATOM     15  C   UNL     1       9.991  -0.099  23.970  0.00  0.00    +0.131 A 
ATOM     16  C   UNL     1      10.456   1.153  24.362  0.00  0.00    +0.046 A 
ATOM     17  C   UNL     1      10.512   2.192  23.429  0.00  0.00    +0.004 A 
ATOM     18  C   UNL     1      10.093   1.981  22.114  0.00  0.00    +0.000 A 
ATOM     19  C   UNL     1       9.608   0.732  21.731  0.00  0.00    +0.004 A 
ATOM     20  C   UNL     1       9.554  -0.306  22.661  0.00  0.00    +0.046 A 
ENDBRANCH  14  15
ENDBRANCH   2  14
ENDBRANCH   1   2
BRANCH   1  21
ATOM     21  C   UNL     1       8.942  -3.649  24.535  0.00  0.00    +0.206 C 
BRANCH  21  22
ATOM     22  C   UNL     1       7.856  -4.699  24.263  0.00  0.00    +0.179 C 
ATOM     23  O   UNL     1       6.823  -4.565  25.260  0.00  0.00    -0.345 OA
ATOM     24  C   UNL     1       5.605  -4.097  24.629  0.00  0.00    +0.263 C 
ATOM     25  C   UNL     1       5.914  -3.804  23.146  0.00  0.00    +0.182 C 
ATOM     26  C   UNL     1       6.145  -2.319  22.879  0.00  0.00    +0.055 C 
ATOM     27  F   UNL     1       4.897  -4.190  22.327  0.00  0.00    -0.235 F 
ATOM     28  C   UNL     1       7.165  -4.646  22.894  0.00  0.00    +0.187 C 
BRANCH  24  29
ATOM     29  N   UNL     1       4.522  -5.057  24.876  0.00  0.00    -0.271 N 
ATOM     30  C   UNL     1       3.226  -4.559  24.923  0.00  0.00    +0.331 A 
ATOM     31  O   UNL     1       2.946  -3.367  24.801  0.00  0.00    -0.246 OA
ATOM     32  N   UNL     1       2.237  -5.481  25.148  0.00  0.00    -0.275 N 
ATOM     33  H   UNL     1       1.296  -5.135  25.214  0.00  0.00    +0.173 HD
ATOM     34  C   UNL     1       2.409  -6.829  25.288  0.00  0.00    +0.254 A 
ATOM     35  O   UNL     1       1.489  -7.608  25.498  0.00  0.00    -0.268 OA
ATOM     36  C   UNL     1       3.796  -7.308  25.175  0.00  0.00    +0.088 A 
ATOM     37  C   UNL     1       4.771  -6.415  24.978  0.00  0.00    +0.098 A 
ENDBRANCH  24  29
BRANCH  28  38
ATOM     38  O   UNL     1       6.749  -5.975  22.514  0.00  0.00    -0.386 OA
ATOM     39  H   UNL     1       7.534  -6.526  22.361  0.00  0.00    +0.210 HD
ENDBRANCH  28  38
ENDBRANCH  21  22
ENDBRANCH   1  21
TORSDOF 12
ENDMDL
MODEL 7
REMARK VINA RESULT:      -6.5      2.524      4.276
REMARK  Name = 
REMARK  16 active torsions:
REMARK  status: ('A' for Active; 'I' for Inactive)
REMARK    1  A    between atoms: C_1  and  C_2
REMARK    2  A    between atoms: C_2  and  C_4
REMARK    3  A    between atoms: C_2  and  N_10
REMARK    4  A    between atoms: C_4  and  O_6
REMARK    5  A    between atoms: O_6  and  C_7
REMARK    6  A    between atoms: C_7  and  C_8
REMARK    7  A    between atoms: C_7  and  C_9
REMARK    8  A    between atoms: N_10  and  P_11
REMARK    9  A    between atoms: P_11  and  O_13
REMARK   10  A    between atoms: P_11  and  O_34
REMARK   11  A    between atoms: O_13  and  C_14
REMARK   12  A    between atoms: C_14  and  C_15
REMARK   13  A    between atoms: C_17  and  O_33
REMARK   14  A    between atoms: C_19  and  C_31
REMARK   15  A    between atoms: C_20  and  N_23
REMARK   16  A    between atoms: O_34  and  C_35
REMARK                            x       y       z     vdW  Elec       q    Type
REMARK                         _______ _______ _______ _____ _____    ______ ____
ROOT
ATOM      1  O   UNL     1       5.267  -1.507  25.150  0.00  0.00    -0.284 OA
ENDROOT
BRANCH   1   2
ATOM      2  P   UNL     1       5.108  -3.026  25.799  0.00  0.00    +0.462 P 
ATOM      3  O   UNL     1       4.984  -2.828  27.318  0.00  0.00    -0.228 OA
BRANCH   2   4
ATOM      4  N   UNL     1       6.869  -3.122  26.032  0.00  0.00    -0.199 NA
ATOM      5  H   UNL     1       6.946  -2.891  27.022  0.00  0.00    +0.135 HD
BRANCH   4   7
ATOM      6  C   UNL     1       6.522  -5.603  26.037  0.00  0.00    +0.036 C 
ATOM      7  C   UNL     1       7.477  -4.441  25.793  0.00  0.00    +0.171 C 
BRANCH   7   8
ATOM      8  C   UNL     1       8.016  -4.483  24.366  0.00  0.00    +0.325 C 
ATOM      9  O   UNL     1       9.112  -4.028  24.040  0.00  0.00    -0.249 OA
BRANCH   8  10
ATOM     10  O   UNL     1       7.125  -5.087  23.534  0.00  0.00    -0.461 OA
BRANCH  10  11
ATOM     11  C   UNL     1       7.140  -4.680  22.154  0.00  0.00    +0.170 C 
ATOM     12  C   UNL     1       6.367  -3.368  22.054  0.00  0.00    +0.052 C 
ATOM     13  C   UNL     1       6.469  -5.747  21.294  0.00  0.00    +0.052 C 
ENDBRANCH  10  11
ENDBRANCH   8  10
ENDBRANCH   7   8
ENDBRANCH   4   7
ENDBRANCH   2   4
BRANCH   2  14
ATOM     14  O   UNL     1       3.395  -2.933  25.572  0.00  0.00    -0.413 OA
BRANCH  14  15
ATOM     15  C   UNL     1       2.737  -3.859  24.812  0.00  0.00    +0.131 A 
ATOM     16  C   UNL     1       1.365  -4.081  24.880  0.00  0.00    +0.046 A 
ATOM     17  C   UNL     1       0.782  -5.061  24.072  0.00  0.00    +0.004 A 
ATOM     18  C   UNL     1       1.572  -5.824  23.211  0.00  0.00    +0.000 A 
ATOM     19  C   UNL     1       2.949  -5.615  23.161  0.00  0.00    +0.004 A 
ATOM     20  C   UNL     1       3.531  -4.634  23.966  0.00  0.00    +0.046 A 
ENDBRANCH  14  15
ENDBRANCH   2  14
ENDBRANCH   1   2
BRANCH   1  21
ATOM     21  C   UNL     1       6.589  -1.033  24.960  0.00  0.00    +0.206 C 
BRANCH  21  22
ATOM     22  C   UNL     1       6.594   0.375  24.348  0.00  0.00    +0.179 C 
ATOM     23  O   UNL     1       7.600   1.164  25.014  0.00  0.00    -0.345 OA
ATOM     24  C   UNL     1       8.667   1.468  24.082  0.00  0.00    +0.263 C 
ATOM     25  C   UNL     1       8.378   0.725  22.761  0.00  0.00    +0.182 C 
ATOM     26  C   UNL     1       9.176  -0.570  22.630  0.00  0.00    +0.055 C 
ATOM     27  F   UNL     1       8.686   1.481  21.672  0.00  0.00    -0.235 F 
ATOM     28  C   UNL     1       6.870   0.478  22.842  0.00  0.00    +0.187 C 
BRANCH  24  29
ATOM     29  N   UNL     1       8.826   2.923  23.972  0.00  0.00    -0.271 N 
ATOM     30  C   UNL     1      10.089   3.404  23.652  0.00  0.00    +0.331 A 
ATOM     31  O   UNL     1      11.075   2.686  23.489  0.00  0.00    -0.246 OA
ATOM     32  N   UNL     1      10.204   4.767  23.550  0.00  0.00    -0.275 N 
ATOM     33  H   UNL     1      11.117   5.135  23.347  0.00  0.00    +0.173 HD
ATOM     34  C   UNL     1       9.192   5.674  23.694  0.00  0.00    +0.254 A 
ATOM     35  O   UNL     1       9.352   6.883  23.602  0.00  0.00    -0.268 OA
ATOM     36  C   UNL     1       7.865   5.104  23.978  0.00  0.00    +0.088 A 
ATOM     37  C   UNL     1       7.746   3.779  24.102  0.00  0.00    +0.098 A 
ENDBRANCH  24  29
BRANCH  28  38
ATOM     38  O   UNL     1       6.191   1.633  22.308  0.00  0.00    -0.386 OA
ATOM     39  H   UNL     1       6.628   2.439  22.626  0.00  0.00    +0.210 HD
ENDBRANCH  28  38
ENDBRANCH  21  22
ENDBRANCH   1  21
TORSDOF 12
ENDMDL
MODEL 8
REMARK VINA RESULT:      -6.5      2.036      5.379
REMARK  Name = 
REMARK  16 active torsions:
REMARK  status: ('A' for Active; 'I' for Inactive)
REMARK    1  A    between atoms: C_1  and  C_2
REMARK    2  A    between atoms: C_2  and  C_4
REMARK    3  A    between atoms: C_2  and  N_10
REMARK    4  A    between atoms: C_4  and  O_6
REMARK    5  A    between atoms: O_6  and  C_7
REMARK    6  A    between atoms: C_7  and  C_8
REMARK    7  A    between atoms: C_7  and  C_9
REMARK    8  A    between atoms: N_10  and  P_11
REMARK    9  A    between atoms: P_11  and  O_13
REMARK   10  A    between atoms: P_11  and  O_34
REMARK   11  A    between atoms: O_13  and  C_14
REMARK   12  A    between atoms: C_14  and  C_15
REMARK   13  A    between atoms: C_17  and  O_33
REMARK   14  A    between atoms: C_19  and  C_31
REMARK   15  A    between atoms: C_20  and  N_23
REMARK   16  A    between atoms: O_34  and  C_35
REMARK                            x       y       z     vdW  Elec       q    Type
REMARK                         _______ _______ _______ _____ _____    ______ ____
ROOT
ATOM      1  O   UNL     1       8.919  -2.742  25.887  0.00  0.00    -0.284 OA
ENDROOT
BRANCH   1   2
ATOM      2  P   UNL     1       8.841  -3.734  24.558  0.00  0.00    +0.462 P 
ATOM      3  O   UNL     1       9.813  -4.890  24.833  0.00  0.00    -0.228 OA
BRANCH   2   4
ATOM      4  N   UNL     1      10.206  -2.865  23.817  0.00  0.00    -0.199 NA
ATOM      5  H   UNL     1      10.704  -3.632  23.369  0.00  0.00    +0.135 HD
BRANCH   4   7
ATOM      6  C   UNL     1       8.382  -1.896  22.399  0.00  0.00    +0.036 C 
ATOM      7  C   UNL     1       9.851  -1.858  22.803  0.00  0.00    +0.171 C 
BRANCH   7   8
ATOM      8  C   UNL     1      10.225  -0.476  23.329  0.00  0.00    +0.325 C 
ATOM      9  O   UNL     1      10.680  -0.277  24.456  0.00  0.00    -0.249 OA
BRANCH   8  10
ATOM     10  O   UNL     1       9.989   0.476  22.387  0.00  0.00    -0.461 OA
BRANCH  10  11
ATOM     11  C   UNL     1       9.389   1.706  22.835  0.00  0.00    +0.170 C 
ATOM     12  C   UNL     1       8.336   2.105  21.806  0.00  0.00    +0.052 C 
ATOM     13  C   UNL     1      10.456   2.792  22.939  0.00  0.00    +0.052 C 
ENDBRANCH  10  11
ENDBRANCH   8  10
ENDBRANCH   7   8
ENDBRANCH   4   7
ENDBRANCH   2   4
BRANCH   2  14
ATOM     14  O   UNL     1       7.513  -4.578  25.278  0.00  0.00    -0.413 OA
BRANCH  14  15
ATOM     15  C   UNL     1       6.494  -5.067  24.510  0.00  0.00    +0.131 A 
ATOM     16  C   UNL     1       5.336  -5.635  25.034  0.00  0.00    +0.046 A 
ATOM     17  C   UNL     1       4.353  -6.121  24.169  0.00  0.00    +0.004 A 
ATOM     18  C   UNL     1       4.534  -6.050  22.787  0.00  0.00    +0.000 A 
ATOM     19  C   UNL     1       5.704  -5.500  22.265  0.00  0.00    +0.004 A 
ATOM     20  C   UNL     1       6.685  -5.012  23.129  0.00  0.00    +0.046 A 
ENDBRANCH  14  15
ENDBRANCH   2  14
ENDBRANCH   1   2
BRANCH   1  21
ATOM     21  C   UNL     1       7.695  -2.193  26.342  0.00  0.00    +0.206 C 
BRANCH  21  22
ATOM     22  C   UNL     1       7.806  -0.676  26.549  0.00  0.00    +0.179 C 
ATOM     23  O   UNL     1       7.468  -0.014  25.314  0.00  0.00    -0.345 OA
ATOM     24  C   UNL     1       6.227   0.715  25.483  0.00  0.00    +0.263 C 
ATOM     25  C   UNL     1       5.676   0.405  26.891  0.00  0.00    +0.182 C 
ATOM     26  C   UNL     1       4.580  -0.657  26.869  0.00  0.00    +0.055 C 
ATOM     27  F   UNL     1       5.136   1.506  27.480  0.00  0.00    -0.235 F 
ATOM     28  C   UNL     1       6.925  -0.057  27.643  0.00  0.00    +0.187 C 
BRANCH  24  29
ATOM     29  N   UNL     1       6.447   2.135  25.184  0.00  0.00    -0.271 N 
ATOM     30  C   UNL     1       5.422   2.816  24.538  0.00  0.00    +0.331 A 
ATOM     31  O   UNL     1       4.368   2.291  24.182  0.00  0.00    -0.246 OA
ATOM     32  N   UNL     1       5.654   4.142  24.279  0.00  0.00    -0.275 N 
ATOM     33  H   UNL     1       4.935   4.644  23.788  0.00  0.00    +0.173 HD
ATOM     34  C   UNL     1       6.770   4.849  24.630  0.00  0.00    +0.254 A 
ATOM     35  O   UNL     1       6.930   6.032  24.364  0.00  0.00    -0.268 OA
ATOM     36  C   UNL     1       7.798   4.090  25.359  0.00  0.00    +0.088 A 
ATOM     37  C   UNL     1       7.592   2.792  25.597  0.00  0.00    +0.098 A 
ENDBRANCH  24  29
BRANCH  28  38
ATOM     38  O   UNL     1       7.583   1.105  28.188  0.00  0.00    -0.386 OA
ATOM     39  H   UNL     1       6.927   1.805  28.340  0.00  0.00    +0.210 HD
ENDBRANCH  28  38
ENDBRANCH  21  22
ENDBRANCH   1  21
TORSDOF 12
ENDMDL
MODEL 9
REMARK VINA RESULT:      -6.4      3.125      8.257
REMARK  Name = 
REMARK  16 active torsions:
REMARK  status: ('A' for Active; 'I' for Inactive)
REMARK    1  A    between atoms: C_1  and  C_2
REMARK    2  A    between atoms: C_2  and  C_4
REMARK    3  A    between atoms: C_2  and  N_10
REMARK    4  A    between atoms: C_4  and  O_6
REMARK    5  A    between atoms: O_6  and  C_7
REMARK    6  A    between atoms: C_7  and  C_8
REMARK    7  A    between atoms: C_7  and  C_9
REMARK    8  A    between atoms: N_10  and  P_11
REMARK    9  A    between atoms: P_11  and  O_13
REMARK   10  A    between atoms: P_11  and  O_34
REMARK   11  A    between atoms: O_13  and  C_14
REMARK   12  A    between atoms: C_14  and  C_15
REMARK   13  A    between atoms: C_17  and  O_33
REMARK   14  A    between atoms: C_19  and  C_31
REMARK   15  A    between atoms: C_20  and  N_23
REMARK   16  A    between atoms: O_34  and  C_35
REMARK                            x       y       z     vdW  Elec       q    Type
REMARK                         _______ _______ _______ _____ _____    ______ ____
ROOT
ATOM      1  O   UNL     1       6.935   3.204  24.125  0.00  0.00    -0.284 OA
ENDROOT
BRANCH   1   2
ATOM      2  P   UNL     1       6.439   3.736  22.633  0.00  0.00    +0.462 P 
ATOM      3  O   UNL     1       6.919   2.680  21.625  0.00  0.00    -0.228 OA
BRANCH   2   4
ATOM      4  N   UNL     1       7.999   4.559  22.397  0.00  0.00    -0.199 NA
ATOM      5  H   UNL     1       8.247   4.240  21.461  0.00  0.00    +0.135 HD
BRANCH   4   7
ATOM      6  C   UNL     1       6.554   6.595  22.604  0.00  0.00    +0.036 C 
ATOM      7  C   UNL     1       7.957   6.030  22.414  0.00  0.00    +0.171 C 
BRANCH   7   8
ATOM      8  C   UNL     1       8.890   6.537  23.509  0.00  0.00    +0.325 C 
ATOM      9  O   UNL     1       8.495   7.042  24.559  0.00  0.00    -0.249 OA
BRANCH   8  10
ATOM     10  O   UNL     1      10.191   6.346  23.157  0.00  0.00    -0.461 OA
BRANCH  10  11
ATOM     11  C   UNL     1      11.016   5.608  24.077  0.00  0.00    +0.170 C 
ATOM     12  C   UNL     1      11.996   6.593  24.706  0.00  0.00    +0.052 C 
ATOM     13  C   UNL     1      11.777   4.519  23.327  0.00  0.00    +0.052 C 
ENDBRANCH  10  11
ENDBRANCH   8  10
ENDBRANCH   7   8
ENDBRANCH   4   7
ENDBRANCH   2   4
BRANCH   2  14
ATOM     14  O   UNL     1       4.922   2.936  22.862  0.00  0.00    -0.413 OA
BRANCH  14  15
ATOM     15  C   UNL     1       3.745   3.622  22.760  0.00  0.00    +0.131 A 
ATOM     16  C   UNL     1       2.783   3.365  21.788  0.00  0.00    +0.046 A 
ATOM     17  C   UNL     1       1.614   4.130  21.753  0.00  0.00    +0.004 A 
ATOM     18  C   UNL     1       1.417   5.156  22.679  0.00  0.00    +0.000 A 
ATOM     19  C   UNL     1       2.392   5.425  23.638  0.00  0.00    +0.004 A 
ATOM     20  C   UNL     1       3.558   4.660  23.674  0.00  0.00    +0.046 A 
ENDBRANCH  14  15
ENDBRANCH   2  14
ENDBRANCH   1   2
BRANCH   1  21
ATOM     21  C   UNL     1       8.332   3.171  24.355  0.00  0.00    +0.206 C 
BRANCH  21  22
ATOM     22  C   UNL     1       8.777   1.806  24.898  0.00  0.00    +0.179 C 
ATOM     23  O   UNL     1       7.819   0.810  24.485  0.00  0.00    -0.345 OA
ATOM     24  C   UNL     1       8.446  -0.096  23.543  0.00  0.00    +0.263 C 
ATOM     25  C   UNL     1       9.868   0.425  23.248  0.00  0.00    +0.182 C 
ATOM     26  C   UNL     1       9.946   1.201  21.936  0.00  0.00    +0.055 C 
ATOM     27  F   UNL     1      10.772  -0.588  23.152  0.00  0.00    -0.235 F 
ATOM     28  C   UNL     1      10.160   1.302  24.466  0.00  0.00    +0.187 C 
BRANCH  24  29
ATOM     29  N   UNL     1       8.364  -1.470  24.053  0.00  0.00    -0.271 N 
ATOM     30  C   UNL     1       8.318  -2.496  23.117  0.00  0.00    +0.331 A 
ATOM     31  O   UNL     1       8.312  -2.314  21.901  0.00  0.00    -0.246 OA
ATOM     32  N   UNL     1       8.250  -3.768  23.625  0.00  0.00    -0.275 N 
ATOM     33  H   UNL     1       8.188  -4.521  22.963  0.00  0.00    +0.173 HD
ATOM     34  C   UNL     1       8.262  -4.109  24.948  0.00  0.00    +0.254 A 
ATOM     35  O   UNL     1       8.188  -5.263  25.347  0.00  0.00    -0.268 OA
ATOM     36  C   UNL     1       8.367  -2.986  25.893  0.00  0.00    +0.088 A 
ATOM     37  C   UNL     1       8.412  -1.741  25.409  0.00  0.00    +0.098 A 
ENDBRANCH  24  29
BRANCH  28  38
ATOM     38  O   UNL     1      10.713   0.467  25.505  0.00  0.00    -0.386 OA
ATOM     39  H   UNL     1      11.656   0.672  25.615  0.00  0.00    +0.210 HD
ENDBRANCH  28  38
ENDBRANCH  21  22
ENDBRANCH   1  21
TORSDOF 12
ENDMDL
