MODEL 1
REMARK VINA RESULT:      -7.9      0.000      0.000
REMARK  Name = 
REMARK  17 active torsions:
REMARK  status: ('A' for Active; 'I' for Inactive)
REMARK    1  A    between atoms: C_1  and  C_2
REMARK    2  A    between atoms: C_2  and  C_3
REMARK    3  A    between atoms: C_2  and  C_4
REMARK    4  A    between atoms: C_2  and  N_5
REMARK    5  A    between atoms: C_6  and  C_8
REMARK    6  A    between atoms: N_20  and  C_21
REMARK    7  A    between atoms: C_21  and  C_22
REMARK    8  A    between atoms: C_22  and  C_24
REMARK    9  A    between atoms: C_22  and  O_54
REMARK   10  A    between atoms: C_24  and  C_26
REMARK   11  A    between atoms: C_24  and  N_33
REMARK   12  A    between atoms: C_26  and  C_27
REMARK   13  A    between atoms: C_34  and  C_36
REMARK   14  A    between atoms: C_36  and  C_37
REMARK   15  A    between atoms: C_36  and  N_41
REMARK   16  A    between atoms: C_37  and  C_38
REMARK   17  A    between atoms: C_42  and  C_44
REMARK                            x       y       z     vdW  Elec       q    Type
REMARK                         _______ _______ _______ _____ _____    ______ ____
ROOT
ATOM      1  C   UNL     1       4.174  -4.552  26.159  0.00  0.00    +0.107 C 
ENDROOT
BRANCH   1   2
ATOM      2  N   UNL     1       5.161  -4.708  25.043  0.00  0.00    -0.308 N 
ATOM      3  H   UNL     1       4.970  -4.206  24.181  0.00  0.00    +0.149 HD
ATOM      4  C   UNL     1       6.386  -5.320  25.168  0.00  0.00    +0.234 C 
ATOM      5  O   UNL     1       6.794  -5.757  26.242  0.00  0.00    -0.274 OA
BRANCH   4   6
ATOM      6  C   UNL     1       7.251  -5.418  23.874  0.00  0.00    +0.168 C 
BRANCH   6   7
ATOM      7  N   UNL     1       7.759  -4.092  23.498  0.00  0.00    -0.298 N 
ATOM      8  H   UNL     1       7.224  -3.542  22.827  0.00  0.00    +0.150 HD
ATOM      9  C   UNL     1       8.985  -3.586  23.854  0.00  0.00    +0.263 C 
ATOM     10  O   UNL     1       9.770  -4.176  24.586  0.00  0.00    -0.269 OA
BRANCH   9  11
ATOM     11  C   UNL     1       9.317  -2.237  23.301  0.00  0.00    +0.126 A 
ATOM     12  C   UNL     1       8.928  -1.942  22.003  0.00  0.00    +0.033 A 
ATOM     13  C   UNL     1       9.135  -0.652  21.539  0.00  0.00    +0.012 A 
ATOM     14  C   UNL     1       9.720   0.293  22.382  0.00  0.00    +0.000 A 
ATOM     15  C   UNL     1      10.144  -0.112  23.668  0.00  0.00    +0.072 A 
ATOM     16  C   UNL     1      10.750   0.842  24.479  0.00  0.00    +0.028 A 
ATOM     17  C   UNL     1      10.885   2.175  24.073  0.00  0.00    +0.002 A 
ATOM     18  C   UNL     1      10.428   2.571  22.821  0.00  0.00    +0.001 A 
ATOM     19  C   UNL     1       9.866   1.629  21.966  0.00  0.00    +0.010 A 
ATOM     20  N   UNL     1       9.949  -1.361  24.130  0.00  0.00    -0.242 NA
ENDBRANCH   9  11
ENDBRANCH   6   7
BRANCH   6  21
ATOM     21  C   UNL     1       6.550  -6.212  22.764  0.00  0.00    +0.127 C 
BRANCH  21  22
ATOM     22  C   UNL     1       5.940  -5.321  21.701  0.00  0.00    +0.213 C 
ATOM     23  N   UNL     1       6.131  -5.694  20.408  0.00  0.00    -0.329 N 
ATOM     24  H   UNL     1       5.803  -5.059  19.692  0.00  0.00    +0.145 HD
ATOM     25  H   UNL     1       6.840  -6.372  20.161  0.00  0.00    +0.145 HD
ATOM     26  O   UNL     1       5.304  -4.303  21.967  0.00  0.00    -0.276 OA
ENDBRANCH  21  22
ENDBRANCH   6  21
ENDBRANCH   4   6
ENDBRANCH   1   2
BRANCH   1  27
ATOM     27  C   UNL     1       4.504  -3.280  27.010  0.00  0.00    +0.149 C 
BRANCH  27  28
ATOM     28  O   UNL     1       5.187  -3.742  28.209  0.00  0.00    -0.389 OA
ATOM     29  H   UNL     1       4.694  -4.511  28.541  0.00  0.00    +0.210 HD
ENDBRANCH  27  28
BRANCH  27  30
ATOM     30  C   UNL     1       5.413  -2.136  26.401  0.00  0.00    +0.118 C 
BRANCH  30  32
ATOM     31  C   UNL     1       5.582   0.030  25.184  0.00  0.00    +0.143 C 
ATOM     32  N   UNL     1       5.060  -0.690  26.412  0.00  0.00    -0.289 NA
ATOM     33  C   UNL     1       5.476   0.004  27.645  0.00  0.00    +0.089 C 
ATOM     34  C   UNL     1       6.951   0.476  27.763  0.00  0.00    +0.006 C 
ATOM     35  C   UNL     1       7.569   1.032  26.474  0.00  0.00    -0.005 C 
ATOM     36  C   UNL     1       7.485   2.556  26.269  0.00  0.00    +0.004 C 
ATOM     37  C   UNL     1       6.731   3.418  27.281  0.00  0.00    +0.000 C 
ATOM     38  C   UNL     1       6.395   2.794  28.626  0.00  0.00    +0.000 C 
ATOM     39  C   UNL     1       7.141   1.495  28.898  0.00  0.00    +0.005 C 
ATOM     40  C   UNL     1       7.109   0.233  25.246  0.00  0.00    +0.032 C 
BRANCH  31  43
ATOM     41  N   UNL     1       5.385   2.031  23.689  0.00  0.00    -0.309 N 
ATOM     42  H   UNL     1       6.067   1.498  23.167  0.00  0.00    +0.149 HD
ATOM     43  C   UNL     1       4.860   1.414  24.830  0.00  0.00    +0.231 C 
ATOM     44  O   UNL     1       3.976   1.914  25.501  0.00  0.00    -0.274 OA
BRANCH  41  46
ATOM     45  C   UNL     1       4.993   4.459  24.266  0.00  0.00    +0.031 C 
ATOM     46  C   UNL     1       5.103   3.397  23.155  0.00  0.00    +0.026 C 
ATOM     47  C   UNL     1       6.291   3.815  22.256  0.00  0.00    +0.031 C 
ATOM     48  C   UNL     1       3.827   3.462  22.303  0.00  0.00    +0.031 C 
ENDBRANCH  41  46
ENDBRANCH  31  43
ENDBRANCH  30  32
ENDBRANCH  27  30
ENDBRANCH   1  27
BRANCH   1  49
ATOM     49  C   UNL     1       2.754  -4.505  25.545  0.00  0.00    +0.060 C 
BRANCH  49  50
ATOM     50  C   UNL     1       2.367  -5.722  24.720  0.00  0.00    -0.046 A 
ATOM     51  C   UNL     1       2.008  -5.582  23.371  0.00  0.00    +0.004 A 
ATOM     52  C   UNL     1       1.613  -6.692  22.615  0.00  0.00    +0.000 A 
ATOM     53  C   UNL     1       1.571  -7.955  23.199  0.00  0.00    +0.000 A 
ATOM     54  C   UNL     1       1.931  -8.109  24.538  0.00  0.00    +0.000 A 
ATOM     55  C   UNL     1       2.323  -6.999  25.295  0.00  0.00    +0.004 A 
ENDBRANCH  49  50
ENDBRANCH   1  49
TORSDOF 14
ENDMDL
MODEL 2
REMARK VINA RESULT:      -7.3      2.318      7.420
REMARK  Name = 
REMARK  17 active torsions:
REMARK  status: ('A' for Active; 'I' for Inactive)
REMARK    1  A    between atoms: C_1  and  C_2
REMARK    2  A    between atoms: C_2  and  C_3
REMARK    3  A    between atoms: C_2  and  C_4
REMARK    4  A    between atoms: C_2  and  N_5
REMARK    5  A    between atoms: C_6  and  C_8
REMARK    6  A    between atoms: N_20  and  C_21
REMARK    7  A    between atoms: C_21  and  C_22
REMARK    8  A    between atoms: C_22  and  C_24
REMARK    9  A    between atoms: C_22  and  O_54
REMARK   10  A    between atoms: C_24  and  C_26
REMARK   11  A    between atoms: C_24  and  N_33
REMARK   12  A    between atoms: C_26  and  C_27
REMARK   13  A    between atoms: C_34  and  C_36
REMARK   14  A    between atoms: C_36  and  C_37
REMARK   15  A    between atoms: C_36  and  N_41
REMARK   16  A    between atoms: C_37  and  C_38
REMARK   17  A    between atoms: C_42  and  C_44
REMARK                            x       y       z     vdW  Elec       q    Type
REMARK                         _______ _______ _______ _____ _____    ______ ____
ROOT
ATOM      1  C   UNL     1       9.138  -3.147  25.226  0.00  0.00    +0.107 C 
ENDROOT
BRANCH   1   2
ATOM      2  N   UNL     1       8.015  -2.191  25.493  0.00  0.00    -0.308 N 
ATOM      3  H   UNL     1       7.138  -2.359  25.008  0.00  0.00    +0.149 HD
ATOM      4  C   UNL     1       8.028  -1.230  26.475  0.00  0.00    +0.234 C 
ATOM      5  O   UNL     1       8.967  -1.108  27.261  0.00  0.00    -0.274 OA
BRANCH   4   6
ATOM      6  C   UNL     1       6.776  -0.304  26.562  0.00  0.00    +0.168 C 
BRANCH   6   7
ATOM      7  N   UNL     1       6.948   0.869  25.697  0.00  0.00    -0.298 N 
ATOM      8  H   UNL     1       7.098   1.776  26.136  0.00  0.00    +0.150 HD
ATOM      9  C   UNL     1       6.767   0.880  24.335  0.00  0.00    +0.263 C 
ATOM     10  O   UNL     1       6.498  -0.122  23.684  0.00  0.00    -0.269 OA
BRANCH   9  11
ATOM     11  C   UNL     1       6.934   2.207  23.667  0.00  0.00    +0.126 A 
ATOM     12  C   UNL     1       6.121   2.508  22.585  0.00  0.00    +0.033 A 
ATOM     13  C   UNL     1       6.201   3.783  22.045  0.00  0.00    +0.012 A 
ATOM     14  C   UNL     1       7.084   4.707  22.602  0.00  0.00    +0.000 A 
ATOM     15  C   UNL     1       7.922   4.295  23.664  0.00  0.00    +0.072 A 
ATOM     16  C   UNL     1       8.813   5.227  24.183  0.00  0.00    +0.028 A 
ATOM     17  C   UNL     1       8.848   6.549  23.722  0.00  0.00    +0.002 A 
ATOM     18  C   UNL     1       7.993   6.954  22.704  0.00  0.00    +0.001 A 
ATOM     19  C   UNL     1       7.127   6.031  22.128  0.00  0.00    +0.010 A 
ATOM     20  N   UNL     1       7.854   3.060  24.196  0.00  0.00    -0.242 NA
ENDBRANCH   9  11
ENDBRANCH   6   7
BRANCH   6  21
ATOM     21  C   UNL     1       6.363  -0.019  28.013  0.00  0.00    +0.127 C 
BRANCH  21  22
ATOM     22  C   UNL     1       6.937   1.280  28.541  0.00  0.00    +0.213 C 
ATOM     23  N   UNL     1       8.081   1.191  29.269  0.00  0.00    -0.329 N 
ATOM     24  H   UNL     1       8.422   2.042  29.697  0.00  0.00    +0.145 HD
ATOM     25  H   UNL     1       8.392   0.306  29.646  0.00  0.00    +0.145 HD
ATOM     26  O   UNL     1       6.410   2.373  28.342  0.00  0.00    -0.276 OA
ENDBRANCH  21  22
ENDBRANCH   6  21
ENDBRANCH   4   6
ENDBRANCH   1   2
BRANCH   1  27
ATOM     27  C   UNL     1       8.735  -4.599  25.653  0.00  0.00    +0.149 C 
BRANCH  27  28
ATOM     28  O   UNL     1       9.973  -5.315  25.925  0.00  0.00    -0.389 OA
ATOM     29  H   UNL     1       9.749  -6.064  26.502  0.00  0.00    +0.210 HD
ENDBRANCH  27  28
BRANCH  27  30
ATOM     30  C   UNL     1       7.813  -4.822  26.921  0.00  0.00    +0.118 C 
BRANCH  30  32
ATOM     31  C   UNL     1       5.646  -5.181  28.094  0.00  0.00    +0.143 C 
ATOM     32  N   UNL     1       6.374  -4.446  26.986  0.00  0.00    -0.289 NA
ATOM     33  C   UNL     1       5.670  -4.603  25.700  0.00  0.00    +0.089 C 
ATOM     34  C   UNL     1       5.169  -6.018  25.302  0.00  0.00    +0.006 C 
ATOM     35  C   UNL     1       4.603  -6.862  26.451  0.00  0.00    -0.005 C 
ATOM     36  C   UNL     1       3.081  -6.790  26.677  0.00  0.00    +0.004 C 
ATOM     37  C   UNL     1       2.233  -5.839  25.834  0.00  0.00    +0.000 C 
ATOM     38  C   UNL     1       2.861  -5.262  24.575  0.00  0.00    +0.000 C 
ATOM     39  C   UNL     1       4.144  -5.966  24.157  0.00  0.00    +0.005 C 
ATOM     40  C   UNL     1       5.413  -6.663  27.741  0.00  0.00    +0.032 C 
BRANCH  31  43
ATOM     41  N   UNL     1       3.970  -3.327  27.915  0.00  0.00    -0.309 N 
ATOM     42  H   UNL     1       4.570  -3.086  27.137  0.00  0.00    +0.149 HD
ATOM     43  C   UNL     1       4.278  -4.514  28.588  0.00  0.00    +0.231 C 
ATOM     44  O   UNL     1       3.590  -4.958  29.489  0.00  0.00    -0.274 OA
BRANCH  41  46
ATOM     45  C   UNL     1       3.093  -1.630  29.567  0.00  0.00    +0.031 C 
ATOM     46  C   UNL     1       2.890  -2.338  28.214  0.00  0.00    +0.026 C 
ATOM     47  C   UNL     1       2.933  -1.239  27.125  0.00  0.00    +0.031 C 
ATOM     48  C   UNL     1       1.484  -2.955  28.202  0.00  0.00    +0.031 C 
ENDBRANCH  41  46
ENDBRANCH  31  43
ENDBRANCH  30  32
ENDBRANCH  27  30
ENDBRANCH   1  27
BRANCH   1  49
ATOM     49  C   UNL     1       9.509  -3.050  23.726  0.00  0.00    +0.060 C 
BRANCH  49  50
ATOM     50  C   UNL     1       9.653  -1.635  23.188  0.00  0.00    -0.046 A 
ATOM     51  C   UNL     1       9.126  -1.295  21.933  0.00  0.00    +0.004 A 
ATOM     52  C   UNL     1       9.287  -0.006  21.412  0.00  0.00    +0.000 A 
ATOM     53  C   UNL     1       9.979   0.959  22.140  0.00  0.00    +0.000 A 
ATOM     54  C   UNL     1      10.502   0.636  23.392  0.00  0.00    +0.000 A 
ATOM     55  C   UNL     1      10.344  -0.654  23.912  0.00  0.00    +0.004 A 
ENDBRANCH  49  50
ENDBRANCH   1  49
TORSDOF 14
ENDMDL
MODEL 3
REMARK VINA RESULT:      -7.2      2.288      7.542
REMARK  Name = 
REMARK  17 active torsions:
REMARK  status: ('A' for Active; 'I' for Inactive)
REMARK    1  A    between atoms: C_1  and  C_2
REMARK    2  A    between atoms: C_2  and  C_3
REMARK    3  A    between atoms: C_2  and  C_4
REMARK    4  A    between atoms: C_2  and  N_5
REMARK    5  A    between atoms: C_6  and  C_8
REMARK    6  A    between atoms: N_20  and  C_21
REMARK    7  A    between atoms: C_21  and  C_22
REMARK    8  A    between atoms: C_22  and  C_24
REMARK    9  A    between atoms: C_22  and  O_54
REMARK   10  A    between atoms: C_24  and  C_26
REMARK   11  A    between atoms: C_24  and  N_33
REMARK   12  A    between atoms: C_26  and  C_27
REMARK   13  A    between atoms: C_34  and  C_36
REMARK   14  A    between atoms: C_36  and  C_37
REMARK   15  A    between atoms: C_36  and  N_41
REMARK   16  A    between atoms: C_37  and  C_38
REMARK   17  A    between atoms: C_42  and  C_44
REMARK                            x       y       z     vdW  Elec       q    Type
REMARK                         _______ _______ _______ _____ _____    ______ ____
ROOT
ATOM      1  C   UNL     1       9.128  -3.230  24.925  0.00  0.00    +0.107 C 
ENDROOT
BRANCH   1   2
ATOM      2  N   UNL     1       7.976  -2.288  25.099  0.00  0.00    -0.308 N 
ATOM      3  H   UNL     1       7.191  -2.392  24.462  0.00  0.00    +0.149 HD
ATOM      4  C   UNL     1       7.827  -1.430  26.163  0.00  0.00    +0.234 C 
ATOM      5  O   UNL     1       8.623  -1.403  27.100  0.00  0.00    -0.274 OA
BRANCH   4   6
ATOM      6  C   UNL     1       6.577  -0.497  26.137  0.00  0.00    +0.168 C 
BRANCH   6   7
ATOM      7  N   UNL     1       6.898   0.766  25.461  0.00  0.00    -0.298 N 
ATOM      8  H   UNL     1       7.072   1.590  26.034  0.00  0.00    +0.150 HD
ATOM      9  C   UNL     1       6.831   0.976  24.105  0.00  0.00    +0.263 C 
ATOM     10  O   UNL     1       6.549   0.096  23.301  0.00  0.00    -0.269 OA
BRANCH   9  11
ATOM     11  C   UNL     1       7.141   2.365  23.646  0.00  0.00    +0.126 A 
ATOM     12  C   UNL     1       6.451   2.867  22.552  0.00  0.00    +0.033 A 
ATOM     13  C   UNL     1       6.660   4.194  22.205  0.00  0.00    +0.012 A 
ATOM     14  C   UNL     1       7.543   4.967  22.958  0.00  0.00    +0.000 A 
ATOM     15  C   UNL     1       8.252   4.356  24.017  0.00  0.00    +0.072 A 
ATOM     16  C   UNL     1       9.147   5.141  24.734  0.00  0.00    +0.028 A 
ATOM     17  C   UNL     1       9.306   6.506  24.467  0.00  0.00    +0.002 A 
ATOM     18  C   UNL     1       8.575   7.107  23.448  0.00  0.00    +0.001 A 
ATOM     19  C   UNL     1       7.710   6.336  22.679  0.00  0.00    +0.010 A 
ATOM     20  N   UNL     1       8.059   3.069  24.364  0.00  0.00    -0.242 NA
ENDBRANCH   9  11
ENDBRANCH   6   7
BRANCH   6  21
ATOM     21  C   UNL     1       5.912  -0.377  27.514  0.00  0.00    +0.127 C 
BRANCH  21  22
ATOM     22  C   UNL     1       5.536   1.049  27.861  0.00  0.00    +0.213 C 
ATOM     23  N   UNL     1       6.143   1.594  28.948  0.00  0.00    -0.329 N 
ATOM     24  H   UNL     1       5.833   2.513  29.237  0.00  0.00    +0.145 HD
ATOM     25  H   UNL     1       6.618   1.013  29.626  0.00  0.00    +0.145 HD
ATOM     26  O   UNL     1       4.721   1.702  27.212  0.00  0.00    -0.276 OA
ENDBRANCH  21  22
ENDBRANCH   6  21
ENDBRANCH   4   6
ENDBRANCH   1   2
BRANCH   1  27
ATOM     27  C   UNL     1       8.661  -4.711  25.133  0.00  0.00    +0.149 C 
BRANCH  27  28
ATOM     28  O   UNL     1       9.821  -5.555  24.886  0.00  0.00    -0.389 OA
ATOM     29  H   UNL     1      10.567  -4.965  24.687  0.00  0.00    +0.210 HD
ENDBRANCH  27  28
BRANCH  27  30
ATOM     30  C   UNL     1       8.079  -5.166  26.534  0.00  0.00    +0.118 C 
BRANCH  30  32
ATOM     31  C   UNL     1       5.688  -5.326  25.859  0.00  0.00    +0.143 C 
ATOM     32  N   UNL     1       6.801  -5.909  26.708  0.00  0.00    -0.289 NA
ATOM     33  C   UNL     1       6.381  -6.028  28.116  0.00  0.00    +0.089 C 
ATOM     34  C   UNL     1       5.644  -4.827  28.770  0.00  0.00    +0.006 C 
ATOM     35  C   UNL     1       4.649  -4.094  27.863  0.00  0.00    -0.005 C 
ATOM     36  C   UNL     1       3.180  -4.556  27.933  0.00  0.00    +0.004 C 
ATOM     37  C   UNL     1       2.802  -5.751  28.806  0.00  0.00    +0.000 C 
ATOM     38  C   UNL     1       3.815  -6.218  29.840  0.00  0.00    +0.000 C 
ATOM     39  C   UNL     1       4.943  -5.224  30.079  0.00  0.00    +0.005 C 
ATOM     40  C   UNL     1       5.177  -3.986  26.425  0.00  0.00    +0.032 C 
BRANCH  31  43
ATOM     41  N   UNL     1       3.563  -5.791  24.616  0.00  0.00    -0.309 N 
ATOM     42  H   UNL     1       3.846  -4.939  24.151  0.00  0.00    +0.149 HD
ATOM     43  C   UNL     1       4.453  -6.302  25.567  0.00  0.00    +0.231 C 
ATOM     44  O   UNL     1       4.269  -7.360  26.139  0.00  0.00    -0.274 OA
BRANCH  41  46
ATOM     45  C   UNL     1       2.247  -7.821  23.888  0.00  0.00    +0.031 C 
ATOM     46  C   UNL     1       2.222  -6.316  24.218  0.00  0.00    +0.026 C 
ATOM     47  C   UNL     1       1.263  -6.139  25.419  0.00  0.00    +0.031 C 
ATOM     48  C   UNL     1       1.612  -5.573  23.020  0.00  0.00    +0.031 C 
ENDBRANCH  41  46
ENDBRANCH  31  43
ENDBRANCH  30  32
ENDBRANCH  27  30
ENDBRANCH   1  27
BRANCH   1  49
ATOM     49  C   UNL     1       9.740  -2.992  23.523  0.00  0.00    +0.060 C 
BRANCH  49  50
ATOM     50  C   UNL     1       9.846  -1.533  23.106  0.00  0.00    -0.046 A 
ATOM     51  C   UNL     1       9.354  -1.113  21.860  0.00  0.00    +0.004 A 
ATOM     52  C   UNL     1       9.482   0.219  21.451  0.00  0.00    +0.000 A 
ATOM     53  C   UNL     1      10.104   1.147  22.282  0.00  0.00    +0.000 A 
ATOM     54  C   UNL     1      10.592   0.744  23.525  0.00  0.00    +0.000 A 
ATOM     55  C   UNL     1      10.467  -0.589  23.933  0.00  0.00    +0.004 A 
ENDBRANCH  49  50
ENDBRANCH   1  49
TORSDOF 14
ENDMDL
MODEL 4
REMARK VINA RESULT:      -7.0      1.611      2.215
REMARK  Name = 
REMARK  17 active torsions:
REMARK  status: ('A' for Active; 'I' for Inactive)
REMARK    1  A    between atoms: C_1  and  C_2
REMARK    2  A    between atoms: C_2  and  C_3
REMARK    3  A    between atoms: C_2  and  C_4
REMARK    4  A    between atoms: C_2  and  N_5
REMARK    5  A    between atoms: C_6  and  C_8
REMARK    6  A    between atoms: N_20  and  C_21
REMARK    7  A    between atoms: C_21  and  C_22
REMARK    8  A    between atoms: C_22  and  C_24
REMARK    9  A    between atoms: C_22  and  O_54
REMARK   10  A    between atoms: C_24  and  C_26
REMARK   11  A    between atoms: C_24  and  N_33
REMARK   12  A    between atoms: C_26  and  C_27
REMARK   13  A    between atoms: C_34  and  C_36
REMARK   14  A    between atoms: C_36  and  C_37
REMARK   15  A    between atoms: C_36  and  N_41
REMARK   16  A    between atoms: C_37  and  C_38
REMARK   17  A    between atoms: C_42  and  C_44
REMARK                            x       y       z     vdW  Elec       q    Type
REMARK                         _______ _______ _______ _____ _____    ______ ____
ROOT
ATOM      1  C   UNL     1       4.554  -4.194  26.695  0.00  0.00    +0.107 C 
ENDROOT
BRANCH   1   2
ATOM      2  N   UNL     1       5.403  -4.407  25.478  0.00  0.00    -0.308 N 
ATOM      3  H   UNL     1       5.248  -3.785  24.689  0.00  0.00    +0.149 HD
ATOM      4  C   UNL     1       6.489  -5.248  25.425  0.00  0.00    +0.234 C 
ATOM      5  O   UNL     1       6.885  -5.871  26.408  0.00  0.00    -0.274 OA
BRANCH   4   6
ATOM      6  C   UNL     1       7.216  -5.362  24.049  0.00  0.00    +0.168 C 
BRANCH   6   7
ATOM      7  N   UNL     1       7.738  -4.052  23.638  0.00  0.00    -0.298 N 
ATOM      8  H   UNL     1       7.185  -3.494  22.989  0.00  0.00    +0.150 HD
ATOM      9  C   UNL     1       8.992  -3.574  23.931  0.00  0.00    +0.263 C 
ATOM     10  O   UNL     1       9.796  -4.179  24.631  0.00  0.00    -0.269 OA
BRANCH   9  11
ATOM     11  C   UNL     1       9.330  -2.238  23.352  0.00  0.00    +0.126 A 
ATOM     12  C   UNL     1       9.014  -1.996  22.024  0.00  0.00    +0.033 A 
ATOM     13  C   UNL     1       9.224  -0.719  21.527  0.00  0.00    +0.012 A 
ATOM     14  C   UNL     1       9.739   0.267  22.369  0.00  0.00    +0.000 A 
ATOM     15  C   UNL     1      10.094  -0.085  23.692  0.00  0.00    +0.072 A 
ATOM     16  C   UNL     1      10.631   0.908  24.503  0.00  0.00    +0.028 A 
ATOM     17  C   UNL     1      10.765   2.229  24.058  0.00  0.00    +0.002 A 
ATOM     18  C   UNL     1      10.377   2.573  22.768  0.00  0.00    +0.001 A 
ATOM     19  C   UNL     1       9.885   1.590  21.916  0.00  0.00    +0.010 A 
ATOM     20  N   UNL     1       9.895  -1.322  24.186  0.00  0.00    -0.242 NA
ENDBRANCH   9  11
ENDBRANCH   6   7
BRANCH   6  21
ATOM     21  C   UNL     1       6.374  -6.111  23.007  0.00  0.00    +0.127 C 
BRANCH  21  22
ATOM     22  C   UNL     1       5.808  -5.194  21.942  0.00  0.00    +0.213 C 
ATOM     23  N   UNL     1       6.150  -5.469  20.656  0.00  0.00    -0.329 N 
ATOM     24  H   UNL     1       5.848  -4.811  19.948  0.00  0.00    +0.145 HD
ATOM     25  H   UNL     1       6.926  -6.082  20.442  0.00  0.00    +0.145 HD
ATOM     26  O   UNL     1       5.079  -4.239  22.200  0.00  0.00    -0.276 OA
ENDBRANCH  21  22
ENDBRANCH   6  21
ENDBRANCH   4   6
ENDBRANCH   1   2
BRANCH   1  27
ATOM     27  C   UNL     1       4.344  -2.664  26.956  0.00  0.00    +0.149 C 
BRANCH  27  28
ATOM     28  O   UNL     1       4.523  -2.454  28.385  0.00  0.00    -0.389 OA
ATOM     29  H   UNL     1       4.248  -1.542  28.577  0.00  0.00    +0.210 HD
ENDBRANCH  27  28
BRANCH  27  30
ATOM     30  C   UNL     1       5.277  -1.605  26.238  0.00  0.00    +0.118 C 
BRANCH  30  32
ATOM     31  C   UNL     1       6.014   0.643  25.462  0.00  0.00    +0.143 C 
ATOM     32  N   UNL     1       4.841  -0.238  25.840  0.00  0.00    -0.289 NA
ATOM     33  C   UNL     1       3.991   0.421  26.849  0.00  0.00    +0.089 C 
ATOM     34  C   UNL     1       4.682   1.112  28.056  0.00  0.00    +0.006 C 
ATOM     35  C   UNL     1       5.986   1.852  27.732  0.00  0.00    -0.005 C 
ATOM     36  C   UNL     1       5.867   3.355  27.413  0.00  0.00    +0.004 C 
ATOM     37  C   UNL     1       4.488   4.008  27.342  0.00  0.00    +0.000 C 
ATOM     38  C   UNL     1       3.314   3.242  27.931  0.00  0.00    +0.000 C 
ATOM     39  C   UNL     1       3.729   2.063  28.799  0.00  0.00    +0.005 C 
ATOM     40  C   UNL     1       6.823   1.083  26.700  0.00  0.00    +0.032 C 
BRANCH  31  43
ATOM     41  N   UNL     1       6.771   2.738  24.314  0.00  0.00    -0.309 N 
ATOM     42  H   UNL     1       7.665   2.390  24.635  0.00  0.00    +0.149 HD
ATOM     43  C   UNL     1       5.665   1.916  24.557  0.00  0.00    +0.231 C 
ATOM     44  O   UNL     1       4.548   2.180  24.154  0.00  0.00    -0.274 OA
BRANCH  41  46
ATOM     45  C   UNL     1       8.029   4.919  24.113  0.00  0.00    +0.031 C 
ATOM     46  C   UNL     1       6.808   4.088  23.676  0.00  0.00    +0.026 C 
ATOM     47  C   UNL     1       6.928   3.890  22.146  0.00  0.00    +0.031 C 
ATOM     48  C   UNL     1       5.544   4.918  23.942  0.00  0.00    +0.031 C 
ENDBRANCH  41  46
ENDBRANCH  31  43
ENDBRANCH  30  32
ENDBRANCH  27  30
ENDBRANCH   1  27
BRANCH   1  49
ATOM     49  C   UNL     1       3.219  -4.951  26.491  0.00  0.00    +0.060 C 
BRANCH  49  50
ATOM     50  C   UNL     1       2.852  -5.921  27.603  0.00  0.00    -0.046 A 
ATOM     51  C   UNL     1       3.771  -6.215  28.621  0.00  0.00    +0.004 A 
ATOM     52  C   UNL     1       3.456  -7.136  29.627  0.00  0.00    +0.000 A 
ATOM     53  C   UNL     1       2.220  -7.776  29.626  0.00  0.00    +0.000 A 
ATOM     54  C   UNL     1       1.294  -7.488  28.622  0.00  0.00    +0.000 A 
ATOM     55  C   UNL     1       1.610  -6.569  27.614  0.00  0.00    +0.004 A 
ENDBRANCH  49  50
ENDBRANCH   1  49
TORSDOF 14
ENDMDL
MODEL 5
REMARK VINA RESULT:      -6.7      2.483      6.411
REMARK  Name = 
REMARK  17 active torsions:
REMARK  status: ('A' for Active; 'I' for Inactive)
REMARK    1  A    between atoms: C_1  and  C_2
REMARK    2  A    between atoms: C_2  and  C_3
REMARK    3  A    between atoms: C_2  and  C_4
REMARK    4  A    between atoms: C_2  and  N_5
REMARK    5  A    between atoms: C_6  and  C_8
REMARK    6  A    between atoms: N_20  and  C_21
REMARK    7  A    between atoms: C_21  and  C_22
REMARK    8  A    between atoms: C_22  and  C_24
REMARK    9  A    between atoms: C_22  and  O_54
REMARK   10  A    between atoms: C_24  and  C_26
REMARK   11  A    between atoms: C_24  and  N_33
REMARK   12  A    between atoms: C_26  and  C_27
REMARK   13  A    between atoms: C_34  and  C_36
REMARK   14  A    between atoms: C_36  and  C_37
REMARK   15  A    between atoms: C_36  and  N_41
REMARK   16  A    between atoms: C_37  and  C_38
REMARK   17  A    between atoms: C_42  and  C_44
REMARK                            x       y       z     vdW  Elec       q    Type
REMARK                         _______ _______ _______ _____ _____    ______ ____
ROOT
ATOM      1  C   UNL     1       8.416  -2.752  23.584  0.00  0.00    +0.107 C 
ENDROOT
BRANCH   1   2
ATOM      2  N   UNL     1       7.721  -2.014  24.688  0.00  0.00    -0.308 N 
ATOM      3  H   UNL     1       8.306  -1.600  25.409  0.00  0.00    +0.149 HD
ATOM      4  C   UNL     1       6.383  -1.701  24.692  0.00  0.00    +0.234 C 
ATOM      5  O   UNL     1       5.644  -1.968  23.745  0.00  0.00    -0.274 OA
BRANCH   4   6
ATOM      6  C   UNL     1       5.843  -0.966  25.957  0.00  0.00    +0.168 C 
BRANCH   6   7
ATOM      7  N   UNL     1       5.610   0.454  25.661  0.00  0.00    -0.298 N 
ATOM      8  H   UNL     1       6.388   1.006  25.303  0.00  0.00    +0.150 HD
ATOM      9  C   UNL     1       4.468   1.149  25.975  0.00  0.00    +0.263 C 
ATOM     10  O   UNL     1       3.484   0.631  26.489  0.00  0.00    -0.269 OA
BRANCH   9  11
ATOM     11  C   UNL     1       4.479   2.606  25.636  0.00  0.00    +0.126 A 
ATOM     12  C   UNL     1       4.998   3.495  26.566  0.00  0.00    +0.033 A 
ATOM     13  C   UNL     1       5.112   4.827  26.198  0.00  0.00    +0.012 A 
ATOM     14  C   UNL     1       4.708   5.222  24.923  0.00  0.00    +0.000 A 
ATOM     15  C   UNL     1       4.131   4.260  24.062  0.00  0.00    +0.072 A 
ATOM     16  C   UNL     1       3.711   4.685  22.807  0.00  0.00    +0.028 A 
ATOM     17  C   UNL     1       3.901   6.002  22.374  0.00  0.00    +0.002 A 
ATOM     18  C   UNL     1       4.505   6.931  23.214  0.00  0.00    +0.001 A 
ATOM     19  C   UNL     1       4.889   6.549  24.494  0.00  0.00    +0.010 A 
ATOM     20  N   UNL     1       4.014   2.964  24.408  0.00  0.00    -0.242 NA
ENDBRANCH   9  11
ENDBRANCH   6   7
BRANCH   6  21
ATOM     21  C   UNL     1       6.680  -1.267  27.207  0.00  0.00    +0.127 C 
BRANCH  21  22
ATOM     22  C   UNL     1       7.619  -0.135  27.570  0.00  0.00    +0.213 C 
ATOM     23  N   UNL     1       8.950  -0.411  27.534  0.00  0.00    -0.329 N 
ATOM     24  H   UNL     1       9.579   0.313  27.859  0.00  0.00    +0.145 HD
ATOM     25  H   UNL     1       9.285  -1.365  27.514  0.00  0.00    +0.145 HD
ATOM     26  O   UNL     1       7.225   0.984  27.891  0.00  0.00    -0.276 OA
ENDBRANCH  21  22
ENDBRANCH   6  21
ENDBRANCH   4   6
ENDBRANCH   1   2
BRANCH   1  27
ATOM     27  C   UNL     1       9.831  -2.134  23.317  0.00  0.00    +0.149 C 
BRANCH  27  28
ATOM     28  O   UNL     1       9.972  -2.017  21.873  0.00  0.00    -0.389 OA
ATOM     29  H   UNL     1       9.206  -2.462  21.474  0.00  0.00    +0.210 HD
ENDBRANCH  27  28
BRANCH  27  30
ATOM     30  C   UNL     1      10.196  -0.711  23.909  0.00  0.00    +0.118 C 
BRANCH  30  32
ATOM     31  C   UNL     1      10.469   1.762  23.996  0.00  0.00    +0.143 C 
ATOM     32  N   UNL     1      10.114   0.561  23.141  0.00  0.00    -0.289 NA
ATOM     33  C   UNL     1       8.815   0.758  22.472  0.00  0.00    +0.089 C 
ATOM     34  C   UNL     1       7.632   1.316  23.309  0.00  0.00    +0.006 C 
ATOM     35  C   UNL     1       8.001   2.402  24.327  0.00  0.00    -0.005 C 
ATOM     36  C   UNL     1       7.872   3.863  23.856  0.00  0.00    +0.004 C 
ATOM     37  C   UNL     1       7.485   4.162  22.408  0.00  0.00    +0.000 C 
ATOM     38  C   UNL     1       6.900   3.024  21.586  0.00  0.00    +0.000 C 
ATOM     39  C   UNL     1       6.484   1.821  22.420  0.00  0.00    +0.005 C 
ATOM     40  C   UNL     1       9.349   2.103  24.999  0.00  0.00    +0.032 C 
BRANCH  31  43
ATOM     41  N   UNL     1      11.318   4.119  24.039  0.00  0.00    -0.309 N 
ATOM     42  H   UNL     1      11.395   3.895  25.022  0.00  0.00    +0.149 HD
ATOM     43  C   UNL     1      10.908   3.078  23.198  0.00  0.00    +0.231 C 
ATOM     44  O   UNL     1      10.852   3.193  21.988  0.00  0.00    -0.274 OA
BRANCH  41  46
ATOM     45  C   UNL     1      12.580   5.658  22.484  0.00  0.00    +0.031 C 
ATOM     46  C   UNL     1      11.623   5.538  23.685  0.00  0.00    +0.026 C 
ATOM     47  C   UNL     1      10.299   6.222  23.270  0.00  0.00    +0.031 C 
ATOM     48  C   UNL     1      12.217   6.339  24.853  0.00  0.00    +0.031 C 
ENDBRANCH  41  46
ENDBRANCH  31  43
ENDBRANCH  30  32
ENDBRANCH  27  30
ENDBRANCH   1  27
BRANCH   1  49
ATOM     49  C   UNL     1       8.486  -4.249  23.971  0.00  0.00    +0.060 C 
BRANCH  49  50
ATOM     50  C   UNL     1       7.170  -5.004  23.865  0.00  0.00    -0.046 A 
ATOM     51  C   UNL     1       6.646  -5.344  22.608  0.00  0.00    +0.004 A 
ATOM     52  C   UNL     1       5.416  -6.004  22.499  0.00  0.00    +0.000 A 
ATOM     53  C   UNL     1       4.696  -6.331  23.644  0.00  0.00    +0.000 A 
ATOM     54  C   UNL     1       5.208  -6.005  24.900  0.00  0.00    +0.000 A 
ATOM     55  C   UNL     1       6.436  -5.342  25.010  0.00  0.00    +0.004 A 
ENDBRANCH  49  50
ENDBRANCH   1  49
TORSDOF 14
ENDMDL
MODEL 6
REMARK VINA RESULT:      -6.7      3.146      8.782
REMARK  Name = 
REMARK  17 active torsions:
REMARK  status: ('A' for Active; 'I' for Inactive)
REMARK    1  A    between atoms: C_1  and  C_2
REMARK    2  A    between atoms: C_2  and  C_3
REMARK    3  A    between atoms: C_2  and  C_4
REMARK    4  A    between atoms: C_2  and  N_5
REMARK    5  A    between atoms: C_6  and  C_8
REMARK    6  A    between atoms: N_20  and  C_21
REMARK    7  A    between atoms: C_21  and  C_22
REMARK    8  A    between atoms: C_22  and  C_24
REMARK    9  A    between atoms: C_22  and  O_54
REMARK   10  A    between atoms: C_24  and  C_26
REMARK   11  A    between atoms: C_24  and  N_33
REMARK   12  A    between atoms: C_26  and  C_27
REMARK   13  A    between atoms: C_34  and  C_36
REMARK   14  A    between atoms: C_36  and  C_37
REMARK   15  A    between atoms: C_36  and  N_41
REMARK   16  A    between atoms: C_37  and  C_38
REMARK   17  A    between atoms: C_42  and  C_44
REMARK                            x       y       z     vdW  Elec       q    Type
REMARK                         _______ _______ _______ _____ _____    ______ ____
ROOT
ATOM      1  C   UNL     1      10.132   0.627  23.348  0.00  0.00    +0.107 C 
ENDROOT
BRANCH   1   2
ATOM      2  N   UNL     1       9.960   1.967  23.997  0.00  0.00    -0.308 N 
ATOM      3  H   UNL     1       9.493   1.990  24.899  0.00  0.00    +0.149 HD
ATOM      4  C   UNL     1      10.549   3.127  23.553  0.00  0.00    +0.234 C 
ATOM      5  O   UNL     1      11.318   3.147  22.594  0.00  0.00    -0.274 OA
BRANCH   4   6
ATOM      6  C   UNL     1      10.210   4.428  24.344  0.00  0.00    +0.168 C 
BRANCH   6   7
ATOM      7  N   UNL     1       8.781   4.463  24.680  0.00  0.00    -0.298 N 
ATOM      8  H   UNL     1       8.126   3.995  24.054  0.00  0.00    +0.150 HD
ATOM      9  C   UNL     1       8.224   5.210  25.689  0.00  0.00    +0.263 C 
ATOM     10  O   UNL     1       8.884   5.889  26.466  0.00  0.00    -0.269 OA
BRANCH   9  11
ATOM     11  C   UNL     1       6.735   5.139  25.806  0.00  0.00    +0.126 A 
ATOM     12  C   UNL     1       5.974   6.052  25.092  0.00  0.00    +0.033 A 
ATOM     13  C   UNL     1       4.594   5.906  25.113  0.00  0.00    +0.012 A 
ATOM     14  C   UNL     1       4.028   4.860  25.841  0.00  0.00    +0.000 A 
ATOM     15  C   UNL     1       4.876   4.015  26.591  0.00  0.00    +0.072 A 
ATOM     16  C   UNL     1       4.285   2.997  27.331  0.00  0.00    +0.028 A 
ATOM     17  C   UNL     1       2.904   2.767  27.295  0.00  0.00    +0.002 A 
ATOM     18  C   UNL     1       2.083   3.581  26.522  0.00  0.00    +0.001 A 
ATOM     19  C   UNL     1       2.639   4.639  25.812  0.00  0.00    +0.010 A 
ATOM     20  N   UNL     1       6.216   4.146  26.580  0.00  0.00    -0.242 NA
ENDBRANCH   9  11
ENDBRANCH   6   7
BRANCH   6  21
ATOM     21  C   UNL     1      10.775   5.684  23.667  0.00  0.00    +0.127 C 
BRANCH  21  22
ATOM     22  C   UNL     1      12.188   6.003  24.110  0.00  0.00    +0.213 C 
ATOM     23  N   UNL     1      13.193   5.565  23.306  0.00  0.00    -0.329 N 
ATOM     24  H   UNL     1      14.140   5.698  23.638  0.00  0.00    +0.145 HD
ATOM     25  H   UNL     1      13.026   4.862  22.598  0.00  0.00    +0.145 HD
ATOM     26  O   UNL     1      12.443   6.618  25.143  0.00  0.00    -0.276 OA
ENDBRANCH  21  22
ENDBRANCH   6  21
ENDBRANCH   4   6
ENDBRANCH   1   2
BRANCH   1  27
ATOM     27  C   UNL     1      10.193  -0.502  24.431  0.00  0.00    +0.149 C 
BRANCH  27  28
ATOM     28  O   UNL     1       9.491   0.000  25.602  0.00  0.00    -0.389 OA
ATOM     29  H   UNL     1      10.039   0.708  25.982  0.00  0.00    +0.210 HD
ENDBRANCH  27  28
BRANCH  27  30
ATOM     30  C   UNL     1       9.570  -1.926  24.124  0.00  0.00    +0.118 C 
BRANCH  30  32
ATOM     31  C   UNL     1       7.488  -2.553  25.336  0.00  0.00    +0.143 C 
ATOM     32  N   UNL     1       8.110  -2.192  24.002  0.00  0.00    -0.289 NA
ATOM     33  C   UNL     1       7.783  -3.202  22.979  0.00  0.00    +0.089 C 
ATOM     34  C   UNL     1       7.914  -4.702  23.356  0.00  0.00    +0.006 C 
ATOM     35  C   UNL     1       7.471  -5.064  24.779  0.00  0.00    -0.005 C 
ATOM     36  C   UNL     1       6.012  -5.528  24.951  0.00  0.00    +0.004 C 
ATOM     37  C   UNL     1       5.067  -5.522  23.750  0.00  0.00    +0.000 C 
ATOM     38  C   UNL     1       5.686  -5.396  22.367  0.00  0.00    +0.000 C 
ATOM     39  C   UNL     1       7.192  -5.615  22.351  0.00  0.00    +0.005 C 
ATOM     40  C   UNL     1       7.878  -3.976  25.784  0.00  0.00    +0.032 C 
BRANCH  31  43
ATOM     41  N   UNL     1       5.408  -2.551  26.734  0.00  0.00    -0.309 N 
ATOM     42  H   UNL     1       6.099  -2.673  27.462  0.00  0.00    +0.149 HD
ATOM     43  C   UNL     1       5.902  -2.363  25.438  0.00  0.00    +0.231 C 
ATOM     44  O   UNL     1       5.181  -2.127  24.486  0.00  0.00    -0.274 OA
BRANCH  41  46
ATOM     45  C   UNL     1       3.165  -3.656  26.376  0.00  0.00    +0.031 C 
ATOM     46  C   UNL     1       3.987  -2.635  27.186  0.00  0.00    +0.026 C 
ATOM     47  C   UNL     1       3.981  -3.124  28.655  0.00  0.00    +0.031 C 
ATOM     48  C   UNL     1       3.255  -1.286  27.139  0.00  0.00    +0.031 C 
ENDBRANCH  41  46
ENDBRANCH  31  43
ENDBRANCH  30  32
ENDBRANCH  27  30
ENDBRANCH   1  27
BRANCH   1  49
ATOM     49  C   UNL     1       8.972   0.425  22.343  0.00  0.00    +0.060 C 
BRANCH  49  50
ATOM     50  C   UNL     1       7.741   1.282  22.597  0.00  0.00    -0.046 A 
ATOM     51  C   UNL     1       7.531   2.458  21.861  0.00  0.00    +0.004 A 
ATOM     52  C   UNL     1       6.422   3.274  22.116  0.00  0.00    +0.000 A 
ATOM     53  C   UNL     1       5.511   2.924  23.108  0.00  0.00    +0.000 A 
ATOM     54  C   UNL     1       5.705   1.753  23.842  0.00  0.00    +0.000 A 
ATOM     55  C   UNL     1       6.816   0.939  23.591  0.00  0.00    +0.004 A 
ENDBRANCH  49  50
ENDBRANCH   1  49
TORSDOF 14
ENDMDL
MODEL 7
REMARK VINA RESULT:      -6.7      2.508      7.093
REMARK  Name = 
REMARK  17 active torsions:
REMARK  status: ('A' for Active; 'I' for Inactive)
REMARK    1  A    between atoms: C_1  and  C_2
REMARK    2  A    between atoms: C_2  and  C_3
REMARK    3  A    between atoms: C_2  and  C_4
REMARK    4  A    between atoms: C_2  and  N_5
REMARK    5  A    between atoms: C_6  and  C_8
REMARK    6  A    between atoms: N_20  and  C_21
REMARK    7  A    between atoms: C_21  and  C_22
REMARK    8  A    between atoms: C_22  and  C_24
REMARK    9  A    between atoms: C_22  and  O_54
REMARK   10  A    between atoms: C_24  and  C_26
REMARK   11  A    between atoms: C_24  and  N_33
REMARK   12  A    between atoms: C_26  and  C_27
REMARK   13  A    between atoms: C_34  and  C_36
REMARK   14  A    between atoms: C_36  and  C_37
REMARK   15  A    between atoms: C_36  and  N_41
REMARK   16  A    between atoms: C_37  and  C_38
REMARK   17  A    between atoms: C_42  and  C_44
REMARK                            x       y       z     vdW  Elec       q    Type
REMARK                         _______ _______ _______ _____ _____    ______ ____
ROOT
ATOM      1  C   UNL     1       8.243  -3.766  25.873  0.00  0.00    +0.107 C 
ENDROOT
BRANCH   1   2
ATOM      2  N   UNL     1       7.287  -2.625  26.043  0.00  0.00    -0.308 N 
ATOM      3  H   UNL     1       6.299  -2.823  25.908  0.00  0.00    +0.149 HD
ATOM      4  C   UNL     1       7.629  -1.392  26.545  0.00  0.00    +0.234 C 
ATOM      5  O   UNL     1       8.763  -1.139  26.947  0.00  0.00    -0.274 OA
BRANCH   4   6
ATOM      6  C   UNL     1       6.494  -0.323  26.601  0.00  0.00    +0.168 C 
BRANCH   6   7
ATOM      7  N   UNL     1       6.866   0.857  25.809  0.00  0.00    -0.298 N 
ATOM      8  H   UNL     1       7.090   1.719  26.304  0.00  0.00    +0.150 HD
ATOM      9  C   UNL     1       6.786   0.948  24.441  0.00  0.00    +0.263 C 
ATOM     10  O   UNL     1       6.448   0.014  23.723  0.00  0.00    -0.269 OA
BRANCH   9  11
ATOM     11  C   UNL     1       7.157   2.272  23.854  0.00  0.00    +0.126 A 
ATOM     12  C   UNL     1       6.584   2.642  22.647  0.00  0.00    +0.033 A 
ATOM     13  C   UNL     1       6.842   3.918  22.168  0.00  0.00    +0.012 A 
ATOM     14  C   UNL     1       7.658   4.774  22.907  0.00  0.00    +0.000 A 
ATOM     15  C   UNL     1       8.252   4.292  24.096  0.00  0.00    +0.072 A 
ATOM     16  C   UNL     1       9.083   5.155  24.800  0.00  0.00    +0.028 A 
ATOM     17  C   UNL     1       9.285   6.479  24.391  0.00  0.00    +0.002 A 
ATOM     18  C   UNL     1       8.665   6.955  23.241  0.00  0.00    +0.001 A 
ATOM     19  C   UNL     1       7.869   6.100  22.487  0.00  0.00    +0.010 A 
ATOM     20  N   UNL     1       8.010   3.055  24.571  0.00  0.00    -0.242 NA
ENDBRANCH   9  11
ENDBRANCH   6   7
BRANCH   6  21
ATOM     21  C   UNL     1       6.020  -0.052  28.035  0.00  0.00    +0.127 C 
BRANCH  21  22
ATOM     22  C   UNL     1       6.563   1.246  28.596  0.00  0.00    +0.213 C 
ATOM     23  N   UNL     1       7.734   1.173  29.282  0.00  0.00    -0.329 N 
ATOM     24  H   UNL     1       8.058   2.019  29.733  0.00  0.00    +0.145 HD
ATOM     25  H   UNL     1       8.090   0.286  29.612  0.00  0.00    +0.145 HD
ATOM     26  O   UNL     1       5.990   2.325  28.460  0.00  0.00    -0.276 OA
ENDBRANCH  21  22
ENDBRANCH   6  21
ENDBRANCH   4   6
ENDBRANCH   1   2
BRANCH   1  27
ATOM     27  C   UNL     1       7.532  -5.127  26.181  0.00  0.00    +0.149 C 
BRANCH  27  28
ATOM     28  O   UNL     1       8.581  -6.126  26.325  0.00  0.00    -0.389 OA
ATOM     29  H   UNL     1       9.383  -5.758  25.918  0.00  0.00    +0.210 HD
ENDBRANCH  27  28
BRANCH  27  30
ATOM     30  C   UNL     1       6.615  -5.267  27.465  0.00  0.00    +0.118 C 
BRANCH  30  32
ATOM     31  C   UNL     1       4.715  -6.218  26.166  0.00  0.00    +0.143 C 
ATOM     32  N   UNL     1       5.143  -5.485  27.422  0.00  0.00    -0.289 NA
ATOM     33  C   UNL     1       4.362  -4.247  27.600  0.00  0.00    +0.089 C 
ATOM     34  C   UNL     1       4.151  -3.326  26.368  0.00  0.00    +0.006 C 
ATOM     35  C   UNL     1       3.909  -4.052  25.038  0.00  0.00    -0.005 C 
ATOM     36  C   UNL     1       2.441  -4.298  24.643  0.00  0.00    +0.004 C 
ATOM     37  C   UNL     1       1.320  -3.906  25.604  0.00  0.00    +0.000 C 
ATOM     38  C   UNL     1       1.670  -2.973  26.752  0.00  0.00    +0.000 C 
ATOM     39  C   UNL     1       3.027  -2.302  26.599  0.00  0.00    +0.005 C 
ATOM     40  C   UNL     1       4.783  -5.309  24.922  0.00  0.00    +0.032 C 
BRANCH  31  43
ATOM     41  N   UNL     1       2.963  -7.624  25.056  0.00  0.00    -0.309 N 
ATOM     42  H   UNL     1       3.687  -7.671  24.352  0.00  0.00    +0.149 HD
ATOM     43  C   UNL     1       3.291  -6.945  26.235  0.00  0.00    +0.231 C 
ATOM     44  O   UNL     1       2.540  -6.884  27.191  0.00  0.00    -0.274 OA
BRANCH  41  46
ATOM     45  C   UNL     1       1.497  -9.669  25.276  0.00  0.00    +0.031 C 
ATOM     46  C   UNL     1       1.665  -8.259  24.677  0.00  0.00    +0.026 C 
ATOM     47  C   UNL     1       0.521  -7.391  25.253  0.00  0.00    +0.031 C 
ATOM     48  C   UNL     1       1.459  -8.356  23.158  0.00  0.00    +0.031 C 
ENDBRANCH  41  46
ENDBRANCH  31  43
ENDBRANCH  30  32
ENDBRANCH  27  30
ENDBRANCH   1  27
BRANCH   1  49
ATOM     49  C   UNL     1       8.817  -3.707  24.437  0.00  0.00    +0.060 C 
BRANCH  49  50
ATOM     50  C   UNL     1       7.869  -4.176  23.344  0.00  0.00    -0.046 A 
ATOM     51  C   UNL     1       6.973  -3.277  22.746  0.00  0.00    +0.004 A 
ATOM     52  C   UNL     1       6.070  -3.708  21.768  0.00  0.00    +0.000 A 
ATOM     53  C   UNL     1       6.052  -5.044  21.375  0.00  0.00    +0.000 A 
ATOM     54  C   UNL     1       6.942  -5.947  21.957  0.00  0.00    +0.000 A 
ATOM     55  C   UNL     1       7.843  -5.517  22.938  0.00  0.00    +0.004 A 
ENDBRANCH  49  50
ENDBRANCH   1  49
TORSDOF 14
ENDMDL
MODEL 8
REMARK VINA RESULT:      -6.6      2.363      6.250
REMARK  Name = 
REMARK  17 active torsions:
REMARK  status: ('A' for Active; 'I' for Inactive)
REMARK    1  A    between atoms: C_1  and  C_2
REMARK    2  A    between atoms: C_2  and  C_3
REMARK    3  A    between atoms: C_2  and  C_4
REMARK    4  A    between atoms: C_2  and  N_5
REMARK    5  A    between atoms: C_6  and  C_8
REMARK    6  A    between atoms: N_20  and  C_21
REMARK    7  A    between atoms: C_21  and  C_22
REMARK    8  A    between atoms: C_22  and  C_24
REMARK    9  A    between atoms: C_22  and  O_54
REMARK   10  A    between atoms: C_24  and  C_26
REMARK   11  A    between atoms: C_24  and  N_33
REMARK   12  A    between atoms: C_26  and  C_27
REMARK   13  A    between atoms: C_34  and  C_36
REMARK   14  A    between atoms: C_36  and  C_37
REMARK   15  A    between atoms: C_36  and  N_41
REMARK   16  A    between atoms: C_37  and  C_38
REMARK   17  A    between atoms: C_42  and  C_44
REMARK                            x       y       z     vdW  Elec       q    Type
REMARK                         _______ _______ _______ _____ _____    ______ ____
ROOT
ATOM      1  C   UNL     1       5.128  -4.693  22.954  0.00  0.00    +0.107 C 
ENDROOT
BRANCH   1   2
ATOM      2  N   UNL     1       3.961  -4.647  23.894  0.00  0.00    -0.308 N 
ATOM      3  H   UNL     1       4.011  -3.984  24.663  0.00  0.00    +0.149 HD
ATOM      4  C   UNL     1       2.767  -5.294  23.684  0.00  0.00    +0.234 C 
ATOM      5  O   UNL     1       2.542  -5.939  22.662  0.00  0.00    -0.274 OA
BRANCH   4   6
ATOM      6  C   UNL     1       1.692  -5.155  24.806  0.00  0.00    +0.168 C 
BRANCH   6   7
ATOM      7  N   UNL     1       2.181  -4.274  25.874  0.00  0.00    -0.298 N 
ATOM      8  H   UNL     1       2.807  -4.666  26.576  0.00  0.00    +0.150 HD
ATOM      9  C   UNL     1       1.740  -2.993  26.105  0.00  0.00    +0.263 C 
ATOM     10  O   UNL     1       0.923  -2.424  25.392  0.00  0.00    -0.269 OA
BRANCH   9  11
ATOM     11  C   UNL     1       2.334  -2.306  27.293  0.00  0.00    +0.126 A 
ATOM     12  C   UNL     1       3.239  -3.006  28.076  0.00  0.00    +0.033 A 
ATOM     13  C   UNL     1       3.873  -2.325  29.105  0.00  0.00    +0.012 A 
ATOM     14  C   UNL     1       3.583  -0.977  29.313  0.00  0.00    +0.000 A 
ATOM     15  C   UNL     1       2.600  -0.359  28.507  0.00  0.00    +0.072 A 
ATOM     16  C   UNL     1       2.309   0.978  28.753  0.00  0.00    +0.028 A 
ATOM     17  C   UNL     1       3.002   1.716  29.721  0.00  0.00    +0.002 A 
ATOM     18  C   UNL     1       3.994   1.108  30.482  0.00  0.00    +0.001 A 
ATOM     19  C   UNL     1       4.271  -0.242  30.295  0.00  0.00    +0.010 A 
ATOM     20  N   UNL     1       1.977  -1.009  27.506  0.00  0.00    -0.242 NA
ENDBRANCH   9  11
ENDBRANCH   6   7
BRANCH   6  21
ATOM     21  C   UNL     1       1.139  -6.515  25.252  0.00  0.00    +0.127 C 
BRANCH  21  22
ATOM     22  C   UNL     1       2.187  -7.386  25.914  0.00  0.00    +0.213 C 
ATOM     23  N   UNL     1       2.307  -8.657  25.448  0.00  0.00    -0.329 N 
ATOM     24  H   UNL     1       2.943  -9.271  25.942  0.00  0.00    +0.145 HD
ATOM     25  H   UNL     1       1.583  -9.074  24.877  0.00  0.00    +0.145 HD
ATOM     26  O   UNL     1       2.902  -6.991  26.832  0.00  0.00    -0.276 OA
ENDBRANCH  21  22
ENDBRANCH   6  21
ENDBRANCH   4   6
ENDBRANCH   1   2
BRANCH   1  27
ATOM     27  C   UNL     1       5.800  -3.282  22.845  0.00  0.00    +0.149 C 
BRANCH  27  28
ATOM     28  O   UNL     1       5.361  -2.705  21.584  0.00  0.00    -0.389 OA
ATOM     29  H   UNL     1       5.961  -3.034  20.894  0.00  0.00    +0.210 HD
ENDBRANCH  27  28
BRANCH  27  30
ATOM     30  C   UNL     1       5.517  -2.185  23.951  0.00  0.00    +0.118 C 
BRANCH  30  32
ATOM     31  C   UNL     1       7.442  -1.313  25.268  0.00  0.00    +0.143 C 
ATOM     32  N   UNL     1       6.397  -1.013  24.212  0.00  0.00    -0.289 NA
ATOM     33  C   UNL     1       5.652   0.216  24.543  0.00  0.00    +0.089 C 
ATOM     34  C   UNL     1       5.154   0.404  26.001  0.00  0.00    +0.006 C 
ATOM     35  C   UNL     1       6.118  -0.075  27.093  0.00  0.00    -0.005 C 
ATOM     36  C   UNL     1       7.080   0.978  27.677  0.00  0.00    +0.004 C 
ATOM     37  C   UNL     1       7.099   2.392  27.098  0.00  0.00    +0.000 C 
ATOM     38  C   UNL     1       5.933   2.807  26.214  0.00  0.00    +0.000 C 
ATOM     39  C   UNL     1       4.745   1.859  26.287  0.00  0.00    +0.005 C 
ATOM     40  C   UNL     1       6.827  -1.374  26.681  0.00  0.00    +0.032 C 
BRANCH  31  43
ATOM     41  N   UNL     1       8.760   0.518  24.177  0.00  0.00    -0.309 N 
ATOM     42  H   UNL     1       7.942   0.523  23.583  0.00  0.00    +0.149 HD
ATOM     43  C   UNL     1       8.723  -0.355  25.271  0.00  0.00    +0.231 C 
ATOM     44  O   UNL     1       9.608  -0.400  26.106  0.00  0.00    -0.274 OA
BRANCH  41  46
ATOM     45  C   UNL     1      11.241   0.979  24.282  0.00  0.00    +0.031 C 
ATOM     46  C   UNL     1       9.867   1.421  23.741  0.00  0.00    +0.026 C 
ATOM     47  C   UNL     1       9.955   1.360  22.198  0.00  0.00    +0.031 C 
ATOM     48  C   UNL     1       9.645   2.887  24.140  0.00  0.00    +0.031 C 
ENDBRANCH  41  46
ENDBRANCH  31  43
ENDBRANCH  30  32
ENDBRANCH  27  30
ENDBRANCH   1  27
BRANCH   1  49
ATOM     49  C   UNL     1       6.108  -5.782  23.453  0.00  0.00    +0.060 C 
BRANCH  49  50
ATOM     50  C   UNL     1       7.065  -5.335  24.548  0.00  0.00    -0.046 A 
ATOM     51  C   UNL     1       8.382  -4.967  24.233  0.00  0.00    +0.004 A 
ATOM     52  C   UNL     1       9.281  -4.591  25.238  0.00  0.00    +0.000 A 
ATOM     53  C   UNL     1       8.875  -4.580  26.569  0.00  0.00    +0.000 A 
ATOM     54  C   UNL     1       7.566  -4.937  26.895  0.00  0.00    +0.000 A 
ATOM     55  C   UNL     1       6.668  -5.316  25.891  0.00  0.00    +0.004 A 
ENDBRANCH  49  50
ENDBRANCH   1  49
TORSDOF 14
ENDMDL
MODEL 9
REMARK VINA RESULT:      -6.6      2.129      6.817
REMARK  Name = 
REMARK  17 active torsions:
REMARK  status: ('A' for Active; 'I' for Inactive)
REMARK    1  A    between atoms: C_1  and  C_2
REMARK    2  A    between atoms: C_2  and  C_3
REMARK    3  A    between atoms: C_2  and  C_4
REMARK    4  A    between atoms: C_2  and  N_5
REMARK    5  A    between atoms: C_6  and  C_8
REMARK    6  A    between atoms: N_20  and  C_21
REMARK    7  A    between atoms: C_21  and  C_22
REMARK    8  A    between atoms: C_22  and  C_24
REMARK    9  A    between atoms: C_22  and  O_54
REMARK   10  A    between atoms: C_24  and  C_26
REMARK   11  A    between atoms: C_24  and  N_33
REMARK   12  A    between atoms: C_26  and  C_27
REMARK   13  A    between atoms: C_34  and  C_36
REMARK   14  A    between atoms: C_36  and  C_37
REMARK   15  A    between atoms: C_36  and  N_41
REMARK   16  A    between atoms: C_37  and  C_38
REMARK   17  A    between atoms: C_42  and  C_44
REMARK                            x       y       z     vdW  Elec       q    Type
REMARK                         _______ _______ _______ _____ _____    ______ ____
ROOT
ATOM      1  C   UNL     1       8.674  -0.302  24.230  0.00  0.00    +0.107 C 
ENDROOT
BRANCH   1   2
ATOM      2  N   UNL     1       7.594  -0.768  25.158  0.00  0.00    -0.308 N 
ATOM      3  H   UNL     1       6.720  -1.074  24.738  0.00  0.00    +0.149 HD
ATOM      4  C   UNL     1       7.766  -0.987  26.504  0.00  0.00    +0.234 C 
ATOM      5  O   UNL     1       8.858  -0.857  27.055  0.00  0.00    -0.274 OA
BRANCH   4   6
ATOM      6  C   UNL     1       6.503  -1.430  27.306  0.00  0.00    +0.168 C 
BRANCH   6   7
ATOM      7  N   UNL     1       5.854  -2.569  26.646  0.00  0.00    -0.298 N 
ATOM      8  H   UNL     1       4.998  -2.400  26.120  0.00  0.00    +0.150 HD
ATOM      9  C   UNL     1       6.215  -3.885  26.805  0.00  0.00    +0.263 C 
ATOM     10  O   UNL     1       7.173  -4.244  27.480  0.00  0.00    -0.269 OA
BRANCH   9  11
ATOM     11  C   UNL     1       5.368  -4.884  26.083  0.00  0.00    +0.126 A 
ATOM     12  C   UNL     1       5.438  -6.213  26.473  0.00  0.00    +0.033 A 
ATOM     13  C   UNL     1       4.566  -7.112  25.879  0.00  0.00    +0.012 A 
ATOM     14  C   UNL     1       3.660  -6.656  24.922  0.00  0.00    +0.000 A 
ATOM     15  C   UNL     1       3.702  -5.296  24.537  0.00  0.00    +0.072 A 
ATOM     16  C   UNL     1       2.807  -4.872  23.561  0.00  0.00    +0.028 A 
ATOM     17  C   UNL     1       1.852  -5.737  23.013  0.00  0.00    +0.002 A 
ATOM     18  C   UNL     1       1.794  -7.063  23.427  0.00  0.00    +0.001 A 
ATOM     19  C   UNL     1       2.709  -7.529  24.363  0.00  0.00    +0.010 A 
ATOM     20  N   UNL     1       4.544  -4.413  25.106  0.00  0.00    -0.242 NA
ENDBRANCH   9  11
ENDBRANCH   6   7
BRANCH   6  21
ATOM     21  C   UNL     1       5.593  -0.246  27.659  0.00  0.00    +0.127 C 
BRANCH  21  22
ATOM     22  C   UNL     1       4.416  -0.109  26.715  0.00  0.00    +0.213 C 
ATOM     23  N   UNL     1       3.183  -0.334  27.240  0.00  0.00    -0.329 N 
ATOM     24  H   UNL     1       2.401  -0.330  26.598  0.00  0.00    +0.145 HD
ATOM     25  H   UNL     1       3.073  -0.804  28.129  0.00  0.00    +0.145 HD
ATOM     26  O   UNL     1       4.542   0.183  25.528  0.00  0.00    -0.276 OA
ENDBRANCH  21  22
ENDBRANCH   6  21
ENDBRANCH   4   6
ENDBRANCH   1   2
BRANCH   1  27
ATOM     27  C   UNL     1       9.441   0.915  24.848  0.00  0.00    +0.149 C 
BRANCH  27  28
ATOM     28  O   UNL     1      10.857   0.579  24.815  0.00  0.00    -0.389 OA
ATOM     29  H   UNL     1      11.313   1.205  25.403  0.00  0.00    +0.210 HD
ENDBRANCH  27  28
BRANCH  27  30
ATOM     30  C   UNL     1       9.315   2.348  24.186  0.00  0.00    +0.118 C 
BRANCH  30  32
ATOM     31  C   UNL     1       6.959   2.886  24.784  0.00  0.00    +0.143 C 
ATOM     32  N   UNL     1       8.376   3.406  24.650  0.00  0.00    -0.289 NA
ATOM     33  C   UNL     1       8.413   4.625  23.823  0.00  0.00    +0.089 C 
ATOM     34  C   UNL     1       7.603   4.642  22.498  0.00  0.00    +0.006 C 
ATOM     35  C   UNL     1       6.238   3.945  22.554  0.00  0.00    -0.005 C 
ATOM     36  C   UNL     1       5.021   4.834  22.878  0.00  0.00    +0.004 C 
ATOM     37  C   UNL     1       5.228   6.310  23.213  0.00  0.00    +0.000 C 
ATOM     38  C   UNL     1       6.575   6.928  22.872  0.00  0.00    +0.000 C 
ATOM     39  C   UNL     1       7.425   6.067  21.949  0.00  0.00    +0.005 C 
ATOM     40  C   UNL     1       6.296   2.671  23.408  0.00  0.00    +0.032 C 
BRANCH  31  43
ATOM     41  N   UNL     1       4.710   3.188  25.847  0.00  0.00    -0.309 N 
ATOM     42  H   UNL     1       4.575   2.279  25.424  0.00  0.00    +0.149 HD
ATOM     43  C   UNL     1       5.991   3.740  25.729  0.00  0.00    +0.231 C 
ATOM     44  O   UNL     1       6.306   4.788  26.260  0.00  0.00    -0.274 OA
BRANCH  41  46
ATOM     45  C   UNL     1       3.278   5.254  26.094  0.00  0.00    +0.031 C 
ATOM     46  C   UNL     1       3.495   3.779  26.484  0.00  0.00    +0.026 C 
ATOM     47  C   UNL     1       2.260   2.997  25.975  0.00  0.00    +0.031 C 
ATOM     48  C   UNL     1       3.508   3.685  28.016  0.00  0.00    +0.031 C 
ENDBRANCH  41  46
ENDBRANCH  31  43
ENDBRANCH  30  32
ENDBRANCH  27  30
ENDBRANCH   1  27
BRANCH   1  49
ATOM     49  C   UNL     1       9.605  -1.502  23.930  0.00  0.00    +0.060 C 
BRANCH  49  50
ATOM     50  C   UNL     1       8.893  -2.813  23.634  0.00  0.00    -0.046 A 
ATOM     51  C   UNL     1       7.980  -2.901  22.572  0.00  0.00    +0.004 A 
ATOM     52  C   UNL     1       7.291  -4.092  22.316  0.00  0.00    +0.000 A 
ATOM     53  C   UNL     1       7.505  -5.208  23.120  0.00  0.00    +0.000 A 
ATOM     54  C   UNL     1       8.414  -5.136  24.176  0.00  0.00    +0.000 A 
ATOM     55  C   UNL     1       9.101  -3.944  24.434  0.00  0.00    +0.004 A 
ENDBRANCH  49  50
ENDBRANCH   1  49
TORSDOF 14
ENDMDL
