MODEL 1
REMARK VINA RESULT:      -6.2      0.000      0.000
REMARK  Name = 
REMARK  6 active torsions:
REMARK  status: ('A' for Active; 'I' for Inactive)
REMARK    1  A    between atoms: C6_3  and  N6_23
REMARK    2  A    between atoms: N9_7  and  C1*_10
REMARK    3  A    between atoms: C2*_12  and  O2*_22
REMARK    4  A    between atoms: C3*_14  and  O3*_21
REMARK    5  A    between atoms: C4*_16  and  C5*_19
REMARK    6  A    between atoms: C5*_19  and  O5*_20
REMARK                            x       y       z     vdW  Elec       q    Type
REMARK                         _______ _______ _______ _____ _____    ______ ____
ROOT
ATOM      1  C2    A A   1       9.445  -0.136  21.501  0.00  0.00    +0.225 A 
ATOM      2  N3    A A   1       9.196  -1.261  22.212  0.00  0.00    -0.216 NA
ATOM      3  C4    A A   1       8.097  -1.101  22.971  0.00  0.00    +0.167 A 
ATOM      4  N9    A A   1       7.507  -1.997  23.818  0.00  0.00    -0.286 N 
ATOM      5  C8    A A   1       6.423  -1.374  24.389  0.00  0.00    +0.203 A 
ATOM      6  N7    A A   1       6.267  -0.145  23.951  0.00  0.00    -0.231 NA
ATOM      7  C5    A A   1       7.300   0.034  23.056  0.00  0.00    +0.147 A 
ATOM      8  C6    A A   1       7.657   1.135  22.259  0.00  0.00    +0.147 A 
ATOM      9  N1    A A   1       8.760   1.032  21.485  0.00  0.00    -0.219 NA
ENDROOT
BRANCH   4  10
ATOM     10  C1*   A A   1       7.880  -3.363  24.102  0.00  0.00    +0.253 C 
ATOM     11  O4*   A A   1       6.849  -4.018  24.864  0.00  0.00    -0.346 OA
ATOM     12  C4*   A A   1       7.488  -5.109  25.579  0.00  0.00    +0.177 C 
ATOM     13  C3*   A A   1       8.999  -5.007  25.318  0.00  0.00    +0.178 C 
ATOM     14  C2*   A A   1       9.182  -3.563  24.875  0.00  0.00    +0.195 C 
BRANCH  13  15
ATOM     15  O3*   A A   1       9.353  -5.860  24.208  0.00  0.00    -0.386 OA
ATOM     16  H3*   A A   1       9.847  -5.303  23.577  0.00  0.00    +0.210 HD
ENDBRANCH  13  15
BRANCH  14  17
ATOM     17  O2*   A A   1      10.354  -3.407  24.075  0.00  0.00    -0.385 OA
ATOM     18  H2*   A A   1      10.143  -3.760  23.191  0.00  0.00    +0.210 HD
ENDBRANCH  14  17
BRANCH  12  19
ATOM     19  C5*   A A   1       7.126  -4.996  27.060  0.00  0.00    +0.190 C 
BRANCH  19  20
ATOM     20  O5*   A A   1       7.653  -6.091  27.801  0.00  0.00    -0.392 OA
ATOM     21  H5*   A A   1       6.908  -6.706  27.970  0.00  0.00    +0.210 HD
ENDBRANCH  19  20
ENDBRANCH  12  19
ENDBRANCH   4  10
BRANCH   8  22
ATOM     22  N6    A A   1       6.937   2.321  22.242  0.00  0.00    -0.341 N 
ATOM     23  H61   A A   1       7.470   3.103  21.877  0.00  0.00    +0.144 HD
ATOM     24  H62   A A   1       5.991   2.199  21.909  0.00  0.00    +0.144 HD
ENDBRANCH   8  22
TORSDOF 6
ENDMDL
MODEL 2
REMARK VINA RESULT:      -6.2      2.039      2.823
REMARK  Name = 
REMARK  6 active torsions:
REMARK  status: ('A' for Active; 'I' for Inactive)
REMARK    1  A    between atoms: C6_3  and  N6_23
REMARK    2  A    between atoms: N9_7  and  C1*_10
REMARK    3  A    between atoms: C2*_12  and  O2*_22
REMARK    4  A    between atoms: C3*_14  and  O3*_21
REMARK    5  A    between atoms: C4*_16  and  C5*_19
REMARK    6  A    between atoms: C5*_19  and  O5*_20
REMARK                            x       y       z     vdW  Elec       q    Type
REMARK                         _______ _______ _______ _____ _____    ______ ____
ROOT
ATOM      1  C2    A A   1      10.662   0.906  24.822  0.00  0.00    +0.225 A 
ATOM      2  N3    A A   1      10.212  -0.366  24.932  0.00  0.00    -0.216 NA
ATOM      3  C4    A A   1       9.682  -0.778  23.765  0.00  0.00    +0.167 A 
ATOM      4  N9    A A   1       9.134  -1.992  23.457  0.00  0.00    -0.286 N 
ATOM      5  C8    A A   1       8.707  -1.934  22.153  0.00  0.00    +0.203 A 
ATOM      6  N7    A A   1       8.960  -0.771  21.597  0.00  0.00    -0.231 NA
ATOM      7  C5    A A   1       9.580  -0.043  22.590  0.00  0.00    +0.147 A 
ATOM      8  C6    A A   1      10.094   1.265  22.600  0.00  0.00    +0.147 A 
ATOM      9  N1    A A   1      10.628   1.733  23.750  0.00  0.00    -0.219 NA
ENDROOT
BRANCH   4  10
ATOM     10  C1*   A A   1       9.007  -3.169  24.285  0.00  0.00    +0.253 C 
ATOM     11  O4*   A A   1       8.516  -4.277  23.509  0.00  0.00    -0.346 OA
ATOM     12  C4*   A A   1       7.886  -5.194  24.443  0.00  0.00    +0.177 C 
ATOM     13  C3*   A A   1       7.897  -4.522  25.825  0.00  0.00    +0.178 C 
ATOM     14  C2*   A A   1       8.085  -3.047  25.497  0.00  0.00    +0.195 C 
BRANCH  13  15
ATOM     15  O3*   A A   1       9.056  -4.962  26.565  0.00  0.00    -0.386 OA
ATOM     16  H3*   A A   1       9.435  -4.168  26.986  0.00  0.00    +0.210 HD
ENDBRANCH  13  15
BRANCH  14  17
ATOM     17  O2*   A A   1       8.665  -2.339  26.592  0.00  0.00    -0.385 OA
ATOM     18  H2*   A A   1       8.532  -1.389  26.417  0.00  0.00    +0.210 HD
ENDBRANCH  14  17
BRANCH  12  19
ATOM     19  C5*   A A   1       6.477  -5.507  23.940  0.00  0.00    +0.190 C 
BRANCH  19  20
ATOM     20  O5*   A A   1       6.225  -4.871  22.691  0.00  0.00    -0.392 OA
ATOM     21  H5*   A A   1       6.191  -5.578  22.013  0.00  0.00    +0.210 HD
ENDBRANCH  19  20
ENDBRANCH  12  19
ENDBRANCH   4  10
BRANCH   8  22
ATOM     22  N6    A A   1      10.066   2.097  21.489  0.00  0.00    -0.341 N 
ATOM     23  H61   A A   1       9.994   1.588  20.615  0.00  0.00    +0.144 HD
ATOM     24  H62   A A   1       9.466   2.899  21.619  0.00  0.00    +0.144 HD
ENDBRANCH   8  22
TORSDOF 6
ENDMDL
MODEL 3
REMARK VINA RESULT:      -6.2      1.596      2.798
REMARK  Name = 
REMARK  6 active torsions:
REMARK  status: ('A' for Active; 'I' for Inactive)
REMARK    1  A    between atoms: C6_3  and  N6_23
REMARK    2  A    between atoms: N9_7  and  C1*_10
REMARK    3  A    between atoms: C2*_12  and  O2*_22
REMARK    4  A    between atoms: C3*_14  and  O3*_21
REMARK    5  A    between atoms: C4*_16  and  C5*_19
REMARK    6  A    between atoms: C5*_19  and  O5*_20
REMARK                            x       y       z     vdW  Elec       q    Type
REMARK                         _______ _______ _______ _____ _____    ______ ____
ROOT
ATOM      1  C2    A A   1       6.867   1.360  22.632  0.00  0.00    +0.225 A 
ATOM      2  N3    A A   1       6.854   0.059  23.008  0.00  0.00    -0.216 NA
ATOM      3  C4    A A   1       8.084  -0.474  22.890  0.00  0.00    +0.167 A 
ATOM      4  N9    A A   1       8.495  -1.746  23.177  0.00  0.00    -0.286 N 
ATOM      5  C8    A A   1       9.832  -1.827  22.874  0.00  0.00    +0.203 A 
ATOM      6  N7    A A   1      10.312  -0.688  22.429  0.00  0.00    -0.231 NA
ATOM      7  C5    A A   1       9.233   0.169  22.444  0.00  0.00    +0.147 A 
ATOM      8  C6    A A   1       9.118   1.525  22.092  0.00  0.00    +0.147 A 
ATOM      9  N1    A A   1       7.902   2.108  22.182  0.00  0.00    -0.219 NA
ENDROOT
BRANCH   4  10
ATOM     10  C1*   A A   1       7.732  -2.848  23.716  0.00  0.00    +0.253 C 
ATOM     11  O4*   A A   1       8.348  -3.344  24.919  0.00  0.00    -0.346 OA
ATOM     12  C4*   A A   1       7.914  -4.721  25.073  0.00  0.00    +0.177 C 
ATOM     13  C3*   A A   1       7.101  -5.089  23.822  0.00  0.00    +0.178 C 
ATOM     14  C2*   A A   1       7.544  -4.054  22.798  0.00  0.00    +0.195 C 
BRANCH  13  15
ATOM     15  O3*   A A   1       5.696  -4.881  24.084  0.00  0.00    -0.386 OA
ATOM     16  H3*   A A   1       5.239  -5.700  23.815  0.00  0.00    +0.210 HD
ENDBRANCH  13  15
BRANCH  14  17
ATOM     17  O2*   A A   1       6.551  -3.859  21.791  0.00  0.00    -0.385 OA
ATOM     18  H2*   A A   1       5.908  -3.216  22.146  0.00  0.00    +0.210 HD
ENDBRANCH  14  17
BRANCH  12  19
ATOM     19  C5*   A A   1       9.149  -5.601  25.265  0.00  0.00    +0.190 C 
BRANCH  19  20
ATOM     20  O5*   A A   1      10.331  -4.924  24.849  0.00  0.00    -0.392 OA
ATOM     21  H5*   A A   1      10.045  -4.095  24.411  0.00  0.00    +0.210 HD
ENDBRANCH  19  20
ENDBRANCH  12  19
ENDBRANCH   4  10
BRANCH   8  22
ATOM     22  N6    A A   1      10.191   2.283  21.646  0.00  0.00    -0.341 N 
ATOM     23  H61   A A   1       9.953   2.890  20.869  0.00  0.00    +0.144 HD
ATOM     24  H62   A A   1      10.732   2.678  22.403  0.00  0.00    +0.144 HD
ENDBRANCH   8  22
TORSDOF 6
ENDMDL
MODEL 4
REMARK VINA RESULT:      -6.1      3.084      6.334
REMARK  Name = 
REMARK  6 active torsions:
REMARK  status: ('A' for Active; 'I' for Inactive)
REMARK    1  A    between atoms: C6_3  and  N6_23
REMARK    2  A    between atoms: N9_7  and  C1*_10
REMARK    3  A    between atoms: C2*_12  and  O2*_22
REMARK    4  A    between atoms: C3*_14  and  O3*_21
REMARK    5  A    between atoms: C4*_16  and  C5*_19
REMARK    6  A    between atoms: C5*_19  and  O5*_20
REMARK                            x       y       z     vdW  Elec       q    Type
REMARK                         _______ _______ _______ _____ _____    ______ ____
ROOT
ATOM      1  C2    A A   1       6.588  -4.357  25.570  0.00  0.00    +0.225 A 
ATOM      2  N3    A A   1       6.672  -3.158  24.947  0.00  0.00    -0.216 NA
ATOM      3  C4    A A   1       7.922  -2.952  24.493  0.00  0.00    +0.167 A 
ATOM      4  N9    A A   1       8.415  -1.880  23.804  0.00  0.00    -0.286 N 
ATOM      5  C8    A A   1       9.750  -2.111  23.580  0.00  0.00    +0.203 A 
ATOM      6  N7    A A   1      10.144  -3.267  24.062  0.00  0.00    -0.231 NA
ATOM      7  C5    A A   1       9.009  -3.809  24.626  0.00  0.00    +0.147 A 
ATOM      8  C6    A A   1       8.791  -5.030  25.286  0.00  0.00    +0.147 A 
ATOM      9  N1    A A   1       7.555  -5.283  25.771  0.00  0.00    -0.219 NA
ENDROOT
BRANCH   4  10
ATOM     10  C1*   A A   1       7.723  -0.697  23.346  0.00  0.00    +0.253 C 
ATOM     11  O4*   A A   1       8.535   0.025  22.401  0.00  0.00    -0.346 OA
ATOM     12  C4*   A A   1       8.081   1.404  22.430  0.00  0.00    +0.177 C 
ATOM     13  C3*   A A   1       7.032   1.520  23.546  0.00  0.00    +0.178 C 
ATOM     14  C2*   A A   1       7.315   0.307  24.422  0.00  0.00    +0.195 C 
BRANCH  13  15
ATOM     15  O3*   A A   1       5.712   1.361  22.983  0.00  0.00    -0.386 OA
ATOM     16  H3*   A A   1       5.183   2.119  23.296  0.00  0.00    +0.210 HD
ENDBRANCH  13  15
BRANCH  14  17
ATOM     17  O2*   A A   1       6.159  -0.083  25.162  0.00  0.00    -0.385 OA
ATOM     18  H2*   A A   1       6.392  -0.898  25.644  0.00  0.00    +0.210 HD
ENDBRANCH  14  17
BRANCH  12  19
ATOM     19  C5*   A A   1       9.293   2.309  22.651  0.00  0.00    +0.190 C 
BRANCH  19  20
ATOM     20  O5*   A A   1      10.197   2.234  21.553  0.00  0.00    -0.392 OA
ATOM     21  H5*   A A   1      10.899   2.899  21.716  0.00  0.00    +0.210 HD
ENDBRANCH  19  20
ENDBRANCH  12  19
ENDBRANCH   4  10
BRANCH   8  22
ATOM     22  N6    A A   1       9.789  -5.977  25.472  0.00  0.00    -0.341 N 
ATOM     23  H61   A A   1      10.153  -6.346  24.600  0.00  0.00    +0.144 HD
ATOM     24  H62   A A   1      10.453  -5.708  26.183  0.00  0.00    +0.144 HD
ENDBRANCH   8  22
TORSDOF 6
ENDMDL
MODEL 5
REMARK VINA RESULT:      -6.1      3.043      5.822
REMARK  Name = 
REMARK  6 active torsions:
REMARK  status: ('A' for Active; 'I' for Inactive)
REMARK    1  A    between atoms: C6_3  and  N6_23
REMARK    2  A    between atoms: N9_7  and  C1*_10
REMARK    3  A    between atoms: C2*_12  and  O2*_22
REMARK    4  A    between atoms: C3*_14  and  O3*_21
REMARK    5  A    between atoms: C4*_16  and  C5*_19
REMARK    6  A    between atoms: C5*_19  and  O5*_20
REMARK                            x       y       z     vdW  Elec       q    Type
REMARK                         _______ _______ _______ _____ _____    ______ ____
ROOT
ATOM      1  C2    A A   1       6.194  -5.382  25.483  0.00  0.00    +0.225 A 
ATOM      2  N3    A A   1       6.905  -4.290  25.116  0.00  0.00    -0.216 NA
ATOM      3  C4    A A   1       6.553  -3.898  23.877  0.00  0.00    +0.167 A 
ATOM      4  N9    A A   1       7.022  -2.839  23.151  0.00  0.00    -0.286 N 
ATOM      5  C8    A A   1       6.383  -2.855  21.935  0.00  0.00    +0.203 A 
ATOM      6  N7    A A   1       5.521  -3.842  21.839  0.00  0.00    -0.231 NA
ATOM      7  C5    A A   1       5.609  -4.495  23.050  0.00  0.00    +0.147 A 
ATOM      8  C6    A A   1       4.930  -5.618  23.551  0.00  0.00    +0.147 A 
ATOM      9  N1    A A   1       5.253  -6.061  24.786  0.00  0.00    -0.219 NA
ENDROOT
BRANCH   4  10
ATOM     10  C1*   A A   1       7.993  -1.837  23.526  0.00  0.00    +0.253 C 
ATOM     11  O4*   A A   1       7.635  -0.558  22.971  0.00  0.00    -0.346 OA
ATOM     12  C4*   A A   1       8.860   0.216  22.883  0.00  0.00    +0.177 C 
ATOM     13  C3*   A A   1      10.019  -0.708  23.290  0.00  0.00    +0.178 C 
ATOM     14  C2*   A A   1       9.437  -2.102  23.105  0.00  0.00    +0.195 C 
BRANCH  13  15
ATOM     15  O3*   A A   1      10.304  -0.530  24.694  0.00  0.00    -0.386 OA
ATOM     16  H3*   A A   1       9.575   0.005  25.061  0.00  0.00    +0.210 HD
ENDBRANCH  13  15
BRANCH  14  17
ATOM     17  O2*   A A   1      10.107  -3.060  23.924  0.00  0.00    -0.385 OA
ATOM     18  H2*   A A   1       9.890  -2.843  24.850  0.00  0.00    +0.210 HD
ENDBRANCH  14  17
BRANCH  12  19
ATOM     19  C5*   A A   1       8.994   0.752  21.458  0.00  0.00    +0.190 C 
BRANCH  19  20
ATOM     20  O5*   A A   1       9.750   1.958  21.431  0.00  0.00    -0.392 OA
ATOM     21  H5*   A A   1       9.373   2.545  22.120  0.00  0.00    +0.210 HD
ENDBRANCH  19  20
ENDBRANCH  12  19
ENDBRANCH   4  10
BRANCH   8  22
ATOM     22  N6    A A   1       3.957  -6.296  22.831  0.00  0.00    -0.341 N 
ATOM     23  H61   A A   1       3.453  -5.699  22.185  0.00  0.00    +0.144 HD
ATOM     24  H62   A A   1       4.277  -7.193  22.492  0.00  0.00    +0.144 HD
ENDBRANCH   8  22
TORSDOF 6
ENDMDL
MODEL 6
REMARK VINA RESULT:      -6.0      3.245      6.376
REMARK  Name = 
REMARK  6 active torsions:
REMARK  status: ('A' for Active; 'I' for Inactive)
REMARK    1  A    between atoms: C6_3  and  N6_23
REMARK    2  A    between atoms: N9_7  and  C1*_10
REMARK    3  A    between atoms: C2*_12  and  O2*_22
REMARK    4  A    between atoms: C3*_14  and  O3*_21
REMARK    5  A    between atoms: C4*_16  and  C5*_19
REMARK    6  A    between atoms: C5*_19  and  O5*_20
REMARK                            x       y       z     vdW  Elec       q    Type
REMARK                         _______ _______ _______ _____ _____    ______ ____
ROOT
ATOM      1  C2    A A   1       7.085  -3.982  26.687  0.00  0.00    +0.225 A 
ATOM      2  N3    A A   1       7.117  -2.791  26.044  0.00  0.00    -0.216 NA
ATOM      3  C4    A A   1       8.168  -2.739  25.206  0.00  0.00    +0.167 A 
ATOM      4  N9    A A   1       8.546  -1.725  24.371  0.00  0.00    -0.286 N 
ATOM      5  C8    A A   1       9.695  -2.121  23.731  0.00  0.00    +0.203 A 
ATOM      6  N7    A A   1      10.070  -3.329  24.085  0.00  0.00    -0.231 NA
ATOM      7  C5    A A   1       9.119  -3.732  24.998  0.00  0.00    +0.147 A 
ATOM      8  C6    A A   1       8.971  -4.928  25.719  0.00  0.00    +0.147 A 
ATOM      9  N1    A A   1       7.937  -5.029  26.584  0.00  0.00    -0.219 NA
ENDROOT
BRANCH   4  10
ATOM     10  C1*   A A   1       7.902  -0.453  24.136  0.00  0.00    +0.253 C 
ATOM     11  O4*   A A   1       7.602  -0.293  22.737  0.00  0.00    -0.346 OA
ATOM     12  C4*   A A   1       7.512   1.135  22.490  0.00  0.00    +0.177 C 
ATOM     13  C3*   A A   1       7.908   1.852  23.790  0.00  0.00    +0.178 C 
ATOM     14  C2*   A A   1       8.685   0.790  24.554  0.00  0.00    +0.195 C 
BRANCH  13  15
ATOM     15  O3*   A A   1       6.720   2.164  24.548  0.00  0.00    -0.386 OA
ATOM     16  H3*   A A   1       6.681   1.521  25.281  0.00  0.00    +0.210 HD
ENDBRANCH  13  15
BRANCH  14  17
ATOM     17  O2*   A A   1       8.661   1.037  25.960  0.00  0.00    -0.385 OA
ATOM     18  H2*   A A   1       8.498   0.180  26.396  0.00  0.00    +0.210 HD
ENDBRANCH  14  17
BRANCH  12  19
ATOM     19  C5*   A A   1       8.423   1.482  21.313  0.00  0.00    +0.190 C 
BRANCH  19  20
ATOM     20  O5*   A A   1       9.365   2.488  21.671  0.00  0.00    -0.392 OA
ATOM     21  H5*   A A   1      10.198   2.279  21.198  0.00  0.00    +0.210 HD
ENDBRANCH  19  20
ENDBRANCH  12  19
ENDBRANCH   4  10
BRANCH   8  22
ATOM     22  N6    A A   1       9.844  -6.000  25.593  0.00  0.00    -0.341 N 
ATOM     23  H61   A A   1       9.377  -6.899  25.636  0.00  0.00    +0.144 HD
ATOM     24  H62   A A   1      10.530  -5.860  24.864  0.00  0.00    +0.144 HD
ENDBRANCH   8  22
TORSDOF 6
ENDMDL
MODEL 7
REMARK VINA RESULT:      -5.9      3.239      5.748
REMARK  Name = 
REMARK  6 active torsions:
REMARK  status: ('A' for Active; 'I' for Inactive)
REMARK    1  A    between atoms: C6_3  and  N6_23
REMARK    2  A    between atoms: N9_7  and  C1*_10
REMARK    3  A    between atoms: C2*_12  and  O2*_22
REMARK    4  A    between atoms: C3*_14  and  O3*_21
REMARK    5  A    between atoms: C4*_16  and  C5*_19
REMARK    6  A    between atoms: C5*_19  and  O5*_20
REMARK                            x       y       z     vdW  Elec       q    Type
REMARK                         _______ _______ _______ _____ _____    ______ ____
ROOT
ATOM      1  C2    A A   1       5.520  -5.853  23.626  0.00  0.00    +0.225 A 
ATOM      2  N3    A A   1       6.481  -4.918  23.442  0.00  0.00    -0.216 NA
ATOM      3  C4    A A   1       7.070  -4.615  24.614  0.00  0.00    +0.167 A 
ATOM      4  N9    A A   1       8.087  -3.734  24.856  0.00  0.00    -0.286 N 
ATOM      5  C8    A A   1       8.333  -3.748  26.208  0.00  0.00    +0.203 A 
ATOM      6  N7    A A   1       7.555  -4.592  26.847  0.00  0.00    -0.231 NA
ATOM      7  C5    A A   1       6.768  -5.149  25.862  0.00  0.00    +0.147 A 
ATOM      8  C6    A A   1       5.755  -6.121  25.920  0.00  0.00    +0.147 A 
ATOM      9  N1    A A   1       5.124  -6.455  24.773  0.00  0.00    -0.219 NA
ENDROOT
BRANCH   4  10
ATOM     10  C1*   A A   1       8.827  -2.919  23.921  0.00  0.00    +0.253 C 
ATOM     11  O4*   A A   1       9.802  -2.119  24.614  0.00  0.00    -0.346 OA
ATOM     12  C4*   A A   1      10.079  -0.972  23.766  0.00  0.00    +0.177 C 
ATOM     13  C3*   A A   1       9.118  -1.042  22.570  0.00  0.00    +0.178 C 
ATOM     14  C2*   A A   1       8.006  -1.957  23.065  0.00  0.00    +0.195 C 
BRANCH  13  15
ATOM     15  O3*   A A   1       9.773  -1.701  21.465  0.00  0.00    -0.386 OA
ATOM     16  H3*   A A   1      10.696  -1.856  21.742  0.00  0.00    +0.210 HD
ENDBRANCH  13  15
BRANCH  14  17
ATOM     17  O2*   A A   1       7.328  -2.589  21.979  0.00  0.00    -0.385 OA
ATOM     18  H2*   A A   1       6.379  -2.392  22.084  0.00  0.00    +0.210 HD
ENDBRANCH  14  17
BRANCH  12  19
ATOM     19  C5*   A A   1       9.908   0.299  24.598  0.00  0.00    +0.190 C 
BRANCH  19  20
ATOM     20  O5*   A A   1       9.752  -0.009  25.980  0.00  0.00    -0.392 OA
ATOM     21  H5*   A A   1       9.101  -0.740  26.037  0.00  0.00    +0.210 HD
ENDBRANCH  19  20
ENDBRANCH  12  19
ENDBRANCH   4  10
BRANCH   8  22
ATOM     22  N6    A A   1       5.369  -6.739  27.101  0.00  0.00    -0.341 N 
ATOM     23  H61   A A   1       4.415  -7.082  27.075  0.00  0.00    +0.144 HD
ATOM     24  H62   A A   1       6.081  -7.354  27.470  0.00  0.00    +0.144 HD
ENDBRANCH   8  22
TORSDOF 6
ENDMDL
MODEL 8
REMARK VINA RESULT:      -5.8      2.122      2.510
REMARK  Name = 
REMARK  6 active torsions:
REMARK  status: ('A' for Active; 'I' for Inactive)
REMARK    1  A    between atoms: C6_3  and  N6_23
REMARK    2  A    between atoms: N9_7  and  C1*_10
REMARK    3  A    between atoms: C2*_12  and  O2*_22
REMARK    4  A    between atoms: C3*_14  and  O3*_21
REMARK    5  A    between atoms: C4*_16  and  C5*_19
REMARK    6  A    between atoms: C5*_19  and  O5*_20
REMARK                            x       y       z     vdW  Elec       q    Type
REMARK                         _______ _______ _______ _____ _____    ______ ____
ROOT
ATOM      1  C2    A A   1      10.559   0.584  24.733  0.00  0.00    +0.225 A 
ATOM      2  N3    A A   1      10.122  -0.682  24.531  0.00  0.00    -0.216 NA
ATOM      3  C4    A A   1       8.935  -0.671  23.896  0.00  0.00    +0.167 A 
ATOM      4  N9    A A   1       8.169  -1.731  23.500  0.00  0.00    -0.286 N 
ATOM      5  C8    A A   1       7.034  -1.226  22.914  0.00  0.00    +0.203 A 
ATOM      6  N7    A A   1       7.028   0.087  22.891  0.00  0.00    -0.231 NA
ATOM      7  C5    A A   1       8.216   0.447  23.492  0.00  0.00    +0.147 A 
ATOM      8  C6    A A   1       8.781   1.708  23.750  0.00  0.00    +0.147 A 
ATOM      9  N1    A A   1       9.968   1.754  24.395  0.00  0.00    -0.219 NA
ENDROOT
BRANCH   4  10
ATOM     10  C1*   A A   1       8.440  -3.145  23.621  0.00  0.00    +0.253 C 
ATOM     11  O4*   A A   1       7.715  -3.883  22.620  0.00  0.00    -0.346 OA
ATOM     12  C4*   A A   1       7.563  -5.235  23.128  0.00  0.00    +0.177 C 
ATOM     13  C3*   A A   1       8.119  -5.254  24.560  0.00  0.00    +0.178 C 
ATOM     14  C2*   A A   1       8.098  -3.787  24.964  0.00  0.00    +0.195 C 
BRANCH  13  15
ATOM     15  O3*   A A   1       9.496  -5.687  24.535  0.00  0.00    -0.386 OA
ATOM     16  H3*   A A   1       9.550  -6.406  23.878  0.00  0.00    +0.210 HD
ENDBRANCH  13  15
BRANCH  14  17
ATOM     17  O2*   A A   1       9.053  -3.515  25.990  0.00  0.00    -0.385 OA
ATOM     18  H2*   A A   1       9.490  -2.675  25.755  0.00  0.00    +0.210 HD
ENDBRANCH  14  17
BRANCH  12  19
ATOM     19  C5*   A A   1       6.085  -5.618  23.054  0.00  0.00    +0.190 C 
BRANCH  19  20
ATOM     20  O5*   A A   1       5.838  -6.503  21.966  0.00  0.00    -0.392 OA
ATOM     21  H5*   A A   1       5.638  -5.945  21.185  0.00  0.00    +0.210 HD
ENDBRANCH  19  20
ENDBRANCH  12  19
ENDBRANCH   4  10
BRANCH   8  22
ATOM     22  N6    A A   1       8.171   2.899  23.386  0.00  0.00    -0.341 N 
ATOM     23  H61   A A   1       8.111   3.564  24.149  0.00  0.00    +0.144 HD
ATOM     24  H62   A A   1       8.486   3.240  22.488  0.00  0.00    +0.144 HD
ENDBRANCH   8  22
TORSDOF 6
ENDMDL
MODEL 9
REMARK VINA RESULT:      -5.8      3.044      5.160
REMARK  Name = 
REMARK  6 active torsions:
REMARK  status: ('A' for Active; 'I' for Inactive)
REMARK    1  A    between atoms: C6_3  and  N6_23
REMARK    2  A    between atoms: N9_7  and  C1*_10
REMARK    3  A    between atoms: C2*_12  and  O2*_22
REMARK    4  A    between atoms: C3*_14  and  O3*_21
REMARK    5  A    between atoms: C4*_16  and  C5*_19
REMARK    6  A    between atoms: C5*_19  and  O5*_20
REMARK                            x       y       z     vdW  Elec       q    Type
REMARK                         _______ _______ _______ _____ _____    ______ ____
ROOT
ATOM      1  C2    A A   1       5.700  -3.146  21.814  0.00  0.00    +0.225 A 
ATOM      2  N3    A A   1       6.512  -2.439  22.635  0.00  0.00    -0.216 NA
ATOM      3  C4    A A   1       7.394  -3.257  23.239  0.00  0.00    +0.167 A 
ATOM      4  N9    A A   1       8.384  -2.939  24.126  0.00  0.00    -0.286 N 
ATOM      5  C8    A A   1       9.009  -4.109  24.485  0.00  0.00    +0.203 A 
ATOM      6  N7    A A   1       8.498  -5.154  23.874  0.00  0.00    -0.231 NA
ATOM      7  C5    A A   1       7.495  -4.634  23.084  0.00  0.00    +0.147 A 
ATOM      8  C6    A A   1       6.600  -5.252  22.193  0.00  0.00    +0.147 A 
ATOM      9  N1    A A   1       5.686  -4.477  21.568  0.00  0.00    -0.219 NA
ENDROOT
BRANCH   4  10
ATOM     10  C1*   A A   1       8.775  -1.642  24.627  0.00  0.00    +0.253 C 
ATOM     11  O4*   A A   1       7.684  -1.029  25.339  0.00  0.00    -0.346 OA
ATOM     12  C4*   A A   1       7.915   0.404  25.303  0.00  0.00    +0.177 C 
ATOM     13  C3*   A A   1       9.143   0.650  24.412  0.00  0.00    +0.178 C 
ATOM     14  C2*   A A   1       9.237  -0.625  23.586  0.00  0.00    +0.195 C 
BRANCH  13  15
ATOM     15  O3*   A A   1      10.325   0.733  25.235  0.00  0.00    -0.386 OA
ATOM     16  H3*   A A   1      10.765  -0.137  25.180  0.00  0.00    +0.210 HD
ENDBRANCH  13  15
BRANCH  14  17
ATOM     17  O2*   A A   1      10.568  -0.847  23.118  0.00  0.00    -0.385 OA
ATOM     18  H2*   A A   1      11.146  -0.857  23.904  0.00  0.00    +0.210 HD
ENDBRANCH  14  17
BRANCH  12  19
ATOM     19  C5*   A A   1       6.651   1.087  24.782  0.00  0.00    +0.190 C 
BRANCH  19  20
ATOM     20  O5*   A A   1       5.806   0.159  24.110  0.00  0.00    -0.392 OA
ATOM     21  H5*   A A   1       5.410  -0.417  24.798  0.00  0.00    +0.210 HD
ENDBRANCH  19  20
ENDBRANCH  12  19
ENDBRANCH   4  10
BRANCH   8  22
ATOM     22  N6    A A   1       6.606  -6.616  21.940  0.00  0.00    -0.341 N 
ATOM     23  H61   A A   1       7.540  -6.993  21.822  0.00  0.00    +0.144 HD
ATOM     24  H62   A A   1       5.964  -7.125  22.531  0.00  0.00    +0.144 HD
ENDBRANCH   8  22
TORSDOF 6
ENDMDL
