MODEL 1
REMARK VINA RESULT:      -6.9      0.000      0.000
REMARK  Name = 
REMARK  19 active torsions:
REMARK  status: ('A' for Active; 'I' for Inactive)
REMARK    1  A    between atoms: C_1  and  C_2
REMARK    2  A    between atoms: C_2  and  C_3
REMARK    3  A    between atoms: C_2  and  C_4
REMARK    4  A    between atoms: C_4  and  C_6
REMARK    5  A    between atoms: C_4  and  N_53
REMARK    6  A    between atoms: C_12  and  C_14
REMARK    7  A    between atoms: C_17  and  C_19
REMARK    8  A    between atoms: C_22  and  C_25
REMARK    9  A    between atoms: C_28  and  C_31
REMARK   10  A    between atoms: C_34  and  C_36
REMARK   11  A    between atoms: C_41  and  C_43
REMARK   12  A    between atoms: C_43  and  C_45
REMARK   13  A    between atoms: C_43  and  N_48
REMARK   14  A    between atoms: C_45  and  C_46
REMARK   15  A    between atoms: C_45  and  C_47
REMARK   16  A    between atoms: C_49  and  O_51
REMARK   17  A    between atoms: O_51  and  C_52
REMARK   18  A    between atoms: C_54  and  O_56
REMARK   19  A    between atoms: O_56  and  C_57
REMARK                            x       y       z     vdW  Elec       q    Type
REMARK                         _______ _______ _______ _____ _____    ______ ____
ROOT
ATOM      1  C   UNL     1       9.757   1.163  23.372  0.00  0.00    -0.000 A 
ATOM      2  C   UNL     1      10.538   0.157  23.952  0.00  0.00    +0.010 A 
ATOM      3  C   UNL     1      10.107  -1.185  23.949  0.00  0.00    +0.009 A 
ATOM      4  C   UNL     1       8.873  -1.559  23.387  0.00  0.00    -0.018 A 
ATOM      5  C   UNL     1       8.173  -0.554  22.694  0.00  0.00    +0.009 A 
ATOM      6  C   UNL     1       8.605   0.778  22.685  0.00  0.00    +0.010 A 
ENDROOT
BRANCH   1  10
ATOM      7  C   UNL     1       9.807   4.763  23.988  0.00  0.00    +0.128 A 
ATOM      8  N   UNL     1       9.168   3.542  23.960  0.00  0.00    -0.340 N 
ATOM      9  H   UNL     1       8.211   3.378  24.235  0.00  0.00    +0.167 HD
ATOM     10  C   UNL     1      10.057   2.584  23.537  0.00  0.00    +0.066 A 
ATOM     11  C   UNL     1      11.205   3.311  23.271  0.00  0.00    +0.139 A 
ATOM     12  N   UNL     1      11.053   4.639  23.580  0.00  0.00    -0.238 NA
BRANCH   7  15
ATOM     13  C   UNL     1       6.708   5.436  25.065  0.00  0.00    +0.237 C 
ATOM     14  N   UNL     1       8.033   5.735  25.364  0.00  0.00    -0.290 N 
ATOM     15  C   UNL     1       9.144   6.029  24.454  0.00  0.00    +0.142 C 
ATOM     16  C   UNL     1      10.129   6.881  25.283  0.00  0.00    +0.032 C 
ATOM     17  C   UNL     1       9.448   7.108  26.629  0.00  0.00    +0.021 C 
ATOM     18  C   UNL     1       8.420   5.998  26.735  0.00  0.00    +0.108 C 
ATOM     19  O   UNL     1       5.885   5.367  25.982  0.00  0.00    -0.274 OA
BRANCH  13  20
ATOM     20  C   UNL     1       6.265   5.297  23.572  0.00  0.00    +0.165 C 
BRANCH  20  21
ATOM     21  N   UNL     1       5.031   4.522  23.492  0.00  0.00    -0.270 N 
ATOM     22  H   UNL     1       4.194   4.843  23.960  0.00  0.00    +0.153 HD
ATOM     23  C   UNL     1       4.977   3.247  23.019  0.00  0.00    +0.401 C 
ATOM     24  O   UNL     1       5.859   2.681  22.392  0.00  0.00    -0.226 OA
BRANCH  23  25
ATOM     25  O   UNL     1       3.805   2.680  23.395  0.00  0.00    -0.454 OA
ATOM     26  C   UNL     1       2.995   3.531  24.205  0.00  0.00    +0.282 C 
ENDBRANCH  23  25
ENDBRANCH  20  21
BRANCH  20  28
ATOM     27  C   UNL     1       7.006   6.827  21.595  0.00  0.00    +0.009 C 
ATOM     28  C   UNL     1       6.086   6.662  22.812  0.00  0.00    +0.012 C 
ATOM     29  C   UNL     1       4.637   6.841  22.320  0.00  0.00    +0.009 C 
ENDBRANCH  20  28
ENDBRANCH  13  20
ENDBRANCH   7  15
ENDBRANCH   1  10
BRANCH   4  30
ATOM     30  C   UNL     1       8.213  -2.869  23.664  0.00  0.00    -0.018 A 
ATOM     31  C   UNL     1       8.566  -3.641  24.787  0.00  0.00    +0.009 A 
ATOM     32  C   UNL     1       7.744  -4.684  25.263  0.00  0.00    +0.010 A 
ATOM     33  C   UNL     1       6.542  -5.005  24.625  0.00  0.00    -0.000 A 
ATOM     34  C   UNL     1       6.252  -4.330  23.430  0.00  0.00    +0.010 A 
ATOM     35  C   UNL     1       7.081  -3.297  22.951  0.00  0.00    +0.009 A 
BRANCH  33  36
ATOM     36  C   UNL     1       5.575  -5.955  25.208  0.00  0.00    +0.066 A 
ATOM     37  N   UNL     1       5.244  -6.023  26.554  0.00  0.00    -0.340 N 
ATOM     38  H   UNL     1       5.623  -5.409  27.260  0.00  0.00    +0.167 HD
ATOM     39  C   UNL     1       4.096  -6.798  26.704  0.00  0.00    +0.128 A 
ATOM     40  N   UNL     1       3.843  -7.414  25.563  0.00  0.00    -0.238 NA
ATOM     41  C   UNL     1       4.695  -6.853  24.631  0.00  0.00    +0.139 A 
BRANCH  39  42
ATOM     42  C   UNL     1       3.117  -6.514  27.822  0.00  0.00    +0.142 C 
ATOM     43  N   UNL     1       3.009  -5.172  28.462  0.00  0.00    -0.290 N 
ATOM     44  C   UNL     1       2.658  -3.887  28.087  0.00  0.00    +0.237 C 
ATOM     45  O   UNL     1       2.414  -3.069  28.998  0.00  0.00    -0.274 OA
ATOM     46  C   UNL     1       2.949  -5.349  29.923  0.00  0.00    +0.108 C 
ATOM     47  C   UNL     1       2.919  -6.831  30.215  0.00  0.00    +0.021 C 
ATOM     48  C   UNL     1       3.600  -7.410  29.005  0.00  0.00    +0.032 C 
BRANCH  44  49
ATOM     49  C   UNL     1       2.424  -3.326  26.663  0.00  0.00    +0.165 C 
BRANCH  49  50
ATOM     50  N   UNL     1       3.587  -2.952  25.878  0.00  0.00    -0.270 N 
ATOM     51  H   UNL     1       4.238  -3.664  25.590  0.00  0.00    +0.153 HD
ATOM     52  C   UNL     1       4.156  -1.721  26.106  0.00  0.00    +0.401 C 
ATOM     53  O   UNL     1       3.622  -0.795  26.704  0.00  0.00    -0.226 OA
BRANCH  52  54
ATOM     54  O   UNL     1       5.421  -1.712  25.626  0.00  0.00    -0.454 OA
ATOM     55  C   UNL     1       6.104  -0.467  25.776  0.00  0.00    +0.282 C 
ENDBRANCH  52  54
ENDBRANCH  49  50
BRANCH  49  56
ATOM     56  C   UNL     1       1.305  -4.006  25.832  0.00  0.00    +0.012 C 
ATOM     57  C   UNL     1       0.443  -3.000  25.059  0.00  0.00    +0.009 C 
ATOM     58  C   UNL     1       0.446  -4.957  26.653  0.00  0.00    +0.009 C 
ENDBRANCH  49  56
ENDBRANCH  44  49
ENDBRANCH  39  42
ENDBRANCH  33  36
ENDBRANCH   4  30
TORSDOF 13
ENDMDL
MODEL 2
REMARK VINA RESULT:      -6.7      2.506      5.498
REMARK  Name = 
REMARK  19 active torsions:
REMARK  status: ('A' for Active; 'I' for Inactive)
REMARK    1  A    between atoms: C_1  and  C_2
REMARK    2  A    between atoms: C_2  and  C_3
REMARK    3  A    between atoms: C_2  and  C_4
REMARK    4  A    between atoms: C_4  and  C_6
REMARK    5  A    between atoms: C_4  and  N_53
REMARK    6  A    between atoms: C_12  and  C_14
REMARK    7  A    between atoms: C_17  and  C_19
REMARK    8  A    between atoms: C_22  and  C_25
REMARK    9  A    between atoms: C_28  and  C_31
REMARK   10  A    between atoms: C_34  and  C_36
REMARK   11  A    between atoms: C_41  and  C_43
REMARK   12  A    between atoms: C_43  and  C_45
REMARK   13  A    between atoms: C_43  and  N_48
REMARK   14  A    between atoms: C_45  and  C_46
REMARK   15  A    between atoms: C_45  and  C_47
REMARK   16  A    between atoms: C_49  and  O_51
REMARK   17  A    between atoms: O_51  and  C_52
REMARK   18  A    between atoms: C_54  and  O_56
REMARK   19  A    between atoms: O_56  and  C_57
REMARK                            x       y       z     vdW  Elec       q    Type
REMARK                         _______ _______ _______ _____ _____    ______ ____
ROOT
ATOM      1  C   UNL     1       5.519   2.529  27.866  0.00  0.00    -0.000 A 
ATOM      2  C   UNL     1       4.187   2.462  27.440  0.00  0.00    +0.010 A 
ATOM      3  C   UNL     1       3.374   1.362  27.783  0.00  0.00    +0.009 A 
ATOM      4  C   UNL     1       3.873   0.288  28.542  0.00  0.00    -0.018 A 
ATOM      5  C   UNL     1       5.169   0.445  29.069  0.00  0.00    +0.009 A 
ATOM      6  C   UNL     1       5.975   1.541  28.739  0.00  0.00    +0.010 A 
ENDROOT
BRANCH   1  10
ATOM      7  C   UNL     1       7.978   4.551  26.074  0.00  0.00    +0.128 A 
ATOM      8  N   UNL     1       7.218   3.411  26.226  0.00  0.00    -0.340 N 
ATOM      9  H   UNL     1       7.207   2.629  25.589  0.00  0.00    +0.167 HD
ATOM     10  C   UNL     1       6.454   3.534  27.361  0.00  0.00    +0.066 A 
ATOM     11  C   UNL     1       6.847   4.756  27.879  0.00  0.00    +0.139 A 
ATOM     12  N   UNL     1       7.757   5.387  27.069  0.00  0.00    -0.238 NA
BRANCH   7  15
ATOM     13  C   UNL     1       8.110   3.227  23.001  0.00  0.00    +0.237 C 
ATOM     14  N   UNL     1       8.227   4.455  23.643  0.00  0.00    -0.290 N 
ATOM     15  C   UNL     1       8.896   4.780  24.906  0.00  0.00    +0.142 C 
ATOM     16  C   UNL     1       9.265   6.275  24.794  0.00  0.00    +0.032 C 
ATOM     17  C   UNL     1       8.856   6.698  23.386  0.00  0.00    +0.021 C 
ATOM     18  C   UNL     1       7.830   5.668  22.956  0.00  0.00    +0.108 C 
ATOM     19  O   UNL     1       7.635   3.186  21.863  0.00  0.00    -0.274 OA
BRANCH  13  20
ATOM     20  C   UNL     1       8.674   1.940  23.687  0.00  0.00    +0.165 C 
BRANCH  20  21
ATOM     21  N   UNL     1       7.673   0.879  23.648  0.00  0.00    -0.270 N 
ATOM     22  H   UNL     1       7.177   0.674  22.790  0.00  0.00    +0.153 HD
ATOM     23  C   UNL     1       7.171   0.281  24.763  0.00  0.00    +0.401 C 
ATOM     24  O   UNL     1       7.640   0.363  25.888  0.00  0.00    -0.226 OA
BRANCH  23  25
ATOM     25  O   UNL     1       6.035  -0.383  24.440  0.00  0.00    -0.454 OA
ATOM     26  C   UNL     1       5.452  -1.081  25.540  0.00  0.00    +0.282 C 
ENDBRANCH  23  25
ENDBRANCH  20  21
BRANCH  20  28
ATOM     27  C   UNL     1      10.896   0.633  24.077  0.00  0.00    +0.009 C 
ATOM     28  C   UNL     1      10.028   1.416  23.084  0.00  0.00    +0.012 C 
ATOM     29  C   UNL     1       9.781   0.502  21.869  0.00  0.00    +0.009 C 
ENDBRANCH  20  28
ENDBRANCH  13  20
ENDBRANCH   7  15
ENDBRANCH   1  10
BRANCH   4  30
ATOM     30  C   UNL     1       3.190  -1.036  28.631  0.00  0.00    -0.018 A 
ATOM     31  C   UNL     1       2.136  -1.373  27.761  0.00  0.00    +0.009 A 
ATOM     32  C   UNL     1       1.710  -2.707  27.585  0.00  0.00    +0.010 A 
ATOM     33  C   UNL     1       2.316  -3.755  28.285  0.00  0.00    -0.000 A 
ATOM     34  C   UNL     1       3.273  -3.412  29.251  0.00  0.00    +0.010 A 
ATOM     35  C   UNL     1       3.686  -2.077  29.432  0.00  0.00    +0.009 A 
BRANCH  33  36
ATOM     36  C   UNL     1       2.026  -5.170  27.982  0.00  0.00    +0.066 A 
ATOM     37  N   UNL     1       1.551  -5.638  26.764  0.00  0.00    -0.340 N 
ATOM     38  H   UNL     1       1.379  -5.050  25.962  0.00  0.00    +0.167 HD
ATOM     39  C   UNL     1       1.687  -7.024  26.723  0.00  0.00    +0.128 A 
ATOM     40  N   UNL     1       1.984  -7.461  27.934  0.00  0.00    -0.238 NA
ATOM     41  C   UNL     1       2.261  -6.336  28.687  0.00  0.00    +0.139 A 
BRANCH  39  42
ATOM     42  C   UNL     1       1.938  -7.733  25.411  0.00  0.00    +0.142 C 
ATOM     43  N   UNL     1       2.354  -7.002  24.180  0.00  0.00    -0.290 N 
ATOM     44  C   UNL     1       3.431  -6.244  23.757  0.00  0.00    +0.237 C 
ATOM     45  O   UNL     1       3.542  -6.037  22.531  0.00  0.00    -0.274 OA
ATOM     46  C   UNL     1       1.558  -7.500  23.044  0.00  0.00    +0.108 C 
ATOM     47  C   UNL     1       0.691  -8.633  23.540  0.00  0.00    +0.021 C 
ATOM     48  C   UNL     1       0.548  -8.311  25.002  0.00  0.00    +0.032 C 
BRANCH  44  49
ATOM     49  C   UNL     1       4.604  -5.681  24.595  0.00  0.00    +0.165 C 
BRANCH  49  50
ATOM     50  N   UNL     1       5.190  -6.536  25.611  0.00  0.00    -0.270 N 
ATOM     51  H   UNL     1       4.931  -7.508  25.646  0.00  0.00    +0.153 HD
ATOM     52  C   UNL     1       5.485  -5.982  26.835  0.00  0.00    +0.401 C 
ATOM     53  O   UNL     1       5.565  -4.782  27.067  0.00  0.00    -0.226 OA
BRANCH  52  54
ATOM     54  O   UNL     1       5.612  -6.964  27.757  0.00  0.00    -0.454 OA
ATOM     55  C   UNL     1       5.998  -6.513  29.056  0.00  0.00    +0.282 C 
ENDBRANCH  52  54
ENDBRANCH  49  50
BRANCH  49  56
ATOM     56  C   UNL     1       5.645  -4.824  23.829  0.00  0.00    +0.012 C 
ATOM     57  C   UNL     1       5.008  -3.655  23.067  0.00  0.00    +0.009 C 
ATOM     58  C   UNL     1       6.549  -5.649  22.924  0.00  0.00    +0.009 C 
ENDBRANCH  49  56
ENDBRANCH  44  49
ENDBRANCH  39  42
ENDBRANCH  33  36
ENDBRANCH   4  30
TORSDOF 13
ENDMDL
MODEL 3
REMARK VINA RESULT:      -6.2      2.416     11.356
REMARK  Name = 
REMARK  19 active torsions:
REMARK  status: ('A' for Active; 'I' for Inactive)
REMARK    1  A    between atoms: C_1  and  C_2
REMARK    2  A    between atoms: C_2  and  C_3
REMARK    3  A    between atoms: C_2  and  C_4
REMARK    4  A    between atoms: C_4  and  C_6
REMARK    5  A    between atoms: C_4  and  N_53
REMARK    6  A    between atoms: C_12  and  C_14
REMARK    7  A    between atoms: C_17  and  C_19
REMARK    8  A    between atoms: C_22  and  C_25
REMARK    9  A    between atoms: C_28  and  C_31
REMARK   10  A    between atoms: C_34  and  C_36
REMARK   11  A    between atoms: C_41  and  C_43
REMARK   12  A    between atoms: C_43  and  C_45
REMARK   13  A    between atoms: C_43  and  N_48
REMARK   14  A    between atoms: C_45  and  C_46
REMARK   15  A    between atoms: C_45  and  C_47
REMARK   16  A    between atoms: C_49  and  O_51
REMARK   17  A    between atoms: O_51  and  C_52
REMARK   18  A    between atoms: C_54  and  O_56
REMARK   19  A    between atoms: O_56  and  C_57
REMARK                            x       y       z     vdW  Elec       q    Type
REMARK                         _______ _______ _______ _____ _____    ______ ____
ROOT
ATOM      1  C   UNL     1       2.477  -1.420  28.634  0.00  0.00    -0.000 A 
ATOM      2  C   UNL     1       3.703  -1.239  29.284  0.00  0.00    +0.010 A 
ATOM      3  C   UNL     1       4.350   0.014  29.272  0.00  0.00    +0.009 A 
ATOM      4  C   UNL     1       3.802   1.116  28.591  0.00  0.00    -0.018 A 
ATOM      5  C   UNL     1       2.509   0.944  28.064  0.00  0.00    +0.009 A 
ATOM      6  C   UNL     1       1.859  -0.296  28.084  0.00  0.00    +0.010 A 
ENDROOT
BRANCH   1  10
ATOM      7  C   UNL     1       1.677  -4.949  28.133  0.00  0.00    +0.128 A 
ATOM      8  N   UNL     1       2.575  -3.917  28.305  0.00  0.00    -0.340 N 
ATOM      9  H   UNL     1       3.578  -4.018  28.353  0.00  0.00    +0.167 HD
ATOM     10  C   UNL     1       1.879  -2.740  28.439  0.00  0.00    +0.066 A 
ATOM     11  C   UNL     1       0.560  -3.130  28.281  0.00  0.00    +0.139 A 
ATOM     12  N   UNL     1       0.443  -4.488  28.126  0.00  0.00    -0.238 NA
BRANCH   7  15
ATOM     13  C   UNL     1       4.630  -6.414  27.543  0.00  0.00    +0.237 C 
ATOM     14  N   UNL     1       3.506  -6.559  28.349  0.00  0.00    -0.290 N 
ATOM     15  C   UNL     1       2.092  -6.388  28.006  0.00  0.00    +0.142 C 
ATOM     16  C   UNL     1       1.322  -7.263  29.018  0.00  0.00    +0.032 C 
ATOM     17  C   UNL     1       2.390  -7.978  29.842  0.00  0.00    +0.021 C 
ATOM     18  C   UNL     1       3.638  -7.135  29.672  0.00  0.00    +0.108 C 
ATOM     19  O   UNL     1       5.733  -6.751  27.982  0.00  0.00    -0.274 OA
BRANCH  13  20
ATOM     20  C   UNL     1       4.464  -5.930  26.065  0.00  0.00    +0.165 C 
BRANCH  20  21
ATOM     21  N   UNL     1       5.589  -5.078  25.694  0.00  0.00    -0.270 N 
ATOM     22  H   UNL     1       6.450  -5.487  25.355  0.00  0.00    +0.153 HD
ATOM     23  C   UNL     1       5.657  -3.753  25.996  0.00  0.00    +0.401 C 
ATOM     24  O   UNL     1       4.726  -3.061  26.380  0.00  0.00    -0.226 OA
BRANCH  23  25
ATOM     25  O   UNL     1       6.934  -3.326  25.852  0.00  0.00    -0.454 OA
ATOM     26  C   UNL     1       7.768  -4.251  25.156  0.00  0.00    +0.282 C 
ENDBRANCH  23  25
ENDBRANCH  20  21
BRANCH  20  28
ATOM     27  C   UNL     1       2.851  -7.538  24.796  0.00  0.00    +0.009 C 
ATOM     28  C   UNL     1       4.301  -7.085  25.011  0.00  0.00    +0.012 C 
ATOM     29  C   UNL     1       4.862  -6.670  23.638  0.00  0.00    +0.009 C 
ENDBRANCH  20  28
ENDBRANCH  13  20
ENDBRANCH   7  15
ENDBRANCH   1  10
BRANCH   4  30
ATOM     30  C   UNL     1       4.590   2.336  28.246  0.00  0.00    -0.018 A 
ATOM     31  C   UNL     1       5.959   2.432  28.556  0.00  0.00    +0.009 A 
ATOM     32  C   UNL     1       6.796   3.393  27.951  0.00  0.00    +0.010 A 
ATOM     33  C   UNL     1       6.290   4.306  27.020  0.00  0.00    -0.000 A 
ATOM     34  C   UNL     1       4.904   4.304  26.809  0.00  0.00    +0.010 A 
ATOM     35  C   UNL     1       4.070   3.349  27.425  0.00  0.00    +0.009 A 
BRANCH  33  36
ATOM     36  C   UNL     1       7.170   5.191  26.233  0.00  0.00    +0.066 A 
ATOM     37  N   UNL     1       8.466   4.878  25.845  0.00  0.00    -0.340 N 
ATOM     38  H   UNL     1       8.920   4.000  26.050  0.00  0.00    +0.167 HD
ATOM     39  C   UNL     1       8.882   5.782  24.870  0.00  0.00    +0.128 A 
ATOM     40  N   UNL     1       8.017   6.779  24.814  0.00  0.00    -0.238 NA
ATOM     41  C   UNL     1       6.940   6.392  25.588  0.00  0.00    +0.139 A 
BRANCH  39  42
ATOM     42  C   UNL     1       9.853   5.356  23.791  0.00  0.00    +0.142 C 
ATOM     43  N   UNL     1      10.513   4.020  23.799  0.00  0.00    -0.290 N 
ATOM     44  C   UNL     1      10.132   2.693  23.713  0.00  0.00    +0.237 C 
ATOM     45  O   UNL     1      11.024   1.854  23.465  0.00  0.00    -0.274 OA
ATOM     46  C   UNL     1      11.943   4.198  23.492  0.00  0.00    +0.108 C 
ATOM     47  C   UNL     1      12.179   5.659  23.189  0.00  0.00    +0.021 C 
ATOM     48  C   UNL     1      11.064   6.328  23.945  0.00  0.00    +0.032 C 
BRANCH  44  49
ATOM     49  C   UNL     1       8.709   2.089  23.786  0.00  0.00    +0.165 C 
BRANCH  49  50
ATOM     50  N   UNL     1       8.216   1.660  25.082  0.00  0.00    -0.270 N 
ATOM     51  H   UNL     1       8.495   2.164  25.907  0.00  0.00    +0.153 HD
ATOM     52  C   UNL     1       7.999   0.317  25.283  0.00  0.00    +0.401 C 
ATOM     53  O   UNL     1       7.913  -0.525  24.398  0.00  0.00    -0.226 OA
BRANCH  52  54
ATOM     54  O   UNL     1       7.959   0.059  26.610  0.00  0.00    -0.454 OA
ATOM     55  C   UNL     1       8.882  -0.939  27.049  0.00  0.00    +0.282 C 
ENDBRANCH  52  54
ENDBRANCH  49  50
BRANCH  49  56
ATOM     56  C   UNL     1       7.630   2.766  22.903  0.00  0.00    +0.012 C 
ATOM     57  C   UNL     1       6.251   2.807  23.574  0.00  0.00    +0.009 C 
ATOM     58  C   UNL     1       7.547   2.176  21.502  0.00  0.00    +0.009 C 
ENDBRANCH  49  56
ENDBRANCH  44  49
ENDBRANCH  39  42
ENDBRANCH  33  36
ENDBRANCH   4  30
TORSDOF 13
ENDMDL
MODEL 4
REMARK VINA RESULT:      -5.6      2.484     11.285
REMARK  Name = 
REMARK  19 active torsions:
REMARK  status: ('A' for Active; 'I' for Inactive)
REMARK    1  A    between atoms: C_1  and  C_2
REMARK    2  A    between atoms: C_2  and  C_3
REMARK    3  A    between atoms: C_2  and  C_4
REMARK    4  A    between atoms: C_4  and  C_6
REMARK    5  A    between atoms: C_4  and  N_53
REMARK    6  A    between atoms: C_12  and  C_14
REMARK    7  A    between atoms: C_17  and  C_19
REMARK    8  A    between atoms: C_22  and  C_25
REMARK    9  A    between atoms: C_28  and  C_31
REMARK   10  A    between atoms: C_34  and  C_36
REMARK   11  A    between atoms: C_41  and  C_43
REMARK   12  A    between atoms: C_43  and  C_45
REMARK   13  A    between atoms: C_43  and  N_48
REMARK   14  A    between atoms: C_45  and  C_46
REMARK   15  A    between atoms: C_45  and  C_47
REMARK   16  A    between atoms: C_49  and  O_51
REMARK   17  A    between atoms: O_51  and  C_52
REMARK   18  A    between atoms: C_54  and  O_56
REMARK   19  A    between atoms: O_56  and  C_57
REMARK                            x       y       z     vdW  Elec       q    Type
REMARK                         _______ _______ _______ _____ _____    ______ ____
ROOT
ATOM      1  C   UNL     1       1.532  -1.203  28.812  0.00  0.00    -0.000 A 
ATOM      2  C   UNL     1       2.527  -0.458  29.455  0.00  0.00    +0.010 A 
ATOM      3  C   UNL     1       2.899   0.815  28.976  0.00  0.00    +0.009 A 
ATOM      4  C   UNL     1       2.304   1.371  27.829  0.00  0.00    -0.018 A 
ATOM      5  C   UNL     1       1.217   0.662  27.284  0.00  0.00    +0.009 A 
ATOM      6  C   UNL     1       0.838  -0.597  27.764  0.00  0.00    +0.010 A 
ENDROOT
BRANCH   1  10
ATOM      7  C   UNL     1       1.130  -4.831  28.963  0.00  0.00    +0.128 A 
ATOM      8  N   UNL     1       1.514  -3.675  28.318  0.00  0.00    -0.340 N 
ATOM      9  H   UNL     1       1.937  -3.630  27.403  0.00  0.00    +0.167 HD
ATOM     10  C   UNL     1       1.265  -2.602  29.140  0.00  0.00    +0.066 A 
ATOM     11  C   UNL     1       0.673  -3.183  30.249  0.00  0.00    +0.139 A 
ATOM     12  N   UNL     1       0.623  -4.550  30.146  0.00  0.00    -0.238 NA
BRANCH   7  15
ATOM     13  C   UNL     1       3.627  -6.250  27.241  0.00  0.00    +0.237 C 
ATOM     14  N   UNL     1       2.729  -6.543  28.262  0.00  0.00    -0.290 N 
ATOM     15  C   UNL     1       1.309  -6.201  28.373  0.00  0.00    +0.142 C 
ATOM     16  C   UNL     1       0.707  -7.274  29.306  0.00  0.00    +0.032 C 
ATOM     17  C   UNL     1       1.843  -8.249  29.601  0.00  0.00    +0.021 C 
ATOM     18  C   UNL     1       3.110  -7.467  29.312  0.00  0.00    +0.108 C 
ATOM     19  O   UNL     1       4.752  -6.758  27.264  0.00  0.00    -0.274 OA
BRANCH  13  20
ATOM     20  C   UNL     1       3.164  -5.369  26.034  0.00  0.00    +0.165 C 
BRANCH  20  21
ATOM     21  N   UNL     1       4.247  -4.481  25.626  0.00  0.00    -0.270 N 
ATOM     22  H   UNL     1       5.167  -4.853  25.428  0.00  0.00    +0.153 HD
ATOM     23  C   UNL     1       4.179  -3.125  25.717  0.00  0.00    +0.401 C 
ATOM     24  O   UNL     1       3.163  -2.474  25.908  0.00  0.00    -0.226 OA
BRANCH  23  25
ATOM     25  O   UNL     1       5.426  -2.606  25.611  0.00  0.00    -0.454 OA
ATOM     26  C   UNL     1       5.921  -2.062  26.833  0.00  0.00    +0.282 C 
ENDBRANCH  23  25
ENDBRANCH  20  21
BRANCH  20  28
ATOM     27  C   UNL     1       1.179  -5.906  24.433  0.00  0.00    +0.009 C 
ATOM     28  C   UNL     1       2.644  -6.181  24.792  0.00  0.00    +0.012 C 
ATOM     29  C   UNL     1       3.489  -5.884  23.539  0.00  0.00    +0.009 C 
ENDBRANCH  20  28
ENDBRANCH  13  20
ENDBRANCH   7  15
ENDBRANCH   1  10
BRANCH   4  30
ATOM     30  C   UNL     1       2.890   2.523  27.082  0.00  0.00    -0.018 A 
ATOM     31  C   UNL     1       3.961   3.267  27.611  0.00  0.00    +0.009 A 
ATOM     32  C   UNL     1       4.750   4.116  26.807  0.00  0.00    +0.010 A 
ATOM     33  C   UNL     1       4.489   4.263  25.441  0.00  0.00    -0.000 A 
ATOM     34  C   UNL     1       3.342   3.632  24.937  0.00  0.00    +0.010 A 
ATOM     35  C   UNL     1       2.550   2.794  25.746  0.00  0.00    +0.009 A 
BRANCH  33  36
ATOM     36  C   UNL     1       5.406   4.988  24.541  0.00  0.00    +0.066 A 
ATOM     37  N   UNL     1       6.780   5.083  24.719  0.00  0.00    -0.340 N 
ATOM     38  H   UNL     1       7.282   4.643  25.476  0.00  0.00    +0.167 HD
ATOM     39  C   UNL     1       7.361   5.557  23.545  0.00  0.00    +0.128 A 
ATOM     40  N   UNL     1       6.408   5.995  22.742  0.00  0.00    -0.238 NA
ATOM     41  C   UNL     1       5.216   5.588  23.310  0.00  0.00    +0.139 A 
BRANCH  39  42
ATOM     42  C   UNL     1       8.760   5.133  23.154  0.00  0.00    +0.142 C 
ATOM     43  N   UNL     1       9.476   4.024  23.847  0.00  0.00    -0.290 N 
ATOM     44  C   UNL     1       9.319   2.662  24.027  0.00  0.00    +0.237 C 
ATOM     45  O   UNL     1      10.306   2.019  24.442  0.00  0.00    -0.274 OA
ATOM     46  C   UNL     1      10.859   4.454  24.119  0.00  0.00    +0.108 C 
ATOM     47  C   UNL     1      11.055   5.821  23.504  0.00  0.00    +0.021 C 
ATOM     48  C   UNL     1       9.654   6.368  23.485  0.00  0.00    +0.032 C 
BRANCH  44  49
ATOM     49  C   UNL     1       8.094   1.777  23.689  0.00  0.00    +0.165 C 
BRANCH  49  50
ATOM     50  N   UNL     1       8.336   0.483  23.077  0.00  0.00    -0.270 N 
ATOM     51  H   UNL     1       8.682  -0.274  23.643  0.00  0.00    +0.153 HD
ATOM     52  C   UNL     1       8.758   0.453  21.768  0.00  0.00    +0.401 C 
ATOM     53  O   UNL     1       8.685   1.387  20.980  0.00  0.00    -0.226 OA
BRANCH  52  54
ATOM     54  O   UNL     1       9.325  -0.747  21.504  0.00  0.00    -0.454 OA
ATOM     55  C   UNL     1      10.214  -1.220  22.516  0.00  0.00    +0.282 C 
ENDBRANCH  52  54
ENDBRANCH  49  50
BRANCH  49  56
ATOM     56  C   UNL     1       6.946   1.767  24.731  0.00  0.00    +0.012 C 
ATOM     57  C   UNL     1       7.441   1.503  26.159  0.00  0.00    +0.009 C 
ATOM     58  C   UNL     1       5.807   0.829  24.356  0.00  0.00    +0.009 C 
ENDBRANCH  49  56
ENDBRANCH  44  49
ENDBRANCH  39  42
ENDBRANCH  33  36
ENDBRANCH   4  30
TORSDOF 13
ENDMDL
MODEL 5
REMARK VINA RESULT:      -5.5      1.863      2.514
REMARK  Name = 
REMARK  19 active torsions:
REMARK  status: ('A' for Active; 'I' for Inactive)
REMARK    1  A    between atoms: C_1  and  C_2
REMARK    2  A    between atoms: C_2  and  C_3
REMARK    3  A    between atoms: C_2  and  C_4
REMARK    4  A    between atoms: C_4  and  C_6
REMARK    5  A    between atoms: C_4  and  N_53
REMARK    6  A    between atoms: C_12  and  C_14
REMARK    7  A    between atoms: C_17  and  C_19
REMARK    8  A    between atoms: C_22  and  C_25
REMARK    9  A    between atoms: C_28  and  C_31
REMARK   10  A    between atoms: C_34  and  C_36
REMARK   11  A    between atoms: C_41  and  C_43
REMARK   12  A    between atoms: C_43  and  C_45
REMARK   13  A    between atoms: C_43  and  N_48
REMARK   14  A    between atoms: C_45  and  C_46
REMARK   15  A    between atoms: C_45  and  C_47
REMARK   16  A    between atoms: C_49  and  O_51
REMARK   17  A    between atoms: O_51  and  C_52
REMARK   18  A    between atoms: C_54  and  O_56
REMARK   19  A    between atoms: O_56  and  C_57
REMARK                            x       y       z     vdW  Elec       q    Type
REMARK                         _______ _______ _______ _____ _____    ______ ____
ROOT
ATOM      1  C   UNL     1       8.872   0.726  24.287  0.00  0.00    -0.000 A 
ATOM      2  C   UNL     1       9.131  -0.031  25.435  0.00  0.00    +0.010 A 
ATOM      3  C   UNL     1       8.762  -1.391  25.502  0.00  0.00    +0.009 A 
ATOM      4  C   UNL     1       8.104  -2.026  24.434  0.00  0.00    -0.018 A 
ATOM      5  C   UNL     1       7.979  -1.282  23.246  0.00  0.00    +0.009 A 
ATOM      6  C   UNL     1       8.354   0.065  23.173  0.00  0.00    +0.010 A 
ENDROOT
BRANCH   1  10
ATOM      7  C   UNL     1       8.635   4.364  24.516  0.00  0.00    +0.128 A 
ATOM      8  N   UNL     1       8.137   3.096  24.728  0.00  0.00    -0.340 N 
ATOM      9  H   UNL     1       7.264   2.882  25.185  0.00  0.00    +0.167 HD
ATOM     10  C   UNL     1       9.041   2.178  24.251  0.00  0.00    +0.066 A 
ATOM     11  C   UNL     1      10.042   2.967  23.710  0.00  0.00    +0.139 A 
ATOM     12  N   UNL     1       9.801   4.304  23.905  0.00  0.00    -0.238 NA
BRANCH   7  15
ATOM     13  C   UNL     1       5.874   4.875  26.340  0.00  0.00    +0.237 C 
ATOM     14  N   UNL     1       7.164   5.372  26.191  0.00  0.00    -0.290 N 
ATOM     15  C   UNL     1       7.927   5.612  24.963  0.00  0.00    +0.142 C 
ATOM     16  C   UNL     1       8.949   6.710  25.332  0.00  0.00    +0.032 C 
ATOM     17  C   UNL     1       8.627   7.107  26.770  0.00  0.00    +0.021 C 
ATOM     18  C   UNL     1       7.858   5.928  27.334  0.00  0.00    +0.108 C 
ATOM     19  O   UNL     1       5.350   4.887  27.458  0.00  0.00    -0.274 OA
BRANCH  13  20
ATOM     20  C   UNL     1       5.074   4.410  25.079  0.00  0.00    +0.165 C 
BRANCH  20  21
ATOM     21  N   UNL     1       4.471   3.105  25.329  0.00  0.00    -0.270 N 
ATOM     22  H   UNL     1       3.869   2.964  26.130  0.00  0.00    +0.153 HD
ATOM     23  C   UNL     1       4.850   1.968  24.684  0.00  0.00    +0.401 C 
ATOM     24  O   UNL     1       5.539   1.918  23.676  0.00  0.00    -0.226 OA
BRANCH  23  25
ATOM     25  O   UNL     1       4.386   0.892  25.363  0.00  0.00    -0.454 OA
ATOM     26  C   UNL     1       4.326   1.092  26.774  0.00  0.00    +0.282 C 
ENDBRANCH  23  25
ENDBRANCH  20  21
BRANCH  20  28
ATOM     27  C   UNL     1       4.525   6.770  24.118  0.00  0.00    +0.009 C 
ATOM     28  C   UNL     1       3.972   5.421  24.593  0.00  0.00    +0.012 C 
ATOM     29  C   UNL     1       3.145   4.829  23.436  0.00  0.00    +0.009 C 
ENDBRANCH  20  28
ENDBRANCH  13  20
ENDBRANCH   7  15
ENDBRANCH   1  10
BRANCH   4  30
ATOM     30  C   UNL     1       7.385  -3.327  24.576  0.00  0.00    -0.018 A 
ATOM     31  C   UNL     1       6.800  -3.707  25.798  0.00  0.00    +0.009 A 
ATOM     32  C   UNL     1       5.838  -4.736  25.877  0.00  0.00    +0.010 A 
ATOM     33  C   UNL     1       5.432  -5.434  24.735  0.00  0.00    -0.000 A 
ATOM     34  C   UNL     1       6.109  -5.152  23.540  0.00  0.00    +0.010 A 
ATOM     35  C   UNL     1       7.078  -4.132  23.467  0.00  0.00    +0.009 A 
BRANCH  33  36
ATOM     36  C   UNL     1       4.297  -6.376  24.754  0.00  0.00    +0.066 A 
ATOM     37  N   UNL     1       3.746  -6.929  25.902  0.00  0.00    -0.340 N 
ATOM     38  H   UNL     1       4.062  -6.719  26.837  0.00  0.00    +0.167 HD
ATOM     39  C   UNL     1       2.520  -7.510  25.585  0.00  0.00    +0.128 A 
ATOM     40  N   UNL     1       2.399  -7.567  24.271  0.00  0.00    -0.238 NA
ATOM     41  C   UNL     1       3.442  -6.817  23.761  0.00  0.00    +0.139 A 
BRANCH  39  42
ATOM     42  C   UNL     1       1.404  -7.554  26.606  0.00  0.00    +0.142 C 
ATOM     43  N   UNL     1       1.540  -6.943  27.959  0.00  0.00    -0.290 N 
ATOM     44  C   UNL     1       1.723  -5.682  28.496  0.00  0.00    +0.237 C 
ATOM     45  O   UNL     1       1.498  -5.538  29.716  0.00  0.00    -0.274 OA
ATOM     46  C   UNL     1       1.019  -7.891  28.959  0.00  0.00    +0.108 C 
ATOM     47  C   UNL     1       0.452  -9.084  28.224  0.00  0.00    +0.021 C 
ATOM     48  C   UNL     1       1.233  -9.069  26.939  0.00  0.00    +0.032 C 
BRANCH  44  49
ATOM     49  C   UNL     1       2.085  -4.365  27.768  0.00  0.00    +0.165 C 
BRANCH  49  50
ATOM     50  N   UNL     1       1.232  -3.932  26.676  0.00  0.00    -0.270 N 
ATOM     51  H   UNL     1       0.355  -4.401  26.520  0.00  0.00    +0.153 HD
ATOM     52  C   UNL     1       1.830  -3.453  25.534  0.00  0.00    +0.401 C 
ATOM     53  O   UNL     1       2.998  -3.092  25.446  0.00  0.00    -0.226 OA
BRANCH  52  54
ATOM     54  O   UNL     1       0.951  -3.500  24.508  0.00  0.00    -0.454 OA
ATOM     55  C   UNL     1       0.447  -4.805  24.217  0.00  0.00    +0.282 C 
ENDBRANCH  52  54
ENDBRANCH  49  50
BRANCH  49  56
ATOM     56  C   UNL     1       2.588  -3.202  28.662  0.00  0.00    +0.012 C 
ATOM     57  C   UNL     1       1.903  -1.867  28.343  0.00  0.00    +0.009 C 
ATOM     58  C   UNL     1       4.104  -3.061  28.663  0.00  0.00    +0.009 C 
ENDBRANCH  49  56
ENDBRANCH  44  49
ENDBRANCH  39  42
ENDBRANCH  33  36
ENDBRANCH   4  30
TORSDOF 13
ENDMDL
MODEL 6
REMARK VINA RESULT:      -5.3      2.844      5.773
REMARK  Name = 
REMARK  19 active torsions:
REMARK  status: ('A' for Active; 'I' for Inactive)
REMARK    1  A    between atoms: C_1  and  C_2
REMARK    2  A    between atoms: C_2  and  C_3
REMARK    3  A    between atoms: C_2  and  C_4
REMARK    4  A    between atoms: C_4  and  C_6
REMARK    5  A    between atoms: C_4  and  N_53
REMARK    6  A    between atoms: C_12  and  C_14
REMARK    7  A    between atoms: C_17  and  C_19
REMARK    8  A    between atoms: C_22  and  C_25
REMARK    9  A    between atoms: C_28  and  C_31
REMARK   10  A    between atoms: C_34  and  C_36
REMARK   11  A    between atoms: C_41  and  C_43
REMARK   12  A    between atoms: C_43  and  C_45
REMARK   13  A    between atoms: C_43  and  N_48
REMARK   14  A    between atoms: C_45  and  C_46
REMARK   15  A    between atoms: C_45  and  C_47
REMARK   16  A    between atoms: C_49  and  O_51
REMARK   17  A    between atoms: O_51  and  C_52
REMARK   18  A    between atoms: C_54  and  O_56
REMARK   19  A    between atoms: O_56  and  C_57
REMARK                            x       y       z     vdW  Elec       q    Type
REMARK                         _______ _______ _______ _____ _____    ______ ____
ROOT
ATOM      1  C   UNL     1       5.166   2.482  28.078  0.00  0.00    -0.000 A 
ATOM      2  C   UNL     1       3.777   2.484  27.904  0.00  0.00    +0.010 A 
ATOM      3  C   UNL     1       2.986   1.426  28.396  0.00  0.00    +0.009 A 
ATOM      4  C   UNL     1       3.560   0.326  29.057  0.00  0.00    -0.018 A 
ATOM      5  C   UNL     1       4.936   0.414  29.338  0.00  0.00    +0.009 A 
ATOM      6  C   UNL     1       5.723   1.469  28.859  0.00  0.00    +0.010 A 
ENDROOT
BRANCH   1  10
ATOM      7  C   UNL     1       6.991   4.674  25.796  0.00  0.00    +0.128 A 
ATOM      8  N   UNL     1       6.020   3.732  26.063  0.00  0.00    -0.340 N 
ATOM      9  H   UNL     1       5.380   3.346  25.386  0.00  0.00    +0.167 HD
ATOM     10  C   UNL     1       6.042   3.440  27.406  0.00  0.00    +0.066 A 
ATOM     11  C   UNL     1       7.095   4.203  27.880  0.00  0.00    +0.139 A 
ATOM     12  N   UNL     1       7.650   4.979  26.895  0.00  0.00    -0.238 NA
BRANCH   7  15
ATOM     13  C   UNL     1       7.796   3.316  22.842  0.00  0.00    +0.237 C 
ATOM     14  N   UNL     1       6.946   4.275  23.383  0.00  0.00    -0.290 N 
ATOM     15  C   UNL     1       7.212   5.263  24.431  0.00  0.00    +0.142 C 
ATOM     16  C   UNL     1       6.211   6.409  24.169  0.00  0.00    +0.032 C 
ATOM     17  C   UNL     1       5.477   6.031  22.885  0.00  0.00    +0.021 C 
ATOM     18  C   UNL     1       5.662   4.531  22.762  0.00  0.00    +0.108 C 
ATOM     19  O   UNL     1       7.428   2.672  21.855  0.00  0.00    -0.274 OA
BRANCH  13  20
ATOM     20  C   UNL     1       9.237   3.144  23.425  0.00  0.00    +0.165 C 
BRANCH  20  21
ATOM     21  N   UNL     1       9.758   4.441  23.845  0.00  0.00    -0.270 N 
ATOM     22  H   UNL     1       9.128   5.171  24.150  0.00  0.00    +0.153 HD
ATOM     23  C   UNL     1      11.044   4.836  23.634  0.00  0.00    +0.401 C 
ATOM     24  O   UNL     1      11.968   4.108  23.305  0.00  0.00    -0.226 OA
BRANCH  23  25
ATOM     25  O   UNL     1      11.131   6.178  23.799  0.00  0.00    -0.454 OA
ATOM     26  C   UNL     1      10.579   6.638  25.031  0.00  0.00    +0.282 C 
ENDBRANCH  23  25
ENDBRANCH  20  21
BRANCH  20  28
ATOM     27  C   UNL     1       8.090   1.264  24.819  0.00  0.00    +0.009 C 
ATOM     28  C   UNL     1       9.347   2.117  24.610  0.00  0.00    +0.012 C 
ATOM     29  C   UNL     1      10.529   1.151  24.402  0.00  0.00    +0.009 C 
ENDBRANCH  20  28
ENDBRANCH  13  20
ENDBRANCH   7  15
ENDBRANCH   1  10
BRANCH   4  30
ATOM     30  C   UNL     1       2.838  -0.962  29.277  0.00  0.00    -0.018 A 
ATOM     31  C   UNL     1       1.560  -1.185  28.731  0.00  0.00    +0.009 A 
ATOM     32  C   UNL     1       1.010  -2.480  28.623  0.00  0.00    +0.010 A 
ATOM     33  C   UNL     1       1.713  -3.602  29.073  0.00  0.00    -0.000 A 
ATOM     34  C   UNL     1       2.925  -3.373  29.740  0.00  0.00    +0.010 A 
ATOM     35  C   UNL     1       3.466  -2.078  29.855  0.00  0.00    +0.009 A 
BRANCH  33  36
ATOM     36  C   UNL     1       1.250  -4.977  28.801  0.00  0.00    +0.066 A 
ATOM     37  N   UNL     1       1.271  -5.588  27.555  0.00  0.00    -0.340 N 
ATOM     38  H   UNL     1       1.628  -5.150  26.718  0.00  0.00    +0.167 HD
ATOM     39  C   UNL     1       1.065  -6.957  27.714  0.00  0.00    +0.128 A 
ATOM     40  N   UNL     1       0.672  -7.189  28.953  0.00  0.00    -0.238 NA
ATOM     41  C   UNL     1       0.850  -6.002  29.638  0.00  0.00    +0.139 A 
BRANCH  39  42
ATOM     42  C   UNL     1       1.693  -7.945  26.756  0.00  0.00    +0.142 C 
ATOM     43  N   UNL     1       1.998  -7.595  25.339  0.00  0.00    -0.290 N 
ATOM     44  C   UNL     1       2.814  -6.709  24.660  0.00  0.00    +0.237 C 
ATOM     45  O   UNL     1       3.003  -6.918  23.443  0.00  0.00    -0.274 OA
ATOM     46  C   UNL     1       1.554  -8.701  24.474  0.00  0.00    +0.108 C 
ATOM     47  C   UNL     1       1.048  -9.815  25.360  0.00  0.00    +0.021 C 
ATOM     48  C   UNL     1       0.628  -9.074  26.599  0.00  0.00    +0.032 C 
BRANCH  44  49
ATOM     49  C   UNL     1       3.628  -5.518  25.222  0.00  0.00    +0.165 C 
BRANCH  49  50
ATOM     50  N   UNL     1       5.026  -5.738  25.544  0.00  0.00    -0.270 N 
ATOM     51  H   UNL     1       5.560  -6.397  25.002  0.00  0.00    +0.153 HD
ATOM     52  C   UNL     1       5.412  -5.643  26.861  0.00  0.00    +0.401 C 
ATOM     53  O   UNL     1       4.757  -5.119  27.754  0.00  0.00    -0.226 OA
BRANCH  52  54
ATOM     54  O   UNL     1       6.597  -6.272  27.032  0.00  0.00    -0.454 OA
ATOM     55  C   UNL     1       7.740  -5.418  26.959  0.00  0.00    +0.282 C 
ENDBRANCH  52  54
ENDBRANCH  49  50
BRANCH  49  56
ATOM     56  C   UNL     1       3.348  -4.133  24.583  0.00  0.00    +0.012 C 
ATOM     57  C   UNL     1       4.571  -3.551  23.863  0.00  0.00    +0.009 C 
ATOM     58  C   UNL     1       2.754  -3.132  25.564  0.00  0.00    +0.009 C 
ENDBRANCH  49  56
ENDBRANCH  44  49
ENDBRANCH  39  42
ENDBRANCH  33  36
ENDBRANCH   4  30
TORSDOF 13
ENDMDL
MODEL 7
REMARK VINA RESULT:      -5.2      2.697     11.372
REMARK  Name = 
REMARK  19 active torsions:
REMARK  status: ('A' for Active; 'I' for Inactive)
REMARK    1  A    between atoms: C_1  and  C_2
REMARK    2  A    between atoms: C_2  and  C_3
REMARK    3  A    between atoms: C_2  and  C_4
REMARK    4  A    between atoms: C_4  and  C_6
REMARK    5  A    between atoms: C_4  and  N_53
REMARK    6  A    between atoms: C_12  and  C_14
REMARK    7  A    between atoms: C_17  and  C_19
REMARK    8  A    between atoms: C_22  and  C_25
REMARK    9  A    between atoms: C_28  and  C_31
REMARK   10  A    between atoms: C_34  and  C_36
REMARK   11  A    between atoms: C_41  and  C_43
REMARK   12  A    between atoms: C_43  and  C_45
REMARK   13  A    between atoms: C_43  and  N_48
REMARK   14  A    between atoms: C_45  and  C_46
REMARK   15  A    between atoms: C_45  and  C_47
REMARK   16  A    between atoms: C_49  and  O_51
REMARK   17  A    between atoms: O_51  and  C_52
REMARK   18  A    between atoms: C_54  and  O_56
REMARK   19  A    between atoms: O_56  and  C_57
REMARK                            x       y       z     vdW  Elec       q    Type
REMARK                         _______ _______ _______ _____ _____    ______ ____
ROOT
ATOM      1  C   UNL     1       2.447  -2.323  27.780  0.00  0.00    -0.000 A 
ATOM      2  C   UNL     1       3.744  -2.344  28.306  0.00  0.00    +0.010 A 
ATOM      3  C   UNL     1       4.325  -1.177  28.844  0.00  0.00    +0.009 A 
ATOM      4  C   UNL     1       3.636   0.049  28.852  0.00  0.00    -0.018 A 
ATOM      5  C   UNL     1       2.289   0.012  28.444  0.00  0.00    +0.009 A 
ATOM      6  C   UNL     1       1.707  -1.148  27.919  0.00  0.00    +0.010 A 
ENDROOT
BRANCH   1  10
ATOM      7  C   UNL     1       1.538  -4.925  25.383  0.00  0.00    +0.128 A 
ATOM      8  N   UNL     1       2.296  -3.843  25.775  0.00  0.00    -0.340 N 
ATOM      9  H   UNL     1       3.047  -3.432  25.240  0.00  0.00    +0.167 HD
ATOM     10  C   UNL     1       1.888  -3.443  27.025  0.00  0.00    +0.066 A 
ATOM     11  C   UNL     1       0.836  -4.298  27.305  0.00  0.00    +0.139 A 
ATOM     12  N   UNL     1       0.648  -5.222  26.309  0.00  0.00    -0.238 NA
BRANCH   7  15
ATOM     13  C   UNL     1       4.106  -6.703  24.175  0.00  0.00    +0.237 C 
ATOM     14  N   UNL     1       2.717  -6.742  24.247  0.00  0.00    -0.290 N 
ATOM     15  C   UNL     1       1.750  -5.653  24.085  0.00  0.00    +0.142 C 
ATOM     16  C   UNL     1       0.444  -6.338  23.630  0.00  0.00    +0.032 C 
ATOM     17  C   UNL     1       0.788  -7.815  23.462  0.00  0.00    +0.021 C 
ATOM     18  C   UNL     1       2.035  -8.019  24.300  0.00  0.00    +0.108 C 
ATOM     19  O   UNL     1       4.739  -7.762  24.190  0.00  0.00    -0.274 OA
BRANCH  13  20
ATOM     20  C   UNL     1       4.831  -5.333  23.970  0.00  0.00    +0.165 C 
BRANCH  20  21
ATOM     21  N   UNL     1       6.000  -5.257  24.839  0.00  0.00    -0.270 N 
ATOM     22  H   UNL     1       6.932  -5.291  24.446  0.00  0.00    +0.153 HD
ATOM     23  C   UNL     1       5.938  -5.383  26.192  0.00  0.00    +0.401 C 
ATOM     24  O   UNL     1       4.920  -5.329  26.867  0.00  0.00    -0.226 OA
BRANCH  23  25
ATOM     25  O   UNL     1       7.179  -5.627  26.677  0.00  0.00    -0.454 OA
ATOM     26  C   UNL     1       8.183  -4.776  26.126  0.00  0.00    +0.282 C 
ENDBRANCH  23  25
ENDBRANCH  20  21
BRANCH  20  28
ATOM     27  C   UNL     1       5.457  -3.538  22.185  0.00  0.00    +0.009 C 
ATOM     28  C   UNL     1       5.249  -5.028  22.485  0.00  0.00    +0.012 C 
ATOM     29  C   UNL     1       6.553  -5.758  22.113  0.00  0.00    +0.009 C 
ENDBRANCH  20  28
ENDBRANCH  13  20
ENDBRANCH   7  15
ENDBRANCH   1  10
BRANCH   4  30
ATOM     30  C   UNL     1       4.310   1.363  29.072  0.00  0.00    -0.018 A 
ATOM     31  C   UNL     1       5.650   1.433  29.497  0.00  0.00    +0.009 A 
ATOM     32  C   UNL     1       6.408   2.617  29.381  0.00  0.00    +0.010 A 
ATOM     33  C   UNL     1       5.850   3.782  28.846  0.00  0.00    -0.000 A 
ATOM     34  C   UNL     1       4.481   3.756  28.547  0.00  0.00    +0.010 A 
ATOM     35  C   UNL     1       3.723   2.575  28.675  0.00  0.00    +0.009 A 
BRANCH  33  36
ATOM     36  C   UNL     1       6.667   4.971  28.535  0.00  0.00    +0.066 A 
ATOM     37  N   UNL     1       7.756   4.981  27.674  0.00  0.00    -0.340 N 
ATOM     38  H   UNL     1       8.077   4.173  27.162  0.00  0.00    +0.167 HD
ATOM     39  C   UNL     1       8.089   6.301  27.375  0.00  0.00    +0.128 A 
ATOM     40  N   UNL     1       7.432   7.104  28.192  0.00  0.00    -0.238 NA
ATOM     41  C   UNL     1       6.515   6.308  28.851  0.00  0.00    +0.139 A 
BRANCH  39  42
ATOM     42  C   UNL     1       8.686   6.657  26.031  0.00  0.00    +0.142 C 
ATOM     43  N   UNL     1       8.771   5.673  24.914  0.00  0.00    -0.290 N 
ATOM     44  C   UNL     1       7.898   4.951  24.121  0.00  0.00    +0.237 C 
ATOM     45  O   UNL     1       8.359   4.437  23.080  0.00  0.00    -0.274 OA
ATOM     46  C   UNL     1      10.112   5.761  24.310  0.00  0.00    +0.108 C 
ATOM     47  C   UNL     1      10.859   6.886  24.988  0.00  0.00    +0.021 C 
ATOM     48  C   UNL     1      10.188   6.952  26.332  0.00  0.00    +0.032 C 
BRANCH  44  49
ATOM     49  C   UNL     1       6.371   4.761  24.289  0.00  0.00    +0.165 C 
BRANCH  49  50
ATOM     50  N   UNL     1       5.908   3.736  25.206  0.00  0.00    -0.270 N 
ATOM     51  H   UNL     1       6.057   3.855  26.195  0.00  0.00    +0.153 HD
ATOM     52  C   UNL     1       5.929   2.427  24.783  0.00  0.00    +0.401 C 
ATOM     53  O   UNL     1       6.034   2.063  23.618  0.00  0.00    -0.226 OA
BRANCH  52  54
ATOM     54  O   UNL     1       5.879   1.604  25.854  0.00  0.00    -0.454 OA
ATOM     55  C   UNL     1       5.336   0.311  25.586  0.00  0.00    +0.282 C 
ENDBRANCH  52  54
ENDBRANCH  49  50
BRANCH  49  56
ATOM     56  C   UNL     1       5.518   6.055  24.320  0.00  0.00    +0.012 C 
ATOM     57  C   UNL     1       4.613   6.141  25.556  0.00  0.00    +0.009 C 
ATOM     58  C   UNL     1       4.729   6.282  23.038  0.00  0.00    +0.009 C 
ENDBRANCH  49  56
ENDBRANCH  44  49
ENDBRANCH  39  42
ENDBRANCH  33  36
ENDBRANCH   4  30
TORSDOF 13
ENDMDL
MODEL 8
REMARK VINA RESULT:      -5.2      2.719      5.444
REMARK  Name = 
REMARK  19 active torsions:
REMARK  status: ('A' for Active; 'I' for Inactive)
REMARK    1  A    between atoms: C_1  and  C_2
REMARK    2  A    between atoms: C_2  and  C_3
REMARK    3  A    between atoms: C_2  and  C_4
REMARK    4  A    between atoms: C_4  and  C_6
REMARK    5  A    between atoms: C_4  and  N_53
REMARK    6  A    between atoms: C_12  and  C_14
REMARK    7  A    between atoms: C_17  and  C_19
REMARK    8  A    between atoms: C_22  and  C_25
REMARK    9  A    between atoms: C_28  and  C_31
REMARK   10  A    between atoms: C_34  and  C_36
REMARK   11  A    between atoms: C_41  and  C_43
REMARK   12  A    between atoms: C_43  and  C_45
REMARK   13  A    between atoms: C_43  and  N_48
REMARK   14  A    between atoms: C_45  and  C_46
REMARK   15  A    between atoms: C_45  and  C_47
REMARK   16  A    between atoms: C_49  and  O_51
REMARK   17  A    between atoms: O_51  and  C_52
REMARK   18  A    between atoms: C_54  and  O_56
REMARK   19  A    between atoms: O_56  and  C_57
REMARK                            x       y       z     vdW  Elec       q    Type
REMARK                         _______ _______ _______ _____ _____    ______ ____
ROOT
ATOM      1  C   UNL     1       5.584   2.405  28.099  0.00  0.00    -0.000 A 
ATOM      2  C   UNL     1       4.251   2.241  27.704  0.00  0.00    +0.010 A 
ATOM      3  C   UNL     1       3.487   1.154  28.175  0.00  0.00    +0.009 A 
ATOM      4  C   UNL     1       4.037   0.188  29.037  0.00  0.00    -0.018 A 
ATOM      5  C   UNL     1       5.331   0.451  29.524  0.00  0.00    +0.009 A 
ATOM      6  C   UNL     1       6.089   1.535  29.066  0.00  0.00    +0.010 A 
ENDROOT
BRANCH   1  10
ATOM      7  C   UNL     1       7.916   4.326  26.046  0.00  0.00    +0.128 A 
ATOM      8  N   UNL     1       7.192   3.187  26.322  0.00  0.00    -0.340 N 
ATOM      9  H   UNL     1       7.173   2.355  25.751  0.00  0.00    +0.167 HD
ATOM     10  C   UNL     1       6.472   3.385  27.476  0.00  0.00    +0.066 A 
ATOM     11  C   UNL     1       6.856   4.653  27.876  0.00  0.00    +0.139 A 
ATOM     12  N   UNL     1       7.716   5.235  26.979  0.00  0.00    -0.238 NA
BRANCH   7  15
ATOM     13  C   UNL     1       7.809   2.926  23.006  0.00  0.00    +0.237 C 
ATOM     14  N   UNL     1       8.026   4.161  23.608  0.00  0.00    -0.290 N 
ATOM     15  C   UNL     1       8.778   4.479  24.825  0.00  0.00    +0.142 C 
ATOM     16  C   UNL     1       9.218   5.949  24.654  0.00  0.00    +0.032 C 
ATOM     17  C   UNL     1       8.754   6.360  23.260  0.00  0.00    +0.021 C 
ATOM     18  C   UNL     1       7.654   5.376  22.912  0.00  0.00    +0.108 C 
ATOM     19  O   UNL     1       7.271   2.883  21.896  0.00  0.00    -0.274 OA
BRANCH  13  20
ATOM     20  C   UNL     1       8.343   1.627  23.694  0.00  0.00    +0.165 C 
BRANCH  20  21
ATOM     21  N   UNL     1       7.263   0.653  23.818  0.00  0.00    -0.270 N 
ATOM     22  H   UNL     1       6.653   0.463  23.034  0.00  0.00    +0.153 HD
ATOM     23  C   UNL     1       6.853   0.137  25.009  0.00  0.00    +0.401 C 
ATOM     24  O   UNL     1       7.459   0.216  26.066  0.00  0.00    -0.226 OA
BRANCH  23  25
ATOM     25  O   UNL     1       5.637  -0.440  24.851  0.00  0.00    -0.454 OA
ATOM     26  C   UNL     1       5.684  -1.685  24.156  0.00  0.00    +0.282 C 
ENDBRANCH  23  25
ENDBRANCH  20  21
BRANCH  20  28
ATOM     27  C   UNL     1      10.793   0.757  23.888  0.00  0.00    +0.009 C 
ATOM     28  C   UNL     1       9.576   0.965  22.978  0.00  0.00    +0.012 C 
ATOM     29  C   UNL     1       9.206  -0.407  22.384  0.00  0.00    +0.009 C 
ENDBRANCH  20  28
ENDBRANCH  13  20
ENDBRANCH   7  15
ENDBRANCH   1  10
BRANCH   4  30
ATOM     30  C   UNL     1       3.408  -1.144  29.278  0.00  0.00    -0.018 A 
ATOM     31  C   UNL     1       2.014  -1.278  29.420  0.00  0.00    +0.009 A 
ATOM     32  C   UNL     1       1.368  -2.527  29.301  0.00  0.00    +0.010 A 
ATOM     33  C   UNL     1       2.095  -3.694  29.047  0.00  0.00    -0.000 A 
ATOM     34  C   UNL     1       3.494  -3.588  29.039  0.00  0.00    +0.010 A 
ATOM     35  C   UNL     1       4.136  -2.341  29.170  0.00  0.00    +0.009 A 
BRANCH  33  36
ATOM     36  C   UNL     1       1.436  -4.974  28.729  0.00  0.00    +0.066 A 
ATOM     37  N   UNL     1       1.537  -5.637  27.513  0.00  0.00    -0.340 N 
ATOM     38  H   UNL     1       2.092  -5.309  26.736  0.00  0.00    +0.167 HD
ATOM     39  C   UNL     1       1.060  -6.937  27.660  0.00  0.00    +0.128 A 
ATOM     40  N   UNL     1       0.443  -7.039  28.823  0.00  0.00    -0.238 NA
ATOM     41  C   UNL     1       0.728  -5.872  29.507  0.00  0.00    +0.139 A 
BRANCH  39  42
ATOM     42  C   UNL     1       1.636  -8.065  26.832  0.00  0.00    +0.142 C 
ATOM     43  N   UNL     1       1.745  -7.986  25.348  0.00  0.00    -0.290 N 
ATOM     44  C   UNL     1       2.413  -7.215  24.413  0.00  0.00    +0.237 C 
ATOM     45  O   UNL     1       2.469  -7.650  23.244  0.00  0.00    -0.274 OA
ATOM     46  C   UNL     1       1.279  -9.259  24.772  0.00  0.00    +0.108 C 
ATOM     47  C   UNL     1       0.959 -10.200  25.910  0.00  0.00    +0.021 C 
ATOM     48  C   UNL     1       0.640  -9.249  27.031  0.00  0.00    +0.032 C 
BRANCH  44  49
ATOM     49  C   UNL     1       3.203  -5.902  24.630  0.00  0.00    +0.165 C 
BRANCH  49  50
ATOM     50  N   UNL     1       4.618  -5.896  24.304  0.00  0.00    -0.270 N 
ATOM     51  H   UNL     1       5.294  -6.018  25.039  0.00  0.00    +0.153 HD
ATOM     52  C   UNL     1       5.042  -5.096  23.269  0.00  0.00    +0.401 C 
ATOM     53  O   UNL     1       4.317  -4.602  22.414  0.00  0.00    -0.226 OA
BRANCH  52  54
ATOM     54  O   UNL     1       6.374  -4.887  23.375  0.00  0.00    -0.454 OA
ATOM     55  C   UNL     1       7.177  -5.733  22.551  0.00  0.00    +0.282 C 
ENDBRANCH  52  54
ENDBRANCH  49  50
BRANCH  49  56
ATOM     56  C   UNL     1       2.472  -4.589  24.248  0.00  0.00    +0.012 C 
ATOM     57  C   UNL     1       2.469  -3.558  25.383  0.00  0.00    +0.009 C 
ATOM     58  C   UNL     1       1.068  -4.823  23.707  0.00  0.00    +0.009 C 
ENDBRANCH  49  56
ENDBRANCH  44  49
ENDBRANCH  39  42
ENDBRANCH  33  36
ENDBRANCH   4  30
TORSDOF 13
ENDMDL
MODEL 9
REMARK VINA RESULT:      -4.8      2.096     11.111
REMARK  Name = 
REMARK  19 active torsions:
REMARK  status: ('A' for Active; 'I' for Inactive)
REMARK    1  A    between atoms: C_1  and  C_2
REMARK    2  A    between atoms: C_2  and  C_3
REMARK    3  A    between atoms: C_2  and  C_4
REMARK    4  A    between atoms: C_4  and  C_6
REMARK    5  A    between atoms: C_4  and  N_53
REMARK    6  A    between atoms: C_12  and  C_14
REMARK    7  A    between atoms: C_17  and  C_19
REMARK    8  A    between atoms: C_22  and  C_25
REMARK    9  A    between atoms: C_28  and  C_31
REMARK   10  A    between atoms: C_34  and  C_36
REMARK   11  A    between atoms: C_41  and  C_43
REMARK   12  A    between atoms: C_43  and  C_45
REMARK   13  A    between atoms: C_43  and  N_48
REMARK   14  A    between atoms: C_45  and  C_46
REMARK   15  A    between atoms: C_45  and  C_47
REMARK   16  A    between atoms: C_49  and  O_51
REMARK   17  A    between atoms: O_51  and  C_52
REMARK   18  A    between atoms: C_54  and  O_56
REMARK   19  A    between atoms: O_56  and  C_57
REMARK                            x       y       z     vdW  Elec       q    Type
REMARK                         _______ _______ _______ _____ _____    ______ ____
ROOT
ATOM      1  C   UNL     1       6.900  -4.732  25.430  0.00  0.00    -0.000 A 
ATOM      2  C   UNL     1       7.051  -4.518  24.055  0.00  0.00    +0.010 A 
ATOM      3  C   UNL     1       7.841  -3.454  23.572  0.00  0.00    +0.009 A 
ATOM      4  C   UNL     1       8.483  -2.560  24.448  0.00  0.00    -0.018 A 
ATOM      5  C   UNL     1       8.425  -2.878  25.818  0.00  0.00    +0.009 A 
ATOM      6  C   UNL     1       7.651  -3.940  26.299  0.00  0.00    +0.010 A 
ENDROOT
BRANCH   1  10
ATOM      7  C   UNL     1       3.994  -6.730  26.382  0.00  0.00    +0.128 A 
ATOM      8  N   UNL     1       4.588  -5.703  25.679  0.00  0.00    -0.340 N 
ATOM      9  H   UNL     1       4.115  -5.090  25.033  0.00  0.00    +0.167 HD
ATOM     10  C   UNL     1       5.930  -5.681  25.974  0.00  0.00    +0.066 A 
ATOM     11  C   UNL     1       6.067  -6.691  26.910  0.00  0.00    +0.139 A 
ATOM     12  N   UNL     1       4.884  -7.349  27.130  0.00  0.00    -0.238 NA
BRANCH   7  15
ATOM     13  C   UNL     1       1.199  -4.897  26.590  0.00  0.00    +0.237 C 
ATOM     14  N   UNL     1       1.755  -5.917  25.825  0.00  0.00    -0.290 N 
ATOM     15  C   UNL     1       2.537  -7.078  26.258  0.00  0.00    +0.142 C 
ATOM     16  C   UNL     1       2.327  -8.139  25.156  0.00  0.00    +0.032 C 
ATOM     17  C   UNL     1       1.326  -7.528  24.179  0.00  0.00    +0.021 C 
ATOM     18  C   UNL     1       1.412  -6.034  24.422  0.00  0.00    +0.108 C 
ATOM     19  O   UNL     1       0.443  -4.084  26.051  0.00  0.00    -0.274 OA
BRANCH  13  20
ATOM     20  C   UNL     1       1.456  -4.860  28.132  0.00  0.00    +0.165 C 
BRANCH  20  21
ATOM     21  N   UNL     1       1.961  -6.153  28.581  0.00  0.00    -0.270 N 
ATOM     22  H   UNL     1       2.631  -6.663  28.020  0.00  0.00    +0.153 HD
ATOM     23  C   UNL     1       1.412  -6.857  29.609  0.00  0.00    +0.401 C 
ATOM     24  O   UNL     1       0.617  -6.420  30.426  0.00  0.00    -0.226 OA
BRANCH  23  25
ATOM     25  O   UNL     1       1.848  -8.138  29.557  0.00  0.00    -0.454 OA
ATOM     26  C   UNL     1       0.824  -9.099  29.808  0.00  0.00    +0.282 C 
ENDBRANCH  23  25
ENDBRANCH  20  21
BRANCH  20  28
ATOM     27  C   UNL     1       1.887  -2.888  29.782  0.00  0.00    +0.009 C 
ATOM     28  C   UNL     1       2.424  -3.716  28.608  0.00  0.00    +0.012 C 
ATOM     29  C   UNL     1       3.791  -4.284  29.034  0.00  0.00    +0.009 C 
ENDBRANCH  20  28
ENDBRANCH  13  20
ENDBRANCH   7  15
ENDBRANCH   1  10
BRANCH   4  30
ATOM     30  C   UNL     1       9.022  -1.237  24.013  0.00  0.00    -0.018 A 
ATOM     31  C   UNL     1       8.557  -0.608  22.844  0.00  0.00    +0.009 A 
ATOM     32  C   UNL     1       8.780   0.763  22.594  0.00  0.00    +0.010 A 
ATOM     33  C   UNL     1       9.489   1.555  23.502  0.00  0.00    -0.000 A 
ATOM     34  C   UNL     1      10.070   0.906  24.601  0.00  0.00    +0.010 A 
ATOM     35  C   UNL     1       9.855  -0.466  24.840  0.00  0.00    +0.009 A 
BRANCH  33  36
ATOM     36  C   UNL     1       9.572   3.022  23.364  0.00  0.00    +0.066 A 
ATOM     37  N   UNL     1       8.628   3.811  22.721  0.00  0.00    -0.340 N 
ATOM     38  H   UNL     1       7.782   3.453  22.305  0.00  0.00    +0.167 HD
ATOM     39  C   UNL     1       8.854   5.148  23.045  0.00  0.00    +0.128 A 
ATOM     40  N   UNL     1      10.026   5.251  23.646  0.00  0.00    -0.238 NA
ATOM     41  C   UNL     1      10.435   3.957  23.905  0.00  0.00    +0.139 A 
BRANCH  39  42
ATOM     42  C   UNL     1       7.702   6.125  23.121  0.00  0.00    +0.142 C 
ATOM     43  N   UNL     1       6.357   5.731  23.630  0.00  0.00    -0.290 N 
ATOM     44  C   UNL     1       5.807   5.284  24.818  0.00  0.00    +0.237 C 
ATOM     45  O   UNL     1       4.564   5.336  24.930  0.00  0.00    -0.274 OA
ATOM     46  C   UNL     1       5.331   6.273  22.723  0.00  0.00    +0.108 C 
ATOM     47  C   UNL     1       6.027   7.108  21.673  0.00  0.00    +0.021 C 
ATOM     48  C   UNL     1       7.400   6.496  21.635  0.00  0.00    +0.032 C 
BRANCH  44  49
ATOM     49  C   UNL     1       6.530   4.806  26.100  0.00  0.00    +0.165 C 
BRANCH  49  50
ATOM     50  N   UNL     1       5.997   5.229  27.382  0.00  0.00    -0.270 N 
ATOM     51  H   UNL     1       5.041   5.539  27.441  0.00  0.00    +0.153 HD
ATOM     52  C   UNL     1       6.849   5.845  28.269  0.00  0.00    +0.401 C 
ATOM     53  O   UNL     1       8.072   5.825  28.204  0.00  0.00    -0.226 OA
BRANCH  52  54
ATOM     54  O   UNL     1       6.130   6.529  29.187  0.00  0.00    -0.454 OA
ATOM     55  C   UNL     1       5.265   5.721  29.987  0.00  0.00    +0.282 C 
ENDBRANCH  52  54
ENDBRANCH  49  50
BRANCH  49  56
ATOM     56  C   UNL     1       7.046   3.344  26.092  0.00  0.00    +0.012 C 
ATOM     57  C   UNL     1       6.231   2.431  25.167  0.00  0.00    +0.009 C 
ATOM     58  C   UNL     1       7.173   2.748  27.488  0.00  0.00    +0.009 C 
ENDBRANCH  49  56
ENDBRANCH  44  49
ENDBRANCH  39  42
ENDBRANCH  33  36
ENDBRANCH   4  30
TORSDOF 13
ENDMDL
