MODEL 1
REMARK VINA RESULT:      -6.5      0.000      0.000
REMARK  Name = 
REMARK  16 active torsions:
REMARK  status: ('A' for Active; 'I' for Inactive)
REMARK    1  A    between atoms: C_1  and  C_2
REMARK    2  A    between atoms: C_3  and  C_9
REMARK    3  A    between atoms: C_7  and  O_8
REMARK    4  A    between atoms: N_11  and  C_12
REMARK    5  A    between atoms: C_12  and  C_14
REMARK    6  A    between atoms: C_12  and  C_22
REMARK    7  A    between atoms: C_14  and  S_15
REMARK    8  A    between atoms: S_15  and  C_16
REMARK    9  A    between atoms: C_22  and  C_23
REMARK   10  A    between atoms: C_22  and  O_44
REMARK   11  A    between atoms: C_23  and  N_24
REMARK   12  A    between atoms: C_35  and  C_37
REMARK   13  A    between atoms: N_39  and  C_40
REMARK   14  A    between atoms: C_40  and  C_41
REMARK   15  A    between atoms: C_40  and  C_42
REMARK   16  A    between atoms: C_40  and  C_43
REMARK                            x       y       z     vdW  Elec       q    Type
REMARK                         _______ _______ _______ _____ _____    ______ ____
ROOT
ATOM      1  C   UNL     1       8.325  -2.167  24.042  0.00  0.00    +0.113 C 
ENDROOT
BRANCH   1   3
ATOM      2  C   UNL     1       7.497  -4.515  24.258  0.00  0.00    +0.245 C 
ATOM      3  N   UNL     1       7.243  -3.163  24.243  0.00  0.00    -0.305 N 
ATOM      4  H   UNL     1       6.344  -2.835  24.584  0.00  0.00    +0.149 HD
ATOM      5  O   UNL     1       8.616  -4.972  24.038  0.00  0.00    -0.270 OA
BRANCH   2  12
ATOM      6  C   UNL     1       5.497  -5.982  22.334  0.00  0.00    +0.048 C 
ATOM      7  C   UNL     1       5.462  -6.054  23.835  0.00  0.00    +0.003 A 
ATOM      8  C   UNL     1       4.472  -6.864  24.429  0.00  0.00    +0.120 A 
ATOM      9  C   UNL     1       4.390  -7.053  25.809  0.00  0.00    +0.046 A 
ATOM     10  C   UNL     1       5.331  -6.452  26.633  0.00  0.00    +0.004 A 
ATOM     11  C   UNL     1       6.334  -5.662  26.072  0.00  0.00    +0.013 A 
ATOM     12  C   UNL     1       6.394  -5.427  24.685  0.00  0.00    +0.043 A 
BRANCH   8  13
ATOM     13  O   UNL     1       3.570  -7.497  23.615  0.00  0.00    -0.506 OA
ATOM     14  H   UNL     1       2.795  -7.754  24.140  0.00  0.00    +0.292 HD
ENDBRANCH   8  13
ENDBRANCH   2  12
ENDBRANCH   1   3
BRANCH   1  15
ATOM     15  C   UNL     1       8.267  -1.064  25.146  0.00  0.00    +0.149 C 
BRANCH  15  16
ATOM     16  O   UNL     1       8.530  -1.589  26.453  0.00  0.00    -0.389 OA
ATOM     17  H   UNL     1       8.185  -0.948  27.100  0.00  0.00    +0.210 HD
ENDBRANCH  15  16
BRANCH  15  18
ATOM     18  C   UNL     1       6.930  -0.247  25.228  0.00  0.00    +0.118 C 
BRANCH  18  19
ATOM     19  N   UNL     1       6.701   0.330  26.576  0.00  0.00    -0.289 NA
ATOM     20  C   UNL     1       5.385   0.060  27.210  0.00  0.00    +0.143 C 
ATOM     21  C   UNL     1       4.267   1.014  26.754  0.00  0.00    +0.032 C 
ATOM     22  C   UNL     1       4.642   2.492  26.885  0.00  0.00    -0.005 C 
ATOM     23  C   UNL     1       5.959   2.771  26.167  0.00  0.00    +0.006 C 
ATOM     24  C   UNL     1       5.829   2.908  24.636  0.00  0.00    +0.005 C 
ATOM     25  C   UNL     1       4.423   2.929  24.017  0.00  0.00    +0.000 C 
ATOM     26  C   UNL     1       3.213   3.159  24.918  0.00  0.00    +0.000 C 
ATOM     27  C   UNL     1       3.559   3.435  26.366  0.00  0.00    +0.004 C 
ATOM     28  C   UNL     1       7.024   1.772  26.679  0.00  0.00    +0.089 C 
BRANCH  20  29
ATOM     29  C   UNL     1       4.866  -1.387  27.068  0.00  0.00    +0.231 C 
ATOM     30  N   UNL     1       3.496  -1.542  26.913  0.00  0.00    -0.309 N 
ATOM     31  H   UNL     1       2.924  -0.717  27.063  0.00  0.00    +0.149 HD
ATOM     32  O   UNL     1       5.637  -2.344  26.990  0.00  0.00    -0.274 OA
BRANCH  30  33
ATOM     33  C   UNL     1       2.865  -2.824  26.536  0.00  0.00    +0.026 C 
ATOM     34  C   UNL     1       3.442  -3.340  25.202  0.00  0.00    +0.031 C 
ATOM     35  C   UNL     1       1.353  -2.612  26.340  0.00  0.00    +0.031 C 
ATOM     36  C   UNL     1       3.055  -3.891  27.631  0.00  0.00    +0.031 C 
ENDBRANCH  30  33
ENDBRANCH  20  29
ENDBRANCH  18  19
ENDBRANCH  15  18
ENDBRANCH   1  15
BRANCH   1  37
ATOM     37  C   UNL     1       8.208  -1.591  22.601  0.00  0.00    +0.099 C 
BRANCH  37  38
ATOM     38  S   UNL     1       9.750  -0.848  21.934  0.00  0.00    -0.123 S 
BRANCH  38  39
ATOM     39  C   UNL     1       9.487   0.861  22.365  0.00  0.00    +0.008 A 
ATOM     40  C   UNL     1      10.266   1.437  23.372  0.00  0.00    +0.015 A 
ATOM     41  C   UNL     1      10.035   2.752  23.774  0.00  0.00    +0.001 A 
ATOM     42  C   UNL     1       9.021   3.499  23.174  0.00  0.00    +0.000 A 
ATOM     43  C   UNL     1       8.237   2.930  22.170  0.00  0.00    +0.001 A 
ATOM     44  C   UNL     1       8.469   1.608  21.770  0.00  0.00    +0.015 A 
ENDBRANCH  38  39
ENDBRANCH  37  38
ENDBRANCH   1  37
TORSDOF 12
ENDMDL
MODEL 2
REMARK VINA RESULT:      -6.4      2.381      5.141
REMARK  Name = 
REMARK  16 active torsions:
REMARK  status: ('A' for Active; 'I' for Inactive)
REMARK    1  A    between atoms: C_1  and  C_2
REMARK    2  A    between atoms: C_3  and  C_9
REMARK    3  A    between atoms: C_7  and  O_8
REMARK    4  A    between atoms: N_11  and  C_12
REMARK    5  A    between atoms: C_12  and  C_14
REMARK    6  A    between atoms: C_12  and  C_22
REMARK    7  A    between atoms: C_14  and  S_15
REMARK    8  A    between atoms: S_15  and  C_16
REMARK    9  A    between atoms: C_22  and  C_23
REMARK   10  A    between atoms: C_22  and  O_44
REMARK   11  A    between atoms: C_23  and  N_24
REMARK   12  A    between atoms: C_35  and  C_37
REMARK   13  A    between atoms: N_39  and  C_40
REMARK   14  A    between atoms: C_40  and  C_41
REMARK   15  A    between atoms: C_40  and  C_42
REMARK   16  A    between atoms: C_40  and  C_43
REMARK                            x       y       z     vdW  Elec       q    Type
REMARK                         _______ _______ _______ _____ _____    ______ ____
ROOT
ATOM      1  C   UNL     1       7.994  -3.593  26.546  0.00  0.00    +0.113 C 
ENDROOT
BRANCH   1   3
ATOM      2  C   UNL     1       6.423  -5.469  27.056  0.00  0.00    +0.245 C 
ATOM      3  N   UNL     1       6.748  -4.364  26.304  0.00  0.00    -0.305 N 
ATOM      4  H   UNL     1       6.030  -3.946  25.721  0.00  0.00    +0.149 HD
ATOM      5  O   UNL     1       7.175  -5.917  27.918  0.00  0.00    -0.270 OA
BRANCH   2  12
ATOM      6  C   UNL     1       4.061  -5.174  29.102  0.00  0.00    +0.048 C 
ATOM      7  C   UNL     1       4.002  -5.959  27.823  0.00  0.00    +0.003 A 
ATOM      8  C   UNL     1       2.785  -6.593  27.499  0.00  0.00    +0.120 A 
ATOM      9  C   UNL     1       2.601  -7.294  26.306  0.00  0.00    +0.046 A 
ATOM     10  C   UNL     1       3.638  -7.349  25.386  0.00  0.00    +0.004 A 
ATOM     11  C   UNL     1       4.846  -6.713  25.669  0.00  0.00    +0.013 A 
ATOM     12  C   UNL     1       5.055  -6.046  26.892  0.00  0.00    +0.043 A 
BRANCH   8  13
ATOM     13  O   UNL     1       1.743  -6.502  28.385  0.00  0.00    -0.506 OA
ATOM     14  H   UNL     1       1.121  -5.825  28.074  0.00  0.00    +0.292 HD
ENDBRANCH   8  13
ENDBRANCH   2  12
ENDBRANCH   1   3
BRANCH   1  15
ATOM     15  C   UNL     1       7.676  -2.073  26.707  0.00  0.00    +0.149 C 
BRANCH  15  16
ATOM     16  O   UNL     1       6.319  -1.840  27.103  0.00  0.00    -0.389 OA
ATOM     17  H   UNL     1       6.064  -0.961  26.772  0.00  0.00    +0.210 HD
ENDBRANCH  15  16
BRANCH  15  18
ATOM     18  C   UNL     1       7.959  -1.177  25.451  0.00  0.00    +0.118 C 
BRANCH  18  19
ATOM     19  N   UNL     1       8.741   0.038  25.787  0.00  0.00    -0.289 NA
ATOM     20  C   UNL     1       8.122   1.349  25.462  0.00  0.00    +0.143 C 
ATOM     21  C   UNL     1       8.318   1.784  23.999  0.00  0.00    +0.032 C 
ATOM     22  C   UNL     1       9.780   1.746  23.547  0.00  0.00    -0.005 C 
ATOM     23  C   UNL     1      10.383   0.371  23.819  0.00  0.00    +0.006 C 
ATOM     24  C   UNL     1      10.000  -0.705  22.781  0.00  0.00    +0.005 C 
ATOM     25  C   UNL     1       9.229  -0.273  21.525  0.00  0.00    +0.000 C 
ATOM     26  C   UNL     1       9.159   1.208  21.163  0.00  0.00    +0.000 C 
ATOM     27  C   UNL     1       9.963   2.111  22.076  0.00  0.00    +0.004 C 
ATOM     28  C   UNL     1      10.142   0.008  25.304  0.00  0.00    +0.089 C 
BRANCH  20  29
ATOM     29  C   UNL     1       6.621   1.474  25.801  0.00  0.00    +0.231 C 
ATOM     30  N   UNL     1       6.272   1.318  27.134  0.00  0.00    -0.309 N 
ATOM     31  H   UNL     1       6.996   0.979  27.759  0.00  0.00    +0.149 HD
ATOM     32  O   UNL     1       5.792   1.799  24.950  0.00  0.00    -0.274 OA
BRANCH  30  33
ATOM     33  C   UNL     1       4.927   1.633  27.660  0.00  0.00    +0.026 C 
ATOM     34  C   UNL     1       4.613   3.132  27.483  0.00  0.00    +0.031 C 
ATOM     35  C   UNL     1       4.880   1.320  29.167  0.00  0.00    +0.031 C 
ATOM     36  C   UNL     1       3.839   0.790  26.968  0.00  0.00    +0.031 C 
ENDBRANCH  30  33
ENDBRANCH  20  29
ENDBRANCH  18  19
ENDBRANCH  15  18
ENDBRANCH   1  15
BRANCH   1  37
ATOM     37  C   UNL     1       8.992  -3.886  25.388  0.00  0.00    +0.099 C 
BRANCH  37  38
ATOM     38  S   UNL     1       8.790  -5.526  24.585  0.00  0.00    -0.123 S 
BRANCH  38  39
ATOM     39  C   UNL     1       7.756  -5.075  23.206  0.00  0.00    +0.008 A 
ATOM     40  C   UNL     1       7.494  -3.724  22.964  0.00  0.00    +0.015 A 
ATOM     41  C   UNL     1       6.635  -3.348  21.932  0.00  0.00    +0.001 A 
ATOM     42  C   UNL     1       6.029  -4.321  21.137  0.00  0.00    +0.000 A 
ATOM     43  C   UNL     1       6.283  -5.672  21.374  0.00  0.00    +0.001 A 
ATOM     44  C   UNL     1       7.144  -6.047  22.413  0.00  0.00    +0.015 A 
ENDBRANCH  38  39
ENDBRANCH  37  38
ENDBRANCH   1  37
TORSDOF 12
ENDMDL
MODEL 3
REMARK VINA RESULT:      -6.4      2.035      4.142
REMARK  Name = 
REMARK  16 active torsions:
REMARK  status: ('A' for Active; 'I' for Inactive)
REMARK    1  A    between atoms: C_1  and  C_2
REMARK    2  A    between atoms: C_3  and  C_9
REMARK    3  A    between atoms: C_7  and  O_8
REMARK    4  A    between atoms: N_11  and  C_12
REMARK    5  A    between atoms: C_12  and  C_14
REMARK    6  A    between atoms: C_12  and  C_22
REMARK    7  A    between atoms: C_14  and  S_15
REMARK    8  A    between atoms: S_15  and  C_16
REMARK    9  A    between atoms: C_22  and  C_23
REMARK   10  A    between atoms: C_22  and  O_44
REMARK   11  A    between atoms: C_23  and  N_24
REMARK   12  A    between atoms: C_35  and  C_37
REMARK   13  A    between atoms: N_39  and  C_40
REMARK   14  A    between atoms: C_40  and  C_41
REMARK   15  A    between atoms: C_40  and  C_42
REMARK   16  A    between atoms: C_40  and  C_43
REMARK                            x       y       z     vdW  Elec       q    Type
REMARK                         _______ _______ _______ _____ _____    ______ ____
ROOT
ATOM      1  C   UNL     1       7.142  -1.774  24.004  0.00  0.00    +0.113 C 
ENDROOT
BRANCH   1   3
ATOM      2  C   UNL     1       6.824  -4.077  24.921  0.00  0.00    +0.245 C 
ATOM      3  N   UNL     1       6.337  -3.004  24.211  0.00  0.00    -0.305 N 
ATOM      4  H   UNL     1       5.343  -2.968  24.007  0.00  0.00    +0.149 HD
ATOM      5  O   UNL     1       7.970  -4.102  25.362  0.00  0.00    -0.270 OA
BRANCH   2  12
ATOM      6  C   UNL     1       5.465  -6.023  22.867  0.00  0.00    +0.048 C 
ATOM      7  C   UNL     1       5.221  -6.024  24.350  0.00  0.00    +0.003 A 
ATOM      8  C   UNL     1       4.333  -6.990  24.867  0.00  0.00    +0.120 A 
ATOM      9  C   UNL     1       4.083  -7.121  26.233  0.00  0.00    +0.046 A 
ATOM     10  C   UNL     1       4.751  -6.296  27.126  0.00  0.00    +0.004 A 
ATOM     11  C   UNL     1       5.652  -5.345  26.646  0.00  0.00    +0.013 A 
ATOM     12  C   UNL     1       5.871  -5.175  25.265  0.00  0.00    +0.043 A 
BRANCH   8  13
ATOM     13  O   UNL     1       3.706  -7.838  23.991  0.00  0.00    -0.506 OA
ATOM     14  H   UNL     1       3.114  -7.323  23.420  0.00  0.00    +0.292 HD
ENDBRANCH   8  13
ENDBRANCH   2  12
ENDBRANCH   1   3
BRANCH   1  15
ATOM     15  C   UNL     1       6.212  -0.527  23.862  0.00  0.00    +0.149 C 
BRANCH  15  16
ATOM     16  O   UNL     1       6.522   0.254  22.702  0.00  0.00    -0.389 OA
ATOM     17  H   UNL     1       5.688   0.411  22.224  0.00  0.00    +0.210 HD
ENDBRANCH  15  16
BRANCH  15  18
ATOM     18  C   UNL     1       6.182   0.448  25.090  0.00  0.00    +0.118 C 
BRANCH  18  19
ATOM     19  N   UNL     1       4.800   0.804  25.497  0.00  0.00    -0.289 NA
ATOM     20  C   UNL     1       4.437   2.244  25.464  0.00  0.00    +0.143 C 
ATOM     21  C   UNL     1       4.869   3.023  26.719  0.00  0.00    +0.032 C 
ATOM     22  C   UNL     1       4.403   2.375  28.024  0.00  0.00    -0.005 C 
ATOM     23  C   UNL     1       4.845   0.916  28.078  0.00  0.00    +0.006 C 
ATOM     24  C   UNL     1       6.324   0.716  28.471  0.00  0.00    +0.005 C 
ATOM     25  C   UNL     1       7.134   1.939  28.926  0.00  0.00    +0.000 C 
ATOM     26  C   UNL     1       6.402   3.223  29.305  0.00  0.00    +0.000 C 
ATOM     27  C   UNL     1       4.892   3.112  29.269  0.00  0.00    +0.004 C 
ATOM     28  C   UNL     1       4.376   0.207  26.785  0.00  0.00    +0.089 C 
BRANCH  20  29
ATOM     29  C   UNL     1       4.930   3.022  24.225  0.00  0.00    +0.231 C 
ATOM     30  N   UNL     1       5.897   3.992  24.446  0.00  0.00    -0.309 N 
ATOM     31  H   UNL     1       6.093   4.229  25.413  0.00  0.00    +0.149 HD
ATOM     32  O   UNL     1       4.562   2.725  23.088  0.00  0.00    -0.274 OA
BRANCH  30  33
ATOM     33  C   UNL     1       6.637   4.659  23.355  0.00  0.00    +0.026 C 
ATOM     34  C   UNL     1       6.988   3.651  22.242  0.00  0.00    +0.031 C 
ATOM     35  C   UNL     1       7.959   5.227  23.905  0.00  0.00    +0.031 C 
ATOM     36  C   UNL     1       5.832   5.830  22.760  0.00  0.00    +0.031 C 
ENDBRANCH  30  33
ENDBRANCH  20  29
ENDBRANCH  18  19
ENDBRANCH  15  18
ENDBRANCH   1  15
BRANCH   1  37
ATOM     37  C   UNL     1       8.066  -1.986  22.771  0.00  0.00    +0.099 C 
BRANCH  37  38
ATOM     38  S   UNL     1       9.867  -1.944  23.133  0.00  0.00    -0.123 S 
BRANCH  38  39
ATOM     39  C   UNL     1      10.157  -0.187  23.083  0.00  0.00    +0.008 A 
ATOM     40  C   UNL     1      10.567   0.469  24.246  0.00  0.00    +0.015 A 
ATOM     41  C   UNL     1      10.735   1.853  24.251  0.00  0.00    +0.001 A 
ATOM     42  C   UNL     1      10.493   2.591  23.092  0.00  0.00    +0.000 A 
ATOM     43  C   UNL     1      10.080   1.944  21.927  0.00  0.00    +0.001 A 
ATOM     44  C   UNL     1       9.908   0.554  21.926  0.00  0.00    +0.015 A 
ENDBRANCH  38  39
ENDBRANCH  37  38
ENDBRANCH   1  37
TORSDOF 12
ENDMDL
MODEL 4
REMARK VINA RESULT:      -6.3      2.307      6.670
REMARK  Name = 
REMARK  16 active torsions:
REMARK  status: ('A' for Active; 'I' for Inactive)
REMARK    1  A    between atoms: C_1  and  C_2
REMARK    2  A    between atoms: C_3  and  C_9
REMARK    3  A    between atoms: C_7  and  O_8
REMARK    4  A    between atoms: N_11  and  C_12
REMARK    5  A    between atoms: C_12  and  C_14
REMARK    6  A    between atoms: C_12  and  C_22
REMARK    7  A    between atoms: C_14  and  S_15
REMARK    8  A    between atoms: S_15  and  C_16
REMARK    9  A    between atoms: C_22  and  C_23
REMARK   10  A    between atoms: C_22  and  O_44
REMARK   11  A    between atoms: C_23  and  N_24
REMARK   12  A    between atoms: C_35  and  C_37
REMARK   13  A    between atoms: N_39  and  C_40
REMARK   14  A    between atoms: C_40  and  C_41
REMARK   15  A    between atoms: C_40  and  C_42
REMARK   16  A    between atoms: C_40  and  C_43
REMARK                            x       y       z     vdW  Elec       q    Type
REMARK                         _______ _______ _______ _____ _____    ______ ____
ROOT
ATOM      1  C   UNL     1       8.239  -2.752  25.338  0.00  0.00    +0.113 C 
ENDROOT
BRANCH   1   3
ATOM      2  C   UNL     1       7.196  -0.509  25.695  0.00  0.00    +0.245 C 
ATOM      3  N   UNL     1       8.166  -1.432  26.013  0.00  0.00    -0.305 N 
ATOM      4  H   UNL     1       8.705  -1.296  26.862  0.00  0.00    +0.149 HD
ATOM      5  O   UNL     1       6.385  -0.698  24.793  0.00  0.00    -0.270 OA
BRANCH   2  12
ATOM      6  C   UNL     1       7.384   2.475  24.739  0.00  0.00    +0.048 C 
ATOM      7  C   UNL     1       7.192   2.035  26.164  0.00  0.00    +0.003 A 
ATOM      8  C   UNL     1       7.059   3.036  27.147  0.00  0.00    +0.120 A 
ATOM      9  C   UNL     1       6.814   2.740  28.488  0.00  0.00    +0.046 A 
ATOM     10  C   UNL     1       6.664   1.416  28.873  0.00  0.00    +0.004 A 
ATOM     11  C   UNL     1       6.769   0.404  27.918  0.00  0.00    +0.013 A 
ATOM     12  C   UNL     1       7.065   0.693  26.572  0.00  0.00    +0.043 A 
BRANCH   8  13
ATOM     13  O   UNL     1       7.161   4.349  26.762  0.00  0.00    -0.506 OA
ATOM     14  H   UNL     1       6.291   4.771  26.844  0.00  0.00    +0.292 HD
ENDBRANCH   8  13
ENDBRANCH   2  12
ENDBRANCH   1   3
BRANCH   1  15
ATOM     15  C   UNL     1       8.297  -3.904  26.391  0.00  0.00    +0.149 C 
BRANCH  15  16
ATOM     16  O   UNL     1       8.830  -5.115  25.844  0.00  0.00    -0.389 OA
ATOM     17  H   UNL     1       9.797  -5.012  25.791  0.00  0.00    +0.210 HD
ENDBRANCH  15  16
BRANCH  15  18
ATOM     18  C   UNL     1       6.938  -4.262  27.089  0.00  0.00    +0.118 C 
BRANCH  18  19
ATOM     19  N   UNL     1       6.665  -5.721  27.079  0.00  0.00    -0.289 NA
ATOM     20  C   UNL     1       5.470  -6.177  26.324  0.00  0.00    +0.143 C 
ATOM     21  C   UNL     1       4.154  -6.066  27.114  0.00  0.00    +0.032 C 
ATOM     22  C   UNL     1       4.216  -6.734  28.490  0.00  0.00    -0.005 C 
ATOM     23  C   UNL     1       5.405  -6.203  29.283  0.00  0.00    +0.006 C 
ATOM     24  C   UNL     1       5.169  -4.822  29.930  0.00  0.00    +0.005 C 
ATOM     25  C   UNL     1       3.760  -4.214  29.870  0.00  0.00    +0.000 C 
ATOM     26  C   UNL     1       2.577  -5.103  29.495  0.00  0.00    +0.000 C 
ATOM     27  C   UNL     1       2.933  -6.563  29.299  0.00  0.00    +0.004 C 
ATOM     28  C   UNL     1       6.682  -6.347  28.422  0.00  0.00    +0.089 C 
BRANCH  20  29
ATOM     29  C   UNL     1       5.260  -5.506  24.949  0.00  0.00    +0.231 C 
ATOM     30  N   UNL     1       6.300  -5.621  24.038  0.00  0.00    -0.309 N 
ATOM     31  H   UNL     1       7.175  -5.995  24.390  0.00  0.00    +0.149 HD
ATOM     32  O   UNL     1       4.186  -4.987  24.642  0.00  0.00    -0.274 OA
BRANCH  30  33
ATOM     33  C   UNL     1       6.173  -5.243  22.615  0.00  0.00    +0.026 C 
ATOM     34  C   UNL     1       5.101  -6.104  21.919  0.00  0.00    +0.031 C 
ATOM     35  C   UNL     1       7.513  -5.494  21.898  0.00  0.00    +0.031 C 
ATOM     36  C   UNL     1       5.825  -3.751  22.456  0.00  0.00    +0.031 C 
ENDBRANCH  30  33
ENDBRANCH  20  29
ENDBRANCH  18  19
ENDBRANCH  15  18
ENDBRANCH   1  15
BRANCH   1  37
ATOM     37  C   UNL     1       9.458  -2.750  24.371  0.00  0.00    +0.099 C 
BRANCH  37  38
ATOM     38  S   UNL     1       9.119  -2.081  22.694  0.00  0.00    -0.123 S 
BRANCH  38  39
ATOM     39  C   UNL     1       9.762  -0.430  22.878  0.00  0.00    +0.008 A 
ATOM     40  C   UNL     1      10.454  -0.094  24.045  0.00  0.00    +0.015 A 
ATOM     41  C   UNL     1      10.908   1.209  24.242  0.00  0.00    +0.001 A 
ATOM     42  C   UNL     1      10.672   2.186  23.276  0.00  0.00    +0.000 A 
ATOM     43  C   UNL     1       9.979   1.860  22.110  0.00  0.00    +0.001 A 
ATOM     44  C   UNL     1       9.521   0.552  21.915  0.00  0.00    +0.015 A 
ENDBRANCH  38  39
ENDBRANCH  37  38
ENDBRANCH   1  37
TORSDOF 12
ENDMDL
MODEL 5
REMARK VINA RESULT:      -6.3      2.635      6.919
REMARK  Name = 
REMARK  16 active torsions:
REMARK  status: ('A' for Active; 'I' for Inactive)
REMARK    1  A    between atoms: C_1  and  C_2
REMARK    2  A    between atoms: C_3  and  C_9
REMARK    3  A    between atoms: C_7  and  O_8
REMARK    4  A    between atoms: N_11  and  C_12
REMARK    5  A    between atoms: C_12  and  C_14
REMARK    6  A    between atoms: C_12  and  C_22
REMARK    7  A    between atoms: C_14  and  S_15
REMARK    8  A    between atoms: S_15  and  C_16
REMARK    9  A    between atoms: C_22  and  C_23
REMARK   10  A    between atoms: C_22  and  O_44
REMARK   11  A    between atoms: C_23  and  N_24
REMARK   12  A    between atoms: C_35  and  C_37
REMARK   13  A    between atoms: N_39  and  C_40
REMARK   14  A    between atoms: C_40  and  C_41
REMARK   15  A    between atoms: C_40  and  C_42
REMARK   16  A    between atoms: C_40  and  C_43
REMARK                            x       y       z     vdW  Elec       q    Type
REMARK                         _______ _______ _______ _____ _____    ______ ____
ROOT
ATOM      1  C   UNL     1       4.304  -1.177  26.640  0.00  0.00    +0.113 C 
ENDROOT
BRANCH   1   3
ATOM      2  C   UNL     1       4.652  -2.977  24.942  0.00  0.00    +0.245 C 
ATOM      3  N   UNL     1       5.174  -2.074  25.839  0.00  0.00    -0.305 N 
ATOM      4  H   UNL     1       6.168  -1.871  25.799  0.00  0.00    +0.149 HD
ATOM      5  O   UNL     1       3.442  -3.138  24.806  0.00  0.00    -0.270 OA
BRANCH   2  12
ATOM      6  C   UNL     1       7.105  -4.718  25.841  0.00  0.00    +0.048 C 
ATOM      7  C   UNL     1       6.730  -4.423  24.415  0.00  0.00    +0.003 A 
ATOM      8  C   UNL     1       7.525  -4.993  23.399  0.00  0.00    +0.120 A 
ATOM      9  C   UNL     1       7.230  -4.837  22.044  0.00  0.00    +0.046 A 
ATOM     10  C   UNL     1       6.099  -4.123  21.675  0.00  0.00    +0.004 A 
ATOM     11  C   UNL     1       5.282  -3.567  22.659  0.00  0.00    +0.013 A 
ATOM     12  C   UNL     1       5.601  -3.678  24.026  0.00  0.00    +0.043 A 
BRANCH   8  13
ATOM     13  O   UNL     1       8.617  -5.738  23.762  0.00  0.00    -0.506 OA
ATOM     14  H   UNL     1       9.315  -5.620  23.098  0.00  0.00    +0.292 HD
ENDBRANCH   8  13
ENDBRANCH   2  12
ENDBRANCH   1   3
BRANCH   1  15
ATOM     15  C   UNL     1       4.782   0.305  26.514  0.00  0.00    +0.149 C 
BRANCH  15  16
ATOM     16  O   UNL     1       3.716   1.191  26.150  0.00  0.00    -0.389 OA
ATOM     17  H   UNL     1       4.062   2.100  26.200  0.00  0.00    +0.210 HD
ENDBRANCH  15  16
BRANCH  15  18
ATOM     18  C   UNL     1       5.966   0.559  25.517  0.00  0.00    +0.118 C 
BRANCH  18  19
ATOM     19  N   UNL     1       7.196   1.021  26.207  0.00  0.00    -0.289 NA
ATOM     20  C   UNL     1       7.890   2.202  25.630  0.00  0.00    +0.143 C 
ATOM     21  C   UNL     1       8.828   1.862  24.459  0.00  0.00    +0.032 C 
ATOM     22  C   UNL     1       9.828   0.751  24.787  0.00  0.00    -0.005 C 
ATOM     23  C   UNL     1       9.098  -0.482  25.310  0.00  0.00    +0.006 C 
ATOM     24  C   UNL     1       8.449  -1.348  24.209  0.00  0.00    +0.005 C 
ATOM     25  C   UNL     1       8.737  -1.005  22.740  0.00  0.00    +0.000 C 
ATOM     26  C   UNL     1       9.894  -0.067  22.404  0.00  0.00    +0.000 C 
ATOM     27  C   UNL     1      10.711   0.367  23.603  0.00  0.00    +0.004 C 
ATOM     28  C   UNL     1       8.177  -0.056  26.479  0.00  0.00    +0.089 C 
BRANCH  20  29
ATOM     29  C   UNL     1       6.968   3.357  25.184  0.00  0.00    +0.231 C 
ATOM     30  N   UNL     1       7.342   4.041  24.037  0.00  0.00    -0.309 N 
ATOM     31  H   UNL     1       8.267   3.842  23.668  0.00  0.00    +0.149 HD
ATOM     32  O   UNL     1       5.902   3.590  25.756  0.00  0.00    -0.274 OA
BRANCH  30  33
ATOM     33  C   UNL     1       6.463   5.010  23.349  0.00  0.00    +0.026 C 
ATOM     34  C   UNL     1       5.193   4.311  22.825  0.00  0.00    +0.031 C 
ATOM     35  C   UNL     1       7.204   5.603  22.137  0.00  0.00    +0.031 C 
ATOM     36  C   UNL     1       6.069   6.174  24.278  0.00  0.00    +0.031 C 
ENDBRANCH  30  33
ENDBRANCH  20  29
ENDBRANCH  18  19
ENDBRANCH  15  18
ENDBRANCH   1  15
BRANCH   1  37
ATOM     37  C   UNL     1       4.283  -1.687  28.109  0.00  0.00    +0.099 C 
BRANCH  37  38
ATOM     38  S   UNL     1       2.912  -2.841  28.513  0.00  0.00    -0.123 S 
BRANCH  38  39
ATOM     39  C   UNL     1       3.772  -4.397  28.419  0.00  0.00    +0.008 A 
ATOM     40  C   UNL     1       4.879  -4.615  29.245  0.00  0.00    +0.015 A 
ATOM     41  C   UNL     1       5.610  -5.798  29.144  0.00  0.00    +0.001 A 
ATOM     42  C   UNL     1       5.241  -6.770  28.214  0.00  0.00    +0.000 A 
ATOM     43  C   UNL     1       4.140  -6.559  27.384  0.00  0.00    +0.001 A 
ATOM     44  C   UNL     1       3.410  -5.369  27.485  0.00  0.00    +0.015 A 
ENDBRANCH  38  39
ENDBRANCH  37  38
ENDBRANCH   1  37
TORSDOF 12
ENDMDL
MODEL 6
REMARK VINA RESULT:      -6.2      2.332      6.346
REMARK  Name = 
REMARK  16 active torsions:
REMARK  status: ('A' for Active; 'I' for Inactive)
REMARK    1  A    between atoms: C_1  and  C_2
REMARK    2  A    between atoms: C_3  and  C_9
REMARK    3  A    between atoms: C_7  and  O_8
REMARK    4  A    between atoms: N_11  and  C_12
REMARK    5  A    between atoms: C_12  and  C_14
REMARK    6  A    between atoms: C_12  and  C_22
REMARK    7  A    between atoms: C_14  and  S_15
REMARK    8  A    between atoms: S_15  and  C_16
REMARK    9  A    between atoms: C_22  and  C_23
REMARK   10  A    between atoms: C_22  and  O_44
REMARK   11  A    between atoms: C_23  and  N_24
REMARK   12  A    between atoms: C_35  and  C_37
REMARK   13  A    between atoms: N_39  and  C_40
REMARK   14  A    between atoms: C_40  and  C_41
REMARK   15  A    between atoms: C_40  and  C_42
REMARK   16  A    between atoms: C_40  and  C_43
REMARK                            x       y       z     vdW  Elec       q    Type
REMARK                         _______ _______ _______ _____ _____    ______ ____
ROOT
ATOM      1  C   UNL     1       6.751  -2.848  24.237  0.00  0.00    +0.113 C 
ENDROOT
BRANCH   1   3
ATOM      2  C   UNL     1       6.177  -0.696  25.368  0.00  0.00    +0.245 C 
ATOM      3  N   UNL     1       6.863  -1.889  25.364  0.00  0.00    -0.305 N 
ATOM      4  H   UNL     1       7.280  -2.211  26.231  0.00  0.00    +0.149 HD
ATOM      5  O   UNL     1       5.494  -0.331  24.415  0.00  0.00    -0.270 OA
BRANCH   2  12
ATOM      6  C   UNL     1       7.673   2.029  25.810  0.00  0.00    +0.048 C 
ATOM      7  C   UNL     1       6.878   1.300  26.857  0.00  0.00    +0.003 A 
ATOM      8  C   UNL     1       6.771   1.896  28.130  0.00  0.00    +0.120 A 
ATOM      9  C   UNL     1       6.006   1.338  29.155  0.00  0.00    +0.046 A 
ATOM     10  C   UNL     1       5.296   0.171  28.912  0.00  0.00    +0.004 A 
ATOM     11  C   UNL     1       5.366  -0.430  27.655  0.00  0.00    +0.013 A 
ATOM     12  C   UNL     1       6.175   0.101  26.632  0.00  0.00    +0.043 A 
BRANCH   8  13
ATOM     13  O   UNL     1       7.434   3.075  28.359  0.00  0.00    -0.506 OA
ATOM     14  H   UNL     1       6.827   3.815  28.200  0.00  0.00    +0.292 HD
ENDBRANCH   8  13
ENDBRANCH   2  12
ENDBRANCH   1   3
BRANCH   1  15
ATOM     15  C   UNL     1       6.694  -4.315  24.770  0.00  0.00    +0.149 C 
BRANCH  15  16
ATOM     16  O   UNL     1       6.539  -5.272  23.715  0.00  0.00    -0.389 OA
ATOM     17  H   UNL     1       7.380  -5.306  23.225  0.00  0.00    +0.210 HD
ENDBRANCH  15  16
BRANCH  15  18
ATOM     18  C   UNL     1       5.585  -4.612  25.839  0.00  0.00    +0.118 C 
BRANCH  18  19
ATOM     19  N   UNL     1       5.861  -5.849  26.612  0.00  0.00    -0.289 NA
ATOM     20  C   UNL     1       4.770  -6.856  26.683  0.00  0.00    +0.143 C 
ATOM     21  C   UNL     1       3.723  -6.563  27.772  0.00  0.00    +0.032 C 
ATOM     22  C   UNL     1       4.336  -6.326  29.154  0.00  0.00    -0.005 C 
ATOM     23  C   UNL     1       5.403  -5.239  29.081  0.00  0.00    +0.006 C 
ATOM     24  C   UNL     1       4.842  -3.801  29.050  0.00  0.00    +0.005 C 
ATOM     25  C   UNL     1       3.335  -3.597  29.266  0.00  0.00    +0.000 C 
ATOM     26  C   UNL     1       2.499  -4.740  29.836  0.00  0.00    +0.000 C 
ATOM     27  C   UNL     1       3.301  -5.967  30.217  0.00  0.00    +0.004 C 
ATOM     28  C   UNL     1       6.411  -5.605  27.965  0.00  0.00    +0.089 C 
BRANCH  20  29
ATOM     29  C   UNL     1       4.022  -7.116  25.358  0.00  0.00    +0.231 C 
ATOM     30  N   UNL     1       2.668  -6.815  25.341  0.00  0.00    -0.309 N 
ATOM     31  H   UNL     1       2.237  -6.599  26.234  0.00  0.00    +0.149 HD
ATOM     32  O   UNL     1       4.617  -7.471  24.340  0.00  0.00    -0.274 OA
BRANCH  30  33
ATOM     33  C   UNL     1       1.862  -6.785  24.103  0.00  0.00    +0.026 C 
ATOM     34  C   UNL     1       2.494  -5.833  23.067  0.00  0.00    +0.031 C 
ATOM     35  C   UNL     1       0.452  -6.256  24.423  0.00  0.00    +0.031 C 
ATOM     36  C   UNL     1       1.712  -8.191  23.492  0.00  0.00    +0.031 C 
ENDBRANCH  30  33
ENDBRANCH  20  29
ENDBRANCH  18  19
ENDBRANCH  15  18
ENDBRANCH   1  15
BRANCH   1  37
ATOM     37  C   UNL     1       7.934  -2.603  23.257  0.00  0.00    +0.099 C 
BRANCH  37  38
ATOM     38  S   UNL     1       9.556  -2.287  24.060  0.00  0.00    -0.123 S 
BRANCH  38  39
ATOM     39  C   UNL     1       9.880  -0.636  23.476  0.00  0.00    +0.008 A 
ATOM     40  C   UNL     1      10.509   0.276  24.326  0.00  0.00    +0.015 A 
ATOM     41  C   UNL     1      10.714   1.594  23.917  0.00  0.00    +0.001 A 
ATOM     42  C   UNL     1      10.287   2.008  22.656  0.00  0.00    +0.000 A 
ATOM     43  C   UNL     1       9.655   1.104  21.802  0.00  0.00    +0.001 A 
ATOM     44  C   UNL     1       9.448  -0.216  22.216  0.00  0.00    +0.015 A 
ENDBRANCH  38  39
ENDBRANCH  37  38
ENDBRANCH   1  37
TORSDOF 12
ENDMDL
MODEL 7
REMARK VINA RESULT:      -6.2      2.140      4.984
REMARK  Name = 
REMARK  16 active torsions:
REMARK  status: ('A' for Active; 'I' for Inactive)
REMARK    1  A    between atoms: C_1  and  C_2
REMARK    2  A    between atoms: C_3  and  C_9
REMARK    3  A    between atoms: C_7  and  O_8
REMARK    4  A    between atoms: N_11  and  C_12
REMARK    5  A    between atoms: C_12  and  C_14
REMARK    6  A    between atoms: C_12  and  C_22
REMARK    7  A    between atoms: C_14  and  S_15
REMARK    8  A    between atoms: S_15  and  C_16
REMARK    9  A    between atoms: C_22  and  C_23
REMARK   10  A    between atoms: C_22  and  O_44
REMARK   11  A    between atoms: C_23  and  N_24
REMARK   12  A    between atoms: C_35  and  C_37
REMARK   13  A    between atoms: N_39  and  C_40
REMARK   14  A    between atoms: C_40  and  C_41
REMARK   15  A    between atoms: C_40  and  C_42
REMARK   16  A    between atoms: C_40  and  C_43
REMARK                            x       y       z     vdW  Elec       q    Type
REMARK                         _______ _______ _______ _____ _____    ______ ____
ROOT
ATOM      1  C   UNL     1       5.752  -0.681  27.134  0.00  0.00    +0.113 C 
ENDROOT
BRANCH   1   3
ATOM      2  C   UNL     1       4.681  -2.882  26.629  0.00  0.00    +0.245 C 
ATOM      3  N   UNL     1       5.154  -1.975  27.549  0.00  0.00    -0.305 N 
ATOM      4  H   UNL     1       5.289  -2.281  28.507  0.00  0.00    +0.149 HD
ATOM      5  O   UNL     1       4.665  -2.643  25.425  0.00  0.00    -0.270 OA
BRANCH   2  12
ATOM      6  C   UNL     1       6.689  -5.147  27.461  0.00  0.00    +0.048 C 
ATOM      7  C   UNL     1       5.191  -5.279  27.454  0.00  0.00    +0.003 A 
ATOM      8  C   UNL     1       4.640  -6.506  27.878  0.00  0.00    +0.120 A 
ATOM      9  C   UNL     1       3.264  -6.715  27.972  0.00  0.00    +0.046 A 
ATOM     10  C   UNL     1       2.399  -5.674  27.668  0.00  0.00    +0.004 A 
ATOM     11  C   UNL     1       2.915  -4.443  27.265  0.00  0.00    +0.013 A 
ATOM     12  C   UNL     1       4.301  -4.240  27.122  0.00  0.00    +0.043 A 
BRANCH   8  13
ATOM     13  O   UNL     1       5.494  -7.522  28.224  0.00  0.00    -0.506 OA
ATOM     14  H   UNL     1       5.825  -7.946  27.417  0.00  0.00    +0.292 HD
ENDBRANCH   8  13
ENDBRANCH   2  12
ENDBRANCH   1   3
BRANCH   1  15
ATOM     15  C   UNL     1       7.310  -0.789  27.084  0.00  0.00    +0.149 C 
BRANCH  15  16
ATOM     16  O   UNL     1       7.952   0.284  27.784  0.00  0.00    -0.389 OA
ATOM     17  H   UNL     1       8.187   0.962  27.127  0.00  0.00    +0.210 HD
ENDBRANCH  15  16
BRANCH  15  18
ATOM     18  C   UNL     1       7.945  -0.862  25.652  0.00  0.00    +0.118 C 
BRANCH  18  19
ATOM     19  N   UNL     1       6.975  -0.514  24.584  0.00  0.00    -0.289 NA
ATOM     20  C   UNL     1       7.233  -1.072  23.231  0.00  0.00    +0.143 C 
ATOM     21  C   UNL     1       8.241  -0.256  22.404  0.00  0.00    +0.032 C 
ATOM     22  C   UNL     1       7.893   1.232  22.321  0.00  0.00    -0.005 C 
ATOM     23  C   UNL     1       7.703   1.810  23.719  0.00  0.00    +0.006 C 
ATOM     24  C   UNL     1       9.020   2.127  24.458  0.00  0.00    +0.005 C 
ATOM     25  C   UNL     1      10.342   2.006  23.686  0.00  0.00    +0.000 C 
ATOM     26  C   UNL     1      10.314   1.918  22.163  0.00  0.00    +0.000 C 
ATOM     27  C   UNL     1       8.932   2.050  21.557  0.00  0.00    +0.004 C 
ATOM     28  C   UNL     1       6.681   0.935  24.484  0.00  0.00    +0.089 C 
BRANCH  20  29
ATOM     29  C   UNL     1       7.674  -2.552  23.199  0.00  0.00    +0.231 C 
ATOM     30  N   UNL     1       6.697  -3.495  23.481  0.00  0.00    -0.309 N 
ATOM     31  H   UNL     1       5.815  -3.146  23.840  0.00  0.00    +0.149 HD
ATOM     32  O   UNL     1       8.805  -2.880  22.840  0.00  0.00    -0.274 OA
BRANCH  30  33
ATOM     33  C   UNL     1       6.889  -4.946  23.269  0.00  0.00    +0.026 C 
ATOM     34  C   UNL     1       7.017  -5.261  21.765  0.00  0.00    +0.031 C 
ATOM     35  C   UNL     1       5.663  -5.708  23.804  0.00  0.00    +0.031 C 
ATOM     36  C   UNL     1       8.132  -5.466  24.016  0.00  0.00    +0.031 C 
ENDBRANCH  30  33
ENDBRANCH  20  29
ENDBRANCH  18  19
ENDBRANCH  15  18
ENDBRANCH   1  15
BRANCH   1  37
ATOM     37  C   UNL     1       5.250   0.431  28.098  0.00  0.00    +0.099 C 
BRANCH  37  38
ATOM     38  S   UNL     1       3.992   1.567  27.388  0.00  0.00    -0.123 S 
BRANCH  38  39
ATOM     39  C   UNL     1       5.045   2.888  26.823  0.00  0.00    +0.008 A 
ATOM     40  C   UNL     1       4.673   3.619  25.692  0.00  0.00    +0.015 A 
ATOM     41  C   UNL     1       5.511   4.614  25.190  0.00  0.00    +0.001 A 
ATOM     42  C   UNL     1       6.729   4.882  25.815  0.00  0.00    +0.000 A 
ATOM     43  C   UNL     1       7.109   4.155  26.943  0.00  0.00    +0.001 A 
ATOM     44  C   UNL     1       6.267   3.154  27.442  0.00  0.00    +0.015 A 
ENDBRANCH  38  39
ENDBRANCH  37  38
ENDBRANCH   1  37
TORSDOF 12
ENDMDL
MODEL 8
REMARK VINA RESULT:      -6.2      2.348      6.373
REMARK  Name = 
REMARK  16 active torsions:
REMARK  status: ('A' for Active; 'I' for Inactive)
REMARK    1  A    between atoms: C_1  and  C_2
REMARK    2  A    between atoms: C_3  and  C_9
REMARK    3  A    between atoms: C_7  and  O_8
REMARK    4  A    between atoms: N_11  and  C_12
REMARK    5  A    between atoms: C_12  and  C_14
REMARK    6  A    between atoms: C_12  and  C_22
REMARK    7  A    between atoms: C_14  and  S_15
REMARK    8  A    between atoms: S_15  and  C_16
REMARK    9  A    between atoms: C_22  and  C_23
REMARK   10  A    between atoms: C_22  and  O_44
REMARK   11  A    between atoms: C_23  and  N_24
REMARK   12  A    between atoms: C_35  and  C_37
REMARK   13  A    between atoms: N_39  and  C_40
REMARK   14  A    between atoms: C_40  and  C_41
REMARK   15  A    between atoms: C_40  and  C_42
REMARK   16  A    between atoms: C_40  and  C_43
REMARK                            x       y       z     vdW  Elec       q    Type
REMARK                         _______ _______ _______ _____ _____    ______ ____
ROOT
ATOM      1  C   UNL     1       6.207  -0.813  27.103  0.00  0.00    +0.113 C 
ENDROOT
BRANCH   1   3
ATOM      2  C   UNL     1       8.106  -0.192  25.601  0.00  0.00    +0.245 C 
ATOM      3  N   UNL     1       6.769  -0.467  25.773  0.00  0.00    -0.305 N 
ATOM      4  H   UNL     1       6.201  -0.643  24.950  0.00  0.00    +0.149 HD
ATOM      5  O   UNL     1       8.891  -0.150  26.545  0.00  0.00    -0.270 OA
BRANCH   2  12
ATOM      6  C   UNL     1       9.794  -2.362  24.086  0.00  0.00    +0.048 C 
ATOM      7  C   UNL     1       9.415  -1.018  23.529  0.00  0.00    +0.003 A 
ATOM      8  C   UNL     1       9.825  -0.714  22.215  0.00  0.00    +0.120 A 
ATOM      9  C   UNL     1       9.474   0.476  21.578  0.00  0.00    +0.046 A 
ATOM     10  C   UNL     1       8.667   1.388  22.244  0.00  0.00    +0.004 A 
ATOM     11  C   UNL     1       8.228   1.105  23.537  0.00  0.00    +0.013 A 
ATOM     12  C   UNL     1       8.619  -0.073  24.203  0.00  0.00    +0.043 A 
BRANCH   8  13
ATOM     13  O   UNL     1      10.584  -1.633  21.537  0.00  0.00    -0.506 OA
ATOM     14  H   UNL     1      10.671  -2.434  22.079  0.00  0.00    +0.292 HD
ENDBRANCH   8  13
ENDBRANCH   2  12
ENDBRANCH   1   3
BRANCH   1  15
ATOM     15  C   UNL     1       5.104  -1.910  26.963  0.00  0.00    +0.149 C 
BRANCH  15  16
ATOM     16  O   UNL     1       4.593  -2.332  28.233  0.00  0.00    -0.389 OA
ATOM     17  H   UNL     1       5.036  -3.167  28.465  0.00  0.00    +0.210 HD
ENDBRANCH  15  16
BRANCH  15  18
ATOM     18  C   UNL     1       5.518  -3.200  26.173  0.00  0.00    +0.118 C 
BRANCH  18  19
ATOM     19  N   UNL     1       4.356  -3.876  25.544  0.00  0.00    -0.289 NA
ATOM     20  C   UNL     1       4.326  -5.360  25.605  0.00  0.00    +0.143 C 
ATOM     21  C   UNL     1       5.155  -6.045  24.504  0.00  0.00    +0.032 C 
ATOM     22  C   UNL     1       4.817  -5.551  23.096  0.00  0.00    -0.005 C 
ATOM     23  C   UNL     1       4.922  -4.031  23.028  0.00  0.00    +0.006 C 
ATOM     24  C   UNL     1       6.367  -3.502  22.900  0.00  0.00    +0.005 C 
ATOM     25  C   UNL     1       7.502  -4.512  22.682  0.00  0.00    +0.000 C 
ATOM     26  C   UNL     1       7.164  -5.939  22.260  0.00  0.00    +0.000 C 
ATOM     27  C   UNL     1       5.689  -6.181  22.012  0.00  0.00    +0.004 C 
ATOM     28  C   UNL     1       4.067  -3.422  24.164  0.00  0.00    +0.089 C 
BRANCH  20  29
ATOM     29  C   UNL     1       4.732  -5.975  26.962  0.00  0.00    +0.231 C 
ATOM     30  N   UNL     1       4.210  -5.372  28.096  0.00  0.00    -0.309 N 
ATOM     31  H   UNL     1       3.734  -4.485  27.964  0.00  0.00    +0.149 HD
ATOM     32  O   UNL     1       5.398  -7.009  27.028  0.00  0.00    -0.274 OA
BRANCH  30  33
ATOM     33  C   UNL     1       4.308  -5.967  29.446  0.00  0.00    +0.026 C 
ATOM     34  C   UNL     1       3.465  -7.255  29.533  0.00  0.00    +0.031 C 
ATOM     35  C   UNL     1       3.753  -4.974  30.484  0.00  0.00    +0.031 C 
ATOM     36  C   UNL     1       5.769  -6.276  29.822  0.00  0.00    +0.031 C 
ENDBRANCH  30  33
ENDBRANCH  20  29
ENDBRANCH  18  19
ENDBRANCH  15  18
ENDBRANCH   1  15
BRANCH   1  37
ATOM     37  C   UNL     1       5.688   0.489  27.777  0.00  0.00    +0.099 C 
BRANCH  37  38
ATOM     38  S   UNL     1       4.504   1.468  26.768  0.00  0.00    -0.123 S 
BRANCH  38  39
ATOM     39  C   UNL     1       5.622   2.631  26.013  0.00  0.00    +0.008 A 
ATOM     40  C   UNL     1       6.746   3.058  26.726  0.00  0.00    +0.015 A 
ATOM     41  C   UNL     1       7.599   4.018  26.184  0.00  0.00    +0.001 A 
ATOM     42  C   UNL     1       7.334   4.560  24.927  0.00  0.00    +0.000 A 
ATOM     43  C   UNL     1       6.213   4.142  24.210  0.00  0.00    +0.001 A 
ATOM     44  C   UNL     1       5.355   3.180  24.757  0.00  0.00    +0.015 A 
ENDBRANCH  38  39
ENDBRANCH  37  38
ENDBRANCH   1  37
TORSDOF 12
ENDMDL
MODEL 9
REMARK VINA RESULT:      -6.1      2.215      5.138
REMARK  Name = 
REMARK  16 active torsions:
REMARK  status: ('A' for Active; 'I' for Inactive)
REMARK    1  A    between atoms: C_1  and  C_2
REMARK    2  A    between atoms: C_3  and  C_9
REMARK    3  A    between atoms: C_7  and  O_8
REMARK    4  A    between atoms: N_11  and  C_12
REMARK    5  A    between atoms: C_12  and  C_14
REMARK    6  A    between atoms: C_12  and  C_22
REMARK    7  A    between atoms: C_14  and  S_15
REMARK    8  A    between atoms: S_15  and  C_16
REMARK    9  A    between atoms: C_22  and  C_23
REMARK   10  A    between atoms: C_22  and  O_44
REMARK   11  A    between atoms: C_23  and  N_24
REMARK   12  A    between atoms: C_35  and  C_37
REMARK   13  A    between atoms: N_39  and  C_40
REMARK   14  A    between atoms: C_40  and  C_41
REMARK   15  A    between atoms: C_40  and  C_42
REMARK   16  A    between atoms: C_40  and  C_43
REMARK                            x       y       z     vdW  Elec       q    Type
REMARK                         _______ _______ _______ _____ _____    ______ ____
ROOT
ATOM      1  C   UNL     1       7.896  -3.395  26.517  0.00  0.00    +0.113 C 
ENDROOT
BRANCH   1   3
ATOM      2  C   UNL     1       6.449  -5.302  27.233  0.00  0.00    +0.245 C 
ATOM      3  N   UNL     1       6.628  -4.165  26.479  0.00  0.00    -0.305 N 
ATOM      4  H   UNL     1       5.813  -3.731  26.056  0.00  0.00    +0.149 HD
ATOM      5  O   UNL     1       7.348  -5.777  27.923  0.00  0.00    -0.270 OA
BRANCH   2  12
ATOM      6  C   UNL     1       4.925  -6.667  24.852  0.00  0.00    +0.048 C 
ATOM      7  C   UNL     1       4.363  -6.457  26.230  0.00  0.00    +0.003 A 
ATOM      8  C   UNL     1       3.061  -6.932  26.485  0.00  0.00    +0.120 A 
ATOM      9  C   UNL     1       2.467  -6.847  27.745  0.00  0.00    +0.046 A 
ATOM     10  C   UNL     1       3.189  -6.305  28.799  0.00  0.00    +0.004 A 
ATOM     11  C   UNL     1       4.488  -5.846  28.581  0.00  0.00    +0.013 A 
ATOM     12  C   UNL     1       5.074  -5.884  27.302  0.00  0.00    +0.043 A 
BRANCH   8  13
ATOM     13  O   UNL     1       2.362  -7.511  25.458  0.00  0.00    -0.506 OA
ATOM     14  H   UNL     1       1.432  -7.241  25.516  0.00  0.00    +0.292 HD
ENDBRANCH   8  13
ENDBRANCH   2  12
ENDBRANCH   1   3
BRANCH   1  15
ATOM     15  C   UNL     1       7.607  -1.875  26.732  0.00  0.00    +0.149 C 
BRANCH  15  16
ATOM     16  O   UNL     1       6.263  -1.632  27.164  0.00  0.00    -0.389 OA
ATOM     17  H   UNL     1       6.260  -0.789  27.651  0.00  0.00    +0.210 HD
ENDBRANCH  15  16
BRANCH  15  18
ATOM     18  C   UNL     1       7.879  -0.945  25.498  0.00  0.00    +0.118 C 
BRANCH  18  19
ATOM     19  N   UNL     1       8.903   0.089  25.784  0.00  0.00    -0.289 NA
ATOM     20  C   UNL     1       8.512   1.505  25.559  0.00  0.00    +0.143 C 
ATOM     21  C   UNL     1       8.644   1.962  24.096  0.00  0.00    +0.032 C 
ATOM     22  C   UNL     1      10.022   1.677  23.494  0.00  0.00    -0.005 C 
ATOM     23  C   UNL     1      10.381   0.204  23.667  0.00  0.00    +0.006 C 
ATOM     24  C   UNL     1       9.706  -0.736  22.645  0.00  0.00    +0.005 C 
ATOM     25  C   UNL     1       8.911  -0.113  21.488  0.00  0.00    +0.000 C 
ATOM     26  C   UNL     1       9.085   1.370  21.174  0.00  0.00    +0.000 C 
ATOM     27  C   UNL     1      10.128   2.068  22.022  0.00  0.00    +0.004 C 
ATOM     28  C   UNL     1      10.220  -0.175  25.158  0.00  0.00    +0.089 C 
BRANCH  20  29
ATOM     29  C   UNL     1       7.101   1.888  26.054  0.00  0.00    +0.231 C 
ATOM     30  N   UNL     1       6.265   2.500  25.131  0.00  0.00    -0.309 N 
ATOM     31  H   UNL     1       6.688   2.793  24.256  0.00  0.00    +0.149 HD
ATOM     32  O   UNL     1       6.703   1.572  27.176  0.00  0.00    -0.274 OA
BRANCH  30  33
ATOM     33  C   UNL     1       4.823   2.718  25.367  0.00  0.00    +0.026 C 
ATOM     34  C   UNL     1       4.187   1.478  26.026  0.00  0.00    +0.031 C 
ATOM     35  C   UNL     1       4.112   2.946  24.020  0.00  0.00    +0.031 C 
ATOM     36  C   UNL     1       4.576   3.958  26.247  0.00  0.00    +0.031 C 
ENDBRANCH  30  33
ENDBRANCH  20  29
ENDBRANCH  18  19
ENDBRANCH  15  18
ENDBRANCH   1  15
BRANCH   1  37
ATOM     37  C   UNL     1       8.692  -3.684  25.212  0.00  0.00    +0.099 C 
BRANCH  37  38
ATOM     38  S   UNL     1       8.486  -5.379  24.535  0.00  0.00    -0.123 S 
BRANCH  38  39
ATOM     39  C   UNL     1       7.533  -5.021  23.074  0.00  0.00    +0.008 A 
ATOM     40  C   UNL     1       7.012  -3.736  22.898  0.00  0.00    +0.015 A 
ATOM     41  C   UNL     1       6.207  -3.448  21.797  0.00  0.00    +0.001 A 
ATOM     42  C   UNL     1       5.914  -4.444  20.865  0.00  0.00    +0.000 A 
ATOM     43  C   UNL     1       6.428  -5.730  21.035  0.00  0.00    +0.001 A 
ATOM     44  C   UNL     1       7.233  -6.017  22.143  0.00  0.00    +0.015 A 
ENDBRANCH  38  39
ENDBRANCH  37  38
ENDBRANCH   1  37
TORSDOF 12
ENDMDL
