MODEL 1
REMARK VINA RESULT:      -6.4      0.000      0.000
REMARK  Name = 
REMARK  6 active torsions:
REMARK  status: ('A' for Active; 'I' for Inactive)
REMARK    1  A    between atoms: C6_3  and  N6_22
REMARK    2  A    between atoms: N9_7  and  C1*_10
REMARK    3  A    between atoms: C2*_11  and  O2*_21
REMARK    4  A    between atoms: C3*_13  and  O3*_20
REMARK    5  A    between atoms: C4*_15  and  C5*_18
REMARK    6  A    between atoms: C5*_18  and  O5*_19
REMARK                            x       y       z     vdW  Elec       q    Type
REMARK                         _______ _______ _______ _____ _____    ______ ____
ROOT
ATOM      1  C2    A A   1      10.603   0.836  24.878  0.00  0.00    +0.225 A 
ATOM      2  N3    A A   1      10.234  -0.466  24.858  0.00  0.00    -0.216 NA
ATOM      3  C4    A A   1       9.765  -0.815  23.646  0.00  0.00    +0.167 A 
ATOM      4  N9    A A   1       9.274  -2.026  23.239  0.00  0.00    -0.286 N 
ATOM      5  C8    A A   1       8.916  -1.893  21.916  0.00  0.00    +0.203 A 
ATOM      6  N7    A A   1       9.144  -0.682  21.456  0.00  0.00    -0.231 NA
ATOM      7  C5    A A   1       9.674  -0.000  22.526  0.00  0.00    +0.147 A 
ATOM      8  C6    A A   1      10.113   1.328  22.667  0.00  0.00    +0.147 A 
ATOM      9  N1    A A   1      10.567   1.735  23.874  0.00  0.00    -0.219 NA
ENDROOT
BRANCH   4  10
ATOM     10  C1*   A A   1       9.203  -3.283  23.945  0.00  0.00    +0.253 C 
ATOM     11  O4*   A A   1       8.112  -4.057  23.398  0.00  0.00    -0.346 OA
ATOM     12  C4*   A A   1       7.843  -5.120  24.348  0.00  0.00    +0.177 C 
ATOM     13  C3*   A A   1       8.619  -4.792  25.637  0.00  0.00    +0.178 C 
ATOM     14  C2*   A A   1       8.999  -3.325  25.465  0.00  0.00    +0.195 C 
BRANCH  13  15
ATOM     15  O3*   A A   1       9.820  -5.579  25.666  0.00  0.00    -0.386 OA
ATOM     16  H3*   A A   1      10.572  -4.960  25.615  0.00  0.00    +0.210 HD
ENDBRANCH  13  15
BRANCH  14  17
ATOM     17  O2*   A A   1       7.913  -2.531  25.939  0.00  0.00    -0.385 OA
ATOM     18  H2*   A A   1       8.305  -1.799  26.461  0.00  0.00    +0.210 HD
ENDBRANCH  14  17
BRANCH  12  19
ATOM     19  C5*   A A   1       6.328  -5.261  24.523  0.00  0.00    +0.190 C 
BRANCH  19  20
ATOM     20  O5*   A A   1       5.654  -4.011  24.600  0.00  0.00    -0.392 OA
ATOM     21  H5*   A A   1       4.763  -4.140  24.227  0.00  0.00    +0.210 HD
ENDBRANCH  19  20
ENDBRANCH  12  19
ENDBRANCH   4  10
BRANCH   8  22
ATOM     22  N6    A A   1      10.086   2.248  21.629  0.00  0.00    -0.341 N 
ATOM     23  H61   A A   1       9.527   3.068  21.837  0.00  0.00    +0.144 HD
ATOM     24  H62   A A   1      11.002   2.395  21.224  0.00  0.00    +0.144 HD
ENDBRANCH   8  22
TORSDOF 6
ENDMDL
MODEL 2
REMARK VINA RESULT:      -6.4      3.146      5.840
REMARK  Name = 
REMARK  6 active torsions:
REMARK  status: ('A' for Active; 'I' for Inactive)
REMARK    1  A    between atoms: C6_3  and  N6_22
REMARK    2  A    between atoms: N9_7  and  C1*_10
REMARK    3  A    between atoms: C2*_11  and  O2*_21
REMARK    4  A    between atoms: C3*_13  and  O3*_20
REMARK    5  A    between atoms: C4*_15  and  C5*_18
REMARK    6  A    between atoms: C5*_18  and  O5*_19
REMARK                            x       y       z     vdW  Elec       q    Type
REMARK                         _______ _______ _______ _____ _____    ______ ____
ROOT
ATOM      1  C2    A A   1       5.856  -3.432  21.448  0.00  0.00    +0.225 A 
ATOM      2  N3    A A   1       6.788  -2.677  22.076  0.00  0.00    -0.216 NA
ATOM      3  C4    A A   1       7.554  -3.432  22.883  0.00  0.00    +0.167 A 
ATOM      4  N9    A A   1       8.578  -3.035  23.700  0.00  0.00    -0.286 N 
ATOM      5  C8    A A   1       9.054  -4.165  24.329  0.00  0.00    +0.203 A 
ATOM      6  N7    A A   1       8.402  -5.249  23.970  0.00  0.00    -0.231 NA
ATOM      7  C5    A A   1       7.464  -4.805  23.067  0.00  0.00    +0.147 A 
ATOM      8  C6    A A   1       6.469  -5.481  22.339  0.00  0.00    +0.147 A 
ATOM      9  N1    A A   1       5.654  -4.762  21.535  0.00  0.00    -0.219 NA
ENDROOT
BRANCH   4  10
ATOM     10  C1*   A A   1       9.187  -1.737  23.862  0.00  0.00    +0.253 C 
ATOM     11  O4*   A A   1       8.178  -0.725  23.644  0.00  0.00    -0.346 OA
ATOM     12  C4*   A A   1       8.885   0.528  23.451  0.00  0.00    +0.177 C 
ATOM     13  C3*   A A   1      10.376   0.191  23.270  0.00  0.00    +0.178 C 
ATOM     14  C2*   A A   1      10.375  -1.309  22.992  0.00  0.00    +0.195 C 
BRANCH  13  15
ATOM     15  O3*   A A   1      11.057   0.430  24.512  0.00  0.00    -0.386 OA
ATOM     16  H3*   A A   1      12.007   0.269  24.356  0.00  0.00    +0.210 HD
ENDBRANCH  13  15
BRANCH  14  17
ATOM     17  O2*   A A   1      10.183  -1.497  21.591  0.00  0.00    -0.385 OA
ATOM     18  H2*   A A   1      11.038  -1.809  21.227  0.00  0.00    +0.210 HD
ENDBRANCH  14  17
BRANCH  12  19
ATOM     19  C5*   A A   1       8.246   1.286  22.283  0.00  0.00    +0.190 C 
BRANCH  19  20
ATOM     20  O5*   A A   1       9.047   1.284  21.109  0.00  0.00    -0.392 OA
ATOM     21  H5*   A A   1       8.441   1.247  20.346  0.00  0.00    +0.210 HD
ENDBRANCH  19  20
ENDBRANCH  12  19
ENDBRANCH   4  10
BRANCH   8  22
ATOM     22  N6    A A   1       6.272  -6.852  22.421  0.00  0.00    -0.341 N 
ATOM     23  H61   A A   1       5.812  -7.138  23.279  0.00  0.00    +0.144 HD
ATOM     24  H62   A A   1       5.929  -7.242  21.552  0.00  0.00    +0.144 HD
ENDBRANCH   8  22
TORSDOF 6
ENDMDL
MODEL 3
REMARK VINA RESULT:      -6.2      3.289      5.777
REMARK  Name = 
REMARK  6 active torsions:
REMARK  status: ('A' for Active; 'I' for Inactive)
REMARK    1  A    between atoms: C6_3  and  N6_22
REMARK    2  A    between atoms: N9_7  and  C1*_10
REMARK    3  A    between atoms: C2*_11  and  O2*_21
REMARK    4  A    between atoms: C3*_13  and  O3*_20
REMARK    5  A    between atoms: C4*_15  and  C5*_18
REMARK    6  A    between atoms: C5*_18  and  O5*_19
REMARK                            x       y       z     vdW  Elec       q    Type
REMARK                         _______ _______ _______ _____ _____    ______ ____
ROOT
ATOM      1  C2    A A   1       7.333  -3.932  26.771  0.00  0.00    +0.225 A 
ATOM      2  N3    A A   1       7.143  -2.809  26.039  0.00  0.00    -0.216 NA
ATOM      3  C4    A A   1       8.122  -2.657  25.129  0.00  0.00    +0.167 A 
ATOM      4  N9    A A   1       8.297  -1.641  24.228  0.00  0.00    -0.286 N 
ATOM      5  C8    A A   1       9.440  -1.926  23.514  0.00  0.00    +0.203 A 
ATOM      6  N7    A A   1      10.003  -3.049  23.902  0.00  0.00    -0.231 NA
ATOM      7  C5    A A   1       9.190  -3.515  24.908  0.00  0.00    +0.147 A 
ATOM      8  C6    A A   1       9.263  -4.662  25.718  0.00  0.00    +0.147 A 
ATOM      9  N1    A A   1       8.318  -4.846  26.667  0.00  0.00    -0.219 NA
ENDROOT
BRANCH   4  10
ATOM     10  C1*   A A   1       7.451  -0.509  23.930  0.00  0.00    +0.253 C 
ATOM     11  O4*   A A   1       7.920   0.106  22.710  0.00  0.00    -0.346 OA
ATOM     12  C4*   A A   1       7.301   1.417  22.644  0.00  0.00    +0.177 C 
ATOM     13  C3*   A A   1       6.663   1.693  24.018  0.00  0.00    +0.178 C 
ATOM     14  C2*   A A   1       7.299   0.646  24.927  0.00  0.00    +0.195 C 
BRANCH  13  15
ATOM     15  O3*   A A   1       5.253   1.435  23.933  0.00  0.00    -0.386 OA
ATOM     16  H3*   A A   1       5.131   0.470  24.007  0.00  0.00    +0.210 HD
ENDBRANCH  13  15
BRANCH  14  17
ATOM     17  O2*   A A   1       8.531   1.175  25.414  0.00  0.00    -0.385 OA
ATOM     18  H2*   A A   1       8.916   0.496  26.007  0.00  0.00    +0.210 HD
ENDBRANCH  14  17
BRANCH  12  19
ATOM     19  C5*   A A   1       8.348   2.442  22.199  0.00  0.00    +0.190 C 
BRANCH  19  20
ATOM     20  O5*   A A   1       9.339   1.894  21.339  0.00  0.00    -0.392 OA
ATOM     21  H5*   A A   1       9.213   2.296  20.460  0.00  0.00    +0.210 HD
ENDBRANCH  19  20
ENDBRANCH  12  19
ENDBRANCH   4  10
BRANCH   8  22
ATOM     22  N6    A A   1      10.272  -5.608  25.600  0.00  0.00    -0.341 N 
ATOM     23  H61   A A   1      10.756  -5.784  26.473  0.00  0.00    +0.144 HD
ATOM     24  H62   A A   1       9.983  -6.409  25.054  0.00  0.00    +0.144 HD
ENDBRANCH   8  22
TORSDOF 6
ENDMDL
MODEL 4
REMARK VINA RESULT:      -6.2      2.178      2.960
REMARK  Name = 
REMARK  6 active torsions:
REMARK  status: ('A' for Active; 'I' for Inactive)
REMARK    1  A    between atoms: C6_3  and  N6_22
REMARK    2  A    between atoms: N9_7  and  C1*_10
REMARK    3  A    between atoms: C2*_11  and  O2*_21
REMARK    4  A    between atoms: C3*_13  and  O3*_20
REMARK    5  A    between atoms: C4*_15  and  C5*_18
REMARK    6  A    between atoms: C5*_18  and  O5*_19
REMARK                            x       y       z     vdW  Elec       q    Type
REMARK                         _______ _______ _______ _____ _____    ______ ____
ROOT
ATOM      1  C2    A A   1       6.881   1.590  23.482  0.00  0.00    +0.225 A 
ATOM      2  N3    A A   1       6.701   0.251  23.563  0.00  0.00    -0.216 NA
ATOM      3  C4    A A   1       7.678  -0.407  22.914  0.00  0.00    +0.167 A 
ATOM      4  N9    A A   1       7.831  -1.756  22.746  0.00  0.00    -0.286 N 
ATOM      5  C8    A A   1       8.980  -1.945  22.010  0.00  0.00    +0.203 A 
ATOM      6  N7    A A   1       9.564  -0.809  21.696  0.00  0.00    -0.231 NA
ATOM      7  C5    A A   1       8.762   0.158  22.255  0.00  0.00    +0.147 A 
ATOM      8  C6    A A   1       8.851   1.561  22.262  0.00  0.00    +0.147 A 
ATOM      9  N1    A A   1       7.877   2.268  22.878  0.00  0.00    -0.219 NA
ENDROOT
BRANCH   4  10
ATOM     10  C1*   A A   1       7.061  -2.852  23.286  0.00  0.00    +0.253 C 
ATOM     11  O4*   A A   1       7.761  -4.085  23.011  0.00  0.00    -0.346 OA
ATOM     12  C4*   A A   1       6.808  -5.158  23.230  0.00  0.00    +0.177 C 
ATOM     13  C3*   A A   1       5.416  -4.515  23.367  0.00  0.00    +0.178 C 
ATOM     14  C2*   A A   1       5.618  -3.101  22.831  0.00  0.00    +0.195 C 
BRANCH  13  15
ATOM     15  O3*   A A   1       5.079  -4.436  24.761  0.00  0.00    -0.386 OA
ATOM     16  H3*   A A   1       4.308  -5.016  24.905  0.00  0.00    +0.210 HD
ENDBRANCH  13  15
BRANCH  14  17
ATOM     17  O2*   A A   1       5.441  -3.138  21.416  0.00  0.00    -0.385 OA
ATOM     18  H2*   A A   1       5.939  -3.916  21.088  0.00  0.00    +0.210 HD
ENDBRANCH  14  17
BRANCH  12  19
ATOM     19  C5*   A A   1       6.940  -6.181  22.097  0.00  0.00    +0.190 C 
BRANCH  19  20
ATOM     20  O5*   A A   1       5.772  -6.280  21.294  0.00  0.00    -0.392 OA
ATOM     21  H5*   A A   1       5.994  -6.845  20.530  0.00  0.00    +0.210 HD
ENDBRANCH  19  20
ENDBRANCH  12  19
ENDBRANCH   4  10
BRANCH   8  22
ATOM     22  N6    A A   1       9.884   2.257  21.650  0.00  0.00    -0.341 N 
ATOM     23  H61   A A   1      10.707   2.343  22.235  0.00  0.00    +0.144 HD
ATOM     24  H62   A A   1      10.019   1.972  20.688  0.00  0.00    +0.144 HD
ENDBRANCH   8  22
TORSDOF 6
ENDMDL
MODEL 5
REMARK VINA RESULT:      -6.1      3.255      5.925
REMARK  Name = 
REMARK  6 active torsions:
REMARK  status: ('A' for Active; 'I' for Inactive)
REMARK    1  A    between atoms: C6_3  and  N6_22
REMARK    2  A    between atoms: N9_7  and  C1*_10
REMARK    3  A    between atoms: C2*_11  and  O2*_21
REMARK    4  A    between atoms: C3*_13  and  O3*_20
REMARK    5  A    between atoms: C4*_15  and  C5*_18
REMARK    6  A    between atoms: C5*_18  and  O5*_19
REMARK                            x       y       z     vdW  Elec       q    Type
REMARK                         _______ _______ _______ _____ _____    ______ ____
ROOT
ATOM      1  C2    A A   1       6.430  -5.125  25.999  0.00  0.00    +0.225 A 
ATOM      2  N3    A A   1       7.104  -4.019  25.608  0.00  0.00    -0.216 NA
ATOM      3  C4    A A   1       6.962  -3.811  24.286  0.00  0.00    +0.167 A 
ATOM      4  N9    A A   1       7.509  -2.821  23.516  0.00  0.00    -0.286 N 
ATOM      5  C8    A A   1       7.077  -3.028  22.225  0.00  0.00    +0.203 A 
ATOM      6  N7    A A   1       6.297  -4.081  22.122  0.00  0.00    -0.231 NA
ATOM      7  C5    A A   1       6.217  -4.579  23.401  0.00  0.00    +0.147 A 
ATOM      8  C6    A A   1       5.541  -5.690  23.935  0.00  0.00    +0.147 A 
ATOM      9  N1    A A   1       5.675  -5.957  25.254  0.00  0.00    -0.219 NA
ENDROOT
BRANCH   4  10
ATOM     10  C1*   A A   1       8.303  -1.678  23.900  0.00  0.00    +0.253 C 
ATOM     11  O4*   A A   1       8.118  -0.638  22.915  0.00  0.00    -0.346 OA
ATOM     12  C4*   A A   1       9.184   0.324  23.126  0.00  0.00    +0.177 C 
ATOM     13  C3*   A A   1      10.199  -0.318  24.090  0.00  0.00    +0.178 C 
ATOM     14  C2*   A A   1       9.822  -1.796  24.076  0.00  0.00    +0.195 C 
BRANCH  13  15
ATOM     15  O3*   A A   1       9.975   0.203  25.410  0.00  0.00    -0.386 OA
ATOM     16  H3*   A A   1      10.837   0.510  25.749  0.00  0.00    +0.210 HD
ENDBRANCH  13  15
BRANCH  14  17
ATOM     17  O2*   A A   1      10.499  -2.413  22.984  0.00  0.00    -0.385 OA
ATOM     18  H2*   A A   1      10.551  -1.744  22.268  0.00  0.00    +0.210 HD
ENDBRANCH  14  17
BRANCH  12  19
ATOM     19  C5*   A A   1       9.757   0.740  21.767  0.00  0.00    +0.190 C 
BRANCH  19  20
ATOM     20  O5*   A A   1       9.633   2.132  21.509  0.00  0.00    -0.392 OA
ATOM     21  H5*   A A   1       9.407   2.563  22.354  0.00  0.00    +0.210 HD
ENDBRANCH  19  20
ENDBRANCH  12  19
ENDBRANCH   4  10
BRANCH   8  22
ATOM     22  N6    A A   1       4.755  -6.538  23.167  0.00  0.00    -0.341 N 
ATOM     23  H61   A A   1       4.974  -7.518  23.306  0.00  0.00    +0.144 HD
ATOM     24  H62   A A   1       3.779  -6.269  23.178  0.00  0.00    +0.144 HD
ENDBRANCH   8  22
TORSDOF 6
ENDMDL
MODEL 6
REMARK VINA RESULT:      -6.1      1.332      2.693
REMARK  Name = 
REMARK  6 active torsions:
REMARK  status: ('A' for Active; 'I' for Inactive)
REMARK    1  A    between atoms: C6_3  and  N6_22
REMARK    2  A    between atoms: N9_7  and  C1*_10
REMARK    3  A    between atoms: C2*_11  and  O2*_21
REMARK    4  A    between atoms: C3*_13  and  O3*_20
REMARK    5  A    between atoms: C4*_15  and  C5*_18
REMARK    6  A    between atoms: C5*_18  and  O5*_19
REMARK                            x       y       z     vdW  Elec       q    Type
REMARK                         _______ _______ _______ _____ _____    ______ ____
ROOT
ATOM      1  C2    A A   1       9.345   0.180  21.369  0.00  0.00    +0.225 A 
ATOM      2  N3    A A   1       8.797  -0.846  22.062  0.00  0.00    -0.216 NA
ATOM      3  C4    A A   1       8.979  -0.684  23.385  0.00  0.00    +0.167 A 
ATOM      4  N9    A A   1       8.598  -1.513  24.404  0.00  0.00    -0.286 N 
ATOM      5  C8    A A   1       9.007  -0.923  25.580  0.00  0.00    +0.203 A 
ATOM      6  N7    A A   1       9.623   0.220  25.377  0.00  0.00    -0.231 NA
ATOM      7  C5    A A   1       9.611   0.381  24.011  0.00  0.00    +0.147 A 
ATOM      8  C6    A A   1      10.118   1.398  23.182  0.00  0.00    +0.147 A 
ATOM      9  N1    A A   1       9.985   1.267  21.843  0.00  0.00    -0.219 NA
ENDROOT
BRANCH   4  10
ATOM     10  C1*   A A   1       7.822  -2.730  24.370  0.00  0.00    +0.253 C 
ATOM     11  O4*   A A   1       7.288  -2.973  25.691  0.00  0.00    -0.346 OA
ATOM     12  C4*   A A   1       6.840  -4.353  25.707  0.00  0.00    +0.177 C 
ATOM     13  C3*   A A   1       7.388  -5.030  24.438  0.00  0.00    +0.178 C 
ATOM     14  C2*   A A   1       8.457  -4.060  23.946  0.00  0.00    +0.195 C 
BRANCH  13  15
ATOM     15  O3*   A A   1       6.338  -5.093  23.459  0.00  0.00    -0.386 OA
ATOM     16  H3*   A A   1       5.823  -5.901  23.641  0.00  0.00    +0.210 HD
ENDBRANCH  13  15
BRANCH  14  17
ATOM     17  O2*   A A   1       9.677  -4.374  24.616  0.00  0.00    -0.385 OA
ATOM     18  H2*   A A   1       9.624  -3.967  25.507  0.00  0.00    +0.210 HD
ENDBRANCH  14  17
BRANCH  12  19
ATOM     19  C5*   A A   1       7.275  -5.002  27.025  0.00  0.00    +0.190 C 
BRANCH  19  20
ATOM     20  O5*   A A   1       8.353  -5.915  26.871  0.00  0.00    -0.392 OA
ATOM     21  H5*   A A   1       8.937  -5.805  27.645  0.00  0.00    +0.210 HD
ENDBRANCH  19  20
ENDBRANCH  12  19
ENDBRANCH   4  10
BRANCH   8  22
ATOM     22  N6    A A   1      10.766   2.522  23.674  0.00  0.00    -0.341 N 
ATOM     23  H61   A A   1      11.362   2.970  22.987  0.00  0.00    +0.144 HD
ATOM     24  H62   A A   1      10.148   3.112  24.216  0.00  0.00    +0.144 HD
ENDBRANCH   8  22
TORSDOF 6
ENDMDL
MODEL 7
REMARK VINA RESULT:      -6.0      1.942      3.347
REMARK  Name = 
REMARK  6 active torsions:
REMARK  status: ('A' for Active; 'I' for Inactive)
REMARK    1  A    between atoms: C6_3  and  N6_22
REMARK    2  A    between atoms: N9_7  and  C1*_10
REMARK    3  A    between atoms: C2*_11  and  O2*_21
REMARK    4  A    between atoms: C3*_13  and  O3*_20
REMARK    5  A    between atoms: C4*_15  and  C5*_18
REMARK    6  A    between atoms: C5*_18  and  O5*_19
REMARK                            x       y       z     vdW  Elec       q    Type
REMARK                         _______ _______ _______ _____ _____    ______ ____
ROOT
ATOM      1  C2    A A   1       9.811  -0.481  21.880  0.00  0.00    +0.225 A 
ATOM      2  N3    A A   1       8.944  -1.519  21.936  0.00  0.00    -0.216 NA
ATOM      3  C4    A A   1       8.655  -1.836  23.211  0.00  0.00    +0.167 A 
ATOM      4  N9    A A   1       7.848  -2.838  23.677  0.00  0.00    -0.286 N 
ATOM      5  C8    A A   1       7.868  -2.766  25.053  0.00  0.00    +0.203 A 
ATOM      6  N7    A A   1       8.634  -1.791  25.491  0.00  0.00    -0.231 NA
ATOM      7  C5    A A   1       9.131  -1.203  24.351  0.00  0.00    +0.147 A 
ATOM      8  C6    A A   1      10.006  -0.120  24.160  0.00  0.00    +0.147 A 
ATOM      9  N1    A A   1      10.349   0.220  22.897  0.00  0.00    -0.219 NA
ENDROOT
BRANCH   4  10
ATOM     10  C1*   A A   1       7.011  -3.767  22.956  0.00  0.00    +0.253 C 
ATOM     11  O4*   A A   1       5.906  -4.146  23.806  0.00  0.00    -0.346 OA
ATOM     12  C4*   A A   1       5.311  -5.327  23.207  0.00  0.00    +0.177 C 
ATOM     13  C3*   A A   1       6.277  -5.825  22.116  0.00  0.00    +0.178 C 
ATOM     14  C2*   A A   1       7.577  -5.089  22.424  0.00  0.00    +0.195 C 
BRANCH  13  15
ATOM     15  O3*   A A   1       5.792  -5.390  20.836  0.00  0.00    -0.386 OA
ATOM     16  H3*   A A   1       5.916  -6.131  20.214  0.00  0.00    +0.210 HD
ENDBRANCH  13  15
BRANCH  14  17
ATOM     17  O2*   A A   1       8.300  -5.855  23.386  0.00  0.00    -0.385 OA
ATOM     18  H2*   A A   1       8.782  -6.550  22.890  0.00  0.00    +0.210 HD
ENDBRANCH  14  17
BRANCH  12  19
ATOM     19  C5*   A A   1       5.002  -6.343  24.311  0.00  0.00    +0.190 C 
BRANCH  19  20
ATOM     20  O5*   A A   1       4.375  -7.523  23.826  0.00  0.00    -0.392 OA
ATOM     21  H5*   A A   1       3.426  -7.324  23.723  0.00  0.00    +0.210 HD
ENDBRANCH  19  20
ENDBRANCH  12  19
ENDBRANCH   4  10
BRANCH   8  22
ATOM     22  N6    A A   1      10.550   0.608  25.209  0.00  0.00    -0.341 N 
ATOM     23  H61   A A   1      11.469   0.281  25.486  0.00  0.00    +0.144 HD
ATOM     24  H62   A A   1      10.422   1.604  25.091  0.00  0.00    +0.144 HD
ENDBRANCH   8  22
TORSDOF 6
ENDMDL
MODEL 8
REMARK VINA RESULT:      -5.8      3.068      5.761
REMARK  Name = 
REMARK  6 active torsions:
REMARK  status: ('A' for Active; 'I' for Inactive)
REMARK    1  A    between atoms: C6_3  and  N6_22
REMARK    2  A    between atoms: N9_7  and  C1*_10
REMARK    3  A    between atoms: C2*_11  and  O2*_21
REMARK    4  A    between atoms: C3*_13  and  O3*_20
REMARK    5  A    between atoms: C4*_15  and  C5*_18
REMARK    6  A    between atoms: C5*_18  and  O5*_19
REMARK                            x       y       z     vdW  Elec       q    Type
REMARK                         _______ _______ _______ _____ _____    ______ ____
ROOT
ATOM      1  C2    A A   1       6.820  -2.281  26.539  0.00  0.00    +0.225 A 
ATOM      2  N3    A A   1       7.445  -1.441  25.680  0.00  0.00    -0.216 NA
ATOM      3  C4    A A   1       8.435  -2.074  25.024  0.00  0.00    +0.167 A 
ATOM      4  N9    A A   1       9.307  -1.563  24.102  0.00  0.00    -0.286 N 
ATOM      5  C8    A A   1      10.137  -2.592  23.717  0.00  0.00    +0.203 A 
ATOM      6  N7    A A   1       9.855  -3.719  24.333  0.00  0.00    -0.231 NA
ATOM      7  C5    A A   1       8.794  -3.409  25.151  0.00  0.00    +0.147 A 
ATOM      8  C6    A A   1       8.051  -4.184  26.059  0.00  0.00    +0.147 A 
ATOM      9  N1    A A   1       7.063  -3.587  26.763  0.00  0.00    -0.219 NA
ENDROOT
BRANCH   4  10
ATOM     10  C1*   A A   1       9.360  -0.251  23.502  0.00  0.00    +0.253 C 
ATOM     11  O4*   A A   1       9.541   0.727  24.550  0.00  0.00    -0.346 OA
ATOM     12  C4*   A A   1       9.225   2.019  23.968  0.00  0.00    +0.177 C 
ATOM     13  C3*   A A   1       8.563   1.758  22.603  0.00  0.00    +0.178 C 
ATOM     14  C2*   A A   1       8.194   0.279  22.659  0.00  0.00    +0.195 C 
BRANCH  13  15
ATOM     15  O3*   A A   1       9.542   1.952  21.570  0.00  0.00    -0.386 OA
ATOM     16  H3*   A A   1       9.809   2.889  21.598  0.00  0.00    +0.210 HD
ENDBRANCH  13  15
BRANCH  14  17
ATOM     17  O2*   A A   1       6.915   0.167  23.279  0.00  0.00    -0.385 OA
ATOM     18  H2*   A A   1       6.962  -0.599  23.888  0.00  0.00    +0.210 HD
ENDBRANCH  14  17
BRANCH  12  19
ATOM     19  C5*   A A   1       8.373   2.817  24.960  0.00  0.00    +0.190 C 
BRANCH  19  20
ATOM     20  O5*   A A   1       7.973   2.058  26.093  0.00  0.00    -0.392 OA
ATOM     21  H5*   A A   1       7.907   2.675  26.845  0.00  0.00    +0.210 HD
ENDBRANCH  19  20
ENDBRANCH  12  19
ENDBRANCH   4  10
BRANCH   8  22
ATOM     22  N6    A A   1       8.296  -5.532  26.280  0.00  0.00    -0.341 N 
ATOM     23  H61   A A   1       7.568  -6.135  25.914  0.00  0.00    +0.144 HD
ATOM     24  H62   A A   1       9.257  -5.783  26.082  0.00  0.00    +0.144 HD
ENDBRANCH   8  22
TORSDOF 6
ENDMDL
MODEL 9
REMARK VINA RESULT:      -5.8      3.095      6.210
REMARK  Name = 
REMARK  6 active torsions:
REMARK  status: ('A' for Active; 'I' for Inactive)
REMARK    1  A    between atoms: C6_3  and  N6_22
REMARK    2  A    between atoms: N9_7  and  C1*_10
REMARK    3  A    between atoms: C2*_11  and  O2*_21
REMARK    4  A    between atoms: C3*_13  and  O3*_20
REMARK    5  A    between atoms: C4*_15  and  C5*_18
REMARK    6  A    between atoms: C5*_18  and  O5*_19
REMARK                            x       y       z     vdW  Elec       q    Type
REMARK                         _______ _______ _______ _____ _____    ______ ____
ROOT
ATOM      1  C2    A A   1       5.553  -5.533  23.822  0.00  0.00    +0.225 A 
ATOM      2  N3    A A   1       6.544  -4.631  23.634  0.00  0.00    -0.216 NA
ATOM      3  C4    A A   1       7.229  -4.424  24.774  0.00  0.00    +0.167 A 
ATOM      4  N9    A A   1       8.276  -3.571  24.994  0.00  0.00    -0.286 N 
ATOM      5  C8    A A   1       8.639  -3.710  26.316  0.00  0.00    +0.203 A 
ATOM      6  N7    A A   1       7.893  -4.589  26.949  0.00  0.00    -0.231 NA
ATOM      7  C5    A A   1       7.010  -5.042  25.997  0.00  0.00    +0.147 A 
ATOM      8  C6    A A   1       5.965  -5.981  26.058  0.00  0.00    +0.147 A 
ATOM      9  N1    A A   1       5.229  -6.203  24.946  0.00  0.00    -0.219 NA
ENDROOT
BRANCH   4  10
ATOM     10  C1*   A A   1       9.001  -2.732  24.070  0.00  0.00    +0.253 C 
ATOM     11  O4*   A A   1       9.580  -1.631  24.804  0.00  0.00    -0.346 OA
ATOM     12  C4*   A A   1       9.973  -0.640  23.820  0.00  0.00    +0.177 C 
ATOM     13  C3*   A A   1       9.346  -1.052  22.476  0.00  0.00    +0.178 C 
ATOM     14  C2*   A A   1       8.295  -2.085  22.872  0.00  0.00    +0.195 C 
BRANCH  13  15
ATOM     15  O3*   A A   1      10.350  -1.698  21.677  0.00  0.00    -0.386 OA
ATOM     16  H3*   A A   1      10.133  -2.649  21.655  0.00  0.00    +0.210 HD
ENDBRANCH  13  15
BRANCH  14  17
ATOM     17  O2*   A A   1       7.094  -1.389  23.196  0.00  0.00    -0.385 OA
ATOM     18  H2*   A A   1       7.072  -0.584  22.636  0.00  0.00    +0.210 HD
ENDBRANCH  14  17
BRANCH  12  19
ATOM     19  C5*   A A   1       9.569   0.750  24.323  0.00  0.00    +0.190 C 
BRANCH  19  20
ATOM     20  O5*   A A   1       8.354   0.747  25.060  0.00  0.00    -0.392 OA
ATOM     21  H5*   A A   1       8.573   0.985  25.980  0.00  0.00    +0.210 HD
ENDBRANCH  19  20
ENDBRANCH  12  19
ENDBRANCH   4  10
BRANCH   8  22
ATOM     22  N6    A A   1       5.641  -6.677  27.214  0.00  0.00    -0.341 N 
ATOM     23  H61   A A   1       5.354  -7.633  27.035  0.00  0.00    +0.144 HD
ATOM     24  H62   A A   1       6.311  -6.520  27.956  0.00  0.00    +0.144 HD
ENDBRANCH   8  22
TORSDOF 6
ENDMDL
