MODEL 1
REMARK VINA RESULT:      -6.2      0.000      0.000
REMARK  Name = 
REMARK  11 active torsions:
REMARK  status: ('A' for Active; 'I' for Inactive)
REMARK    1  A    between atoms: C_1  and  C_2
REMARK    2  A    between atoms: N_4  and  C_5
REMARK    3  A    between atoms: C_7  and  C_20
REMARK    4  A    between atoms: C_10  and  C_17
REMARK    5  A    between atoms: C_12  and  N_13
REMARK    6  A    between atoms: C_17  and  O_19
REMARK    7  A    between atoms: C_20  and  C_22
REMARK    8  A    between atoms: C_20  and  O_27
REMARK    9  A    between atoms: C_22  and  C_24
REMARK   10  A    between atoms: C_22  and  O_26
REMARK   11  A    between atoms: C_24  and  O_25
REMARK                            x       y       z     vdW  Elec       q    Type
REMARK                         _______ _______ _______ _____ _____    ______ ____
ROOT
ATOM      1  C   UNL     1       7.179  -2.236  24.241  0.00  0.00    +0.170 C 
ATOM      2  C   UNL     1       7.440  -2.846  22.875  0.00  0.00    +0.141 C 
ATOM      3  C   UNL     1       7.031  -4.093  22.626  0.00  0.00    +0.059 C 
ATOM      4  C   UNL     1       6.179  -4.911  23.530  0.00  0.00    +0.253 C 
ATOM      5  O   UNL     1       5.767  -4.275  24.749  0.00  0.00    -0.353 OA
ATOM      6  C   UNL     1       6.563  -3.204  25.291  0.00  0.00    +0.178 C 
ENDROOT
BRANCH   2   7
ATOM      7  N   UNL     1       8.269  -2.123  22.047  0.00  0.00    -0.076 NA
ATOM      8  C   UNL     1       9.405  -1.626  22.412  0.00  0.00    +0.382 C 
ATOM      9  N   UNL     1      10.137  -0.953  21.486  0.00  0.00    -0.289 N 
ATOM     10  H   UNL     1      11.133  -1.090  21.552  0.00  0.00    +0.255 HD
ATOM     11  H   UNL     1       9.791  -1.154  20.552  0.00  0.00    +0.255 HD
ATOM     12  N   UNL     1      10.088  -1.672  23.572  0.00  0.00    -0.289 N 
ATOM     13  H   UNL     1      10.802  -0.970  23.743  0.00  0.00    +0.255 HD
ATOM     14  H   UNL     1       9.673  -2.077  24.403  0.00  0.00    +0.255 HD
ENDBRANCH   2   7
BRANCH   1  17
ATOM     15  C   UNL     1       5.768   1.278  24.162  0.00  0.00    +0.109 C 
ATOM     16  C   UNL     1       6.778   0.187  24.379  0.00  0.00    +0.211 C 
ATOM     17  N   UNL     1       6.323  -1.068  24.063  0.00  0.00    -0.303 N 
ATOM     18  H   UNL     1       5.413  -1.187  23.635  0.00  0.00    +0.149 HD
ATOM     19  O   UNL     1       7.906   0.410  24.810  0.00  0.00    -0.276 OA
ENDBRANCH   1  17
BRANCH   4  20
ATOM     20  C   UNL     1       4.849  -5.226  22.795  0.00  0.00    +0.338 C 
ATOM     21  O   UNL     1       3.756  -4.748  23.086  0.00  0.00    -0.248 OA
BRANCH  20  22
ATOM     22  O   UNL     1       5.021  -6.106  21.780  0.00  0.00    -0.479 OA
ATOM     23  H   UNL     1       4.328  -5.944  21.105  0.00  0.00    +0.295 HD
ENDBRANCH  20  22
ENDBRANCH   4  20
BRANCH   6  24
ATOM     24  C   UNL     1       7.560  -3.736  26.355  0.00  0.00    +0.176 C 
BRANCH  24  25
ATOM     25  O   UNL     1       8.679  -2.822  26.436  0.00  0.00    -0.387 OA
ATOM     26  H   UNL     1       8.322  -1.957  26.705  0.00  0.00    +0.210 HD
ENDBRANCH  24  25
BRANCH  24  27
ATOM     27  C   UNL     1       8.122  -5.155  26.046  0.00  0.00    +0.171 C 
BRANCH  27  28
ATOM     28  O   UNL     1       7.897  -5.997  27.193  0.00  0.00    -0.387 OA
ATOM     29  H   UNL     1       7.490  -6.824  26.885  0.00  0.00    +0.210 HD
ENDBRANCH  27  28
BRANCH  27  30
ATOM     30  C   UNL     1       9.636  -5.194  25.738  0.00  0.00    +0.189 C 
BRANCH  30  31
ATOM     31  O   UNL     1      10.003  -4.410  24.604  0.00  0.00    -0.392 OA
ATOM     32  H   UNL     1      10.557  -4.989  24.036  0.00  0.00    +0.210 HD
ENDBRANCH  30  31
ENDBRANCH  27  30
ENDBRANCH  24  27
ENDBRANCH   6  24
TORSDOF 10
ENDMDL
MODEL 2
REMARK VINA RESULT:      -6.0      1.842      4.525
REMARK  Name = 
REMARK  11 active torsions:
REMARK  status: ('A' for Active; 'I' for Inactive)
REMARK    1  A    between atoms: C_1  and  C_2
REMARK    2  A    between atoms: N_4  and  C_5
REMARK    3  A    between atoms: C_7  and  C_20
REMARK    4  A    between atoms: C_10  and  C_17
REMARK    5  A    between atoms: C_12  and  N_13
REMARK    6  A    between atoms: C_17  and  O_19
REMARK    7  A    between atoms: C_20  and  C_22
REMARK    8  A    between atoms: C_20  and  O_27
REMARK    9  A    between atoms: C_22  and  C_24
REMARK   10  A    between atoms: C_22  and  O_26
REMARK   11  A    between atoms: C_24  and  O_25
REMARK                            x       y       z     vdW  Elec       q    Type
REMARK                         _______ _______ _______ _____ _____    ______ ____
ROOT
ATOM      1  C   UNL     1       7.700  -1.835  23.288  0.00  0.00    +0.170 C 
ATOM      2  C   UNL     1       7.627  -1.856  24.804  0.00  0.00    +0.141 C 
ATOM      3  C   UNL     1       7.744  -3.020  25.450  0.00  0.00    +0.059 C 
ATOM      4  C   UNL     1       8.109  -4.316  24.817  0.00  0.00    +0.253 C 
ATOM      5  O   UNL     1       8.365  -4.275  23.405  0.00  0.00    -0.353 OA
ATOM      6  C   UNL     1       7.769  -3.233  22.609  0.00  0.00    +0.178 C 
ENDROOT
BRANCH   2   7
ATOM      7  N   UNL     1       7.241  -0.676  25.399  0.00  0.00    -0.076 NA
ATOM      8  C   UNL     1       8.045   0.113  26.035  0.00  0.00    +0.382 C 
ATOM      9  N   UNL     1       7.536   1.261  26.553  0.00  0.00    -0.289 N 
ATOM     10  H   UNL     1       8.150   2.059  26.499  0.00  0.00    +0.255 HD
ATOM     11  H   UNL     1       6.627   1.458  26.145  0.00  0.00    +0.255 HD
ATOM     12  N   UNL     1       9.370   0.066  26.270  0.00  0.00    -0.289 N 
ATOM     13  H   UNL     1       9.745   0.614  27.038  0.00  0.00    +0.255 HD
ATOM     14  H   UNL     1       9.914  -0.750  26.015  0.00  0.00    +0.255 HD
ENDBRANCH   2   7
BRANCH   1  17
ATOM     15  C   UNL     1       9.949   0.936  22.020  0.00  0.00    +0.109 C 
ATOM     16  C   UNL     1       8.671   0.242  22.397  0.00  0.00    +0.211 C 
ATOM     17  N   UNL     1       8.848  -1.023  22.898  0.00  0.00    -0.303 N 
ATOM     18  H   UNL     1       9.781  -1.378  23.068  0.00  0.00    +0.149 HD
ATOM     19  O   UNL     1       7.570   0.768  22.257  0.00  0.00    -0.276 OA
ENDBRANCH   1  17
BRANCH   4  20
ATOM     20  C   UNL     1       9.448  -4.801  25.434  0.00  0.00    +0.338 C 
ATOM     21  O   UNL     1      10.509  -4.895  24.824  0.00  0.00    -0.248 OA
BRANCH  20  22
ATOM     22  O   UNL     1       9.321  -5.122  26.744  0.00  0.00    -0.479 OA
ATOM     23  H   UNL     1       9.918  -5.875  26.940  0.00  0.00    +0.295 HD
ENDBRANCH  20  22
ENDBRANCH   4  20
BRANCH   6  24
ATOM     24  C   UNL     1       6.442  -3.715  21.966  0.00  0.00    +0.176 C 
BRANCH  24  25
ATOM     25  O   UNL     1       5.344  -3.311  22.818  0.00  0.00    -0.387 OA
ATOM     26  H   UNL     1       4.599  -3.080  22.234  0.00  0.00    +0.210 HD
ENDBRANCH  24  25
BRANCH  24  27
ATOM     27  C   UNL     1       6.354  -5.258  21.770  0.00  0.00    +0.171 C 
BRANCH  27  28
ATOM     28  O   UNL     1       5.853  -5.523  20.446  0.00  0.00    -0.387 OA
ATOM     29  H   UNL     1       5.389  -6.377  20.465  0.00  0.00    +0.210 HD
ENDBRANCH  27  28
BRANCH  27  30
ATOM     30  C   UNL     1       5.420  -5.980  22.768  0.00  0.00    +0.189 C 
BRANCH  30  31
ATOM     31  O   UNL     1       4.057  -6.009  22.348  0.00  0.00    -0.392 OA
ATOM     32  H   UNL     1       3.754  -6.936  22.457  0.00  0.00    +0.210 HD
ENDBRANCH  30  31
ENDBRANCH  27  30
ENDBRANCH  24  27
ENDBRANCH   6  24
TORSDOF 10
ENDMDL
MODEL 3
REMARK VINA RESULT:      -5.9      2.797      5.882
REMARK  Name = 
REMARK  11 active torsions:
REMARK  status: ('A' for Active; 'I' for Inactive)
REMARK    1  A    between atoms: C_1  and  C_2
REMARK    2  A    between atoms: N_4  and  C_5
REMARK    3  A    between atoms: C_7  and  C_20
REMARK    4  A    between atoms: C_10  and  C_17
REMARK    5  A    between atoms: C_12  and  N_13
REMARK    6  A    between atoms: C_17  and  O_19
REMARK    7  A    between atoms: C_20  and  C_22
REMARK    8  A    between atoms: C_20  and  O_27
REMARK    9  A    between atoms: C_22  and  C_24
REMARK   10  A    between atoms: C_22  and  O_26
REMARK   11  A    between atoms: C_24  and  O_25
REMARK                            x       y       z     vdW  Elec       q    Type
REMARK                         _______ _______ _______ _____ _____    ______ ____
ROOT
ATOM      1  C   UNL     1       8.057  -2.711  23.324  0.00  0.00    +0.170 C 
ATOM      2  C   UNL     1       8.997  -2.969  24.488  0.00  0.00    +0.141 C 
ATOM      3  C   UNL     1       9.378  -1.948  25.261  0.00  0.00    +0.059 C 
ATOM      4  C   UNL     1       8.828  -0.567  25.187  0.00  0.00    +0.253 C 
ATOM      5  O   UNL     1       7.798  -0.353  24.210  0.00  0.00    -0.353 OA
ATOM      6  C   UNL     1       7.729  -1.214  23.057  0.00  0.00    +0.178 C 
ENDROOT
BRANCH   2   7
ATOM      7  N   UNL     1       9.552  -4.227  24.539  0.00  0.00    -0.076 NA
ATOM      8  C   UNL     1       9.376  -5.060  25.513  0.00  0.00    +0.382 C 
ATOM      9  N   UNL     1       9.962  -6.282  25.424  0.00  0.00    -0.289 N 
ATOM     10  H   UNL     1       9.413  -7.043  25.792  0.00  0.00    +0.255 HD
ATOM     11  H   UNL     1      10.259  -6.460  24.469  0.00  0.00    +0.255 HD
ATOM     12  N   UNL     1       8.654  -4.993  26.648  0.00  0.00    -0.289 N 
ATOM     13  H   UNL     1       8.892  -5.618  27.412  0.00  0.00    +0.255 HD
ATOM     14  H   UNL     1       8.195  -4.132  26.922  0.00  0.00    +0.255 HD
ENDBRANCH   2   7
BRANCH   1  17
ATOM     15  C   UNL     1       5.200  -5.188  23.100  0.00  0.00    +0.109 C 
ATOM     16  C   UNL     1       6.506  -4.532  22.750  0.00  0.00    +0.211 C 
ATOM     17  N   UNL     1       6.830  -3.467  23.552  0.00  0.00    -0.303 N 
ATOM     18  H   UNL     1       6.257  -3.242  24.356  0.00  0.00    +0.149 HD
ATOM     19  O   UNL     1       7.208  -4.918  21.819  0.00  0.00    -0.276 OA
ENDBRANCH   1  17
BRANCH   4  20
ATOM     20  C   UNL     1       8.143  -0.241  26.541  0.00  0.00    +0.338 C 
ATOM     21  O   UNL     1       6.979   0.127  26.669  0.00  0.00    -0.248 OA
BRANCH  20  22
ATOM     22  O   UNL     1       8.983  -0.402  27.591  0.00  0.00    -0.479 OA
ATOM     23  H   UNL     1       8.591  -1.056  28.208  0.00  0.00    +0.295 HD
ENDBRANCH  20  22
ENDBRANCH   4  20
BRANCH   6  24
ATOM     24  C   UNL     1       8.473  -0.586  21.849  0.00  0.00    +0.176 C 
BRANCH  24  25
ATOM     25  O   UNL     1       9.747  -1.256  21.694  0.00  0.00    -0.387 OA
ATOM     26  H   UNL     1      10.180  -1.250  22.566  0.00  0.00    +0.210 HD
ENDBRANCH  24  25
BRANCH  24  27
ATOM     27  C   UNL     1       8.749   0.940  21.996  0.00  0.00    +0.171 C 
BRANCH  27  28
ATOM     28  O   UNL     1       8.384   1.592  20.764  0.00  0.00    -0.387 OA
ATOM     29  H   UNL     1       9.022   2.307  20.601  0.00  0.00    +0.210 HD
ENDBRANCH  27  28
BRANCH  27  30
ATOM     30  C   UNL     1      10.223   1.302  22.288  0.00  0.00    +0.189 C 
BRANCH  30  31
ATOM     31  O   UNL     1      10.607   2.573  21.768  0.00  0.00    -0.392 OA
ATOM     32  H   UNL     1      10.854   3.125  22.542  0.00  0.00    +0.210 HD
ENDBRANCH  30  31
ENDBRANCH  27  30
ENDBRANCH  24  27
ENDBRANCH   6  24
TORSDOF 10
ENDMDL
MODEL 4
REMARK VINA RESULT:      -5.8      2.617      5.319
REMARK  Name = 
REMARK  11 active torsions:
REMARK  status: ('A' for Active; 'I' for Inactive)
REMARK    1  A    between atoms: C_1  and  C_2
REMARK    2  A    between atoms: N_4  and  C_5
REMARK    3  A    between atoms: C_7  and  C_20
REMARK    4  A    between atoms: C_10  and  C_17
REMARK    5  A    between atoms: C_12  and  N_13
REMARK    6  A    between atoms: C_17  and  O_19
REMARK    7  A    between atoms: C_20  and  C_22
REMARK    8  A    between atoms: C_20  and  O_27
REMARK    9  A    between atoms: C_22  and  C_24
REMARK   10  A    between atoms: C_22  and  O_26
REMARK   11  A    between atoms: C_24  and  O_25
REMARK                            x       y       z     vdW  Elec       q    Type
REMARK                         _______ _______ _______ _____ _____    ______ ____
ROOT
ATOM      1  C   UNL     1       7.596  -3.169  23.795  0.00  0.00    +0.170 C 
ATOM      2  C   UNL     1       7.069  -3.107  25.218  0.00  0.00    +0.141 C 
ATOM      3  C   UNL     1       6.806  -1.919  25.769  0.00  0.00    +0.059 C 
ATOM      4  C   UNL     1       6.829  -0.618  25.047  0.00  0.00    +0.253 C 
ATOM      5  O   UNL     1       7.144  -0.682  23.648  0.00  0.00    -0.353 OA
ATOM      6  C   UNL     1       7.916  -1.791  23.148  0.00  0.00    +0.178 C 
ENDROOT
BRANCH   2   7
ATOM      7  N   UNL     1       7.091  -4.295  25.913  0.00  0.00    -0.076 NA
ATOM      8  C   UNL     1       8.158  -4.820  26.421  0.00  0.00    +0.382 C 
ATOM      9  N   UNL     1       8.033  -5.986  27.107  0.00  0.00    -0.289 N 
ATOM     10  H   UNL     1       8.628  -6.067  27.917  0.00  0.00    +0.255 HD
ATOM     11  H   UNL     1       7.059  -6.155  27.338  0.00  0.00    +0.255 HD
ATOM     12  N   UNL     1       9.441  -4.413  26.463  0.00  0.00    -0.289 N 
ATOM     13  H   UNL     1      10.164  -5.105  26.636  0.00  0.00    +0.255 HD
ATOM     14  H   UNL     1       9.742  -3.593  25.949  0.00  0.00    +0.255 HD
ENDBRANCH   2   7
BRANCH   1  17
ATOM     15  C   UNL     1       5.827  -5.769  21.684  0.00  0.00    +0.109 C 
ATOM     16  C   UNL     1       6.913  -5.163  22.526  0.00  0.00    +0.211 C 
ATOM     17  N   UNL     1       6.629  -3.900  22.982  0.00  0.00    -0.303 N 
ATOM     18  H   UNL     1       5.717  -3.492  22.819  0.00  0.00    +0.149 HD
ATOM     19  O   UNL     1       7.962  -5.752  22.772  0.00  0.00    -0.276 OA
ENDBRANCH   1  17
BRANCH   4  20
ATOM     20  C   UNL     1       5.401  -0.012  25.090  0.00  0.00    +0.338 C 
ATOM     21  O   UNL     1       4.490  -0.411  25.811  0.00  0.00    -0.248 OA
BRANCH  20  22
ATOM     22  O   UNL     1       5.257   1.021  24.226  0.00  0.00    -0.479 OA
ATOM     23  H   UNL     1       4.597   0.771  23.546  0.00  0.00    +0.295 HD
ENDBRANCH  20  22
ENDBRANCH   4  20
BRANCH   6  24
ATOM     24  C   UNL     1       9.424  -1.433  23.080  0.00  0.00    +0.176 C 
BRANCH  24  25
ATOM     25  O   UNL     1      10.109  -2.120  24.155  0.00  0.00    -0.387 OA
ATOM     26  H   UNL     1       9.472  -2.744  24.546  0.00  0.00    +0.210 HD
ENDBRANCH  24  25
BRANCH  24  27
ATOM     27  C   UNL     1       9.723   0.089  23.217  0.00  0.00    +0.171 C 
BRANCH  27  28
ATOM     28  O   UNL     1      10.160   0.586  21.937  0.00  0.00    -0.387 OA
ATOM     29  H   UNL     1       9.877  -0.047  21.255  0.00  0.00    +0.210 HD
ENDBRANCH  27  28
BRANCH  27  30
ATOM     30  C   UNL     1      10.823   0.439  24.245  0.00  0.00    +0.189 C 
BRANCH  30  31
ATOM     31  O   UNL     1      10.356   0.442  25.593  0.00  0.00    -0.392 OA
ATOM     32  H   UNL     1      10.987  -0.109  26.105  0.00  0.00    +0.210 HD
ENDBRANCH  30  31
ENDBRANCH  27  30
ENDBRANCH  24  27
ENDBRANCH   6  24
TORSDOF 10
ENDMDL
MODEL 5
REMARK VINA RESULT:      -5.7      2.126      3.836
REMARK  Name = 
REMARK  11 active torsions:
REMARK  status: ('A' for Active; 'I' for Inactive)
REMARK    1  A    between atoms: C_1  and  C_2
REMARK    2  A    between atoms: N_4  and  C_5
REMARK    3  A    between atoms: C_7  and  C_20
REMARK    4  A    between atoms: C_10  and  C_17
REMARK    5  A    between atoms: C_12  and  N_13
REMARK    6  A    between atoms: C_17  and  O_19
REMARK    7  A    between atoms: C_20  and  C_22
REMARK    8  A    between atoms: C_20  and  O_27
REMARK    9  A    between atoms: C_22  and  C_24
REMARK   10  A    between atoms: C_22  and  O_26
REMARK   11  A    between atoms: C_24  and  O_25
REMARK                            x       y       z     vdW  Elec       q    Type
REMARK                         _______ _______ _______ _____ _____    ______ ____
ROOT
ATOM      1  C   UNL     1       7.304  -2.748  24.164  0.00  0.00    +0.170 C 
ATOM      2  C   UNL     1       7.455  -4.258  24.228  0.00  0.00    +0.141 C 
ATOM      3  C   UNL     1       6.362  -5.024  24.271  0.00  0.00    +0.059 C 
ATOM      4  C   UNL     1       4.967  -4.536  24.098  0.00  0.00    +0.253 C 
ATOM      5  O   UNL     1       4.821  -3.130  23.850  0.00  0.00    -0.353 OA
ATOM      6  C   UNL     1       5.847  -2.222  24.299  0.00  0.00    +0.178 C 
ENDROOT
BRANCH   2   7
ATOM      7  N   UNL     1       8.734  -4.721  24.438  0.00  0.00    -0.076 NA
ATOM      8  C   UNL     1       9.200  -5.067  25.594  0.00  0.00    +0.382 C 
ATOM      9  N   UNL     1      10.475  -5.533  25.657  0.00  0.00    -0.289 N 
ATOM     10  H   UNL     1      10.621  -6.281  26.316  0.00  0.00    +0.255 HD
ATOM     11  H   UNL     1      10.804  -5.780  24.728  0.00  0.00    +0.255 HD
ATOM     12  N   UNL     1       8.647  -5.115  26.820  0.00  0.00    -0.289 N 
ATOM     13  H   UNL     1       9.261  -5.120  27.630  0.00  0.00    +0.255 HD
ATOM     14  H   UNL     1       7.718  -4.746  26.986  0.00  0.00    +0.255 HD
ENDBRANCH   2   7
BRANCH   1  17
ATOM     15  C   UNL     1       9.344  -0.910  21.555  0.00  0.00    +0.109 C 
ATOM     16  C   UNL     1       8.850  -1.293  22.921  0.00  0.00    +0.211 C 
ATOM     17  N   UNL     1       7.900  -2.283  22.916  0.00  0.00    -0.303 N 
ATOM     18  H   UNL     1       7.655  -2.750  22.051  0.00  0.00    +0.149 HD
ATOM     19  O   UNL     1       9.261  -0.754  23.945  0.00  0.00    -0.276 OA
ENDBRANCH   1  17
BRANCH   4  20
ATOM     20  C   UNL     1       4.366  -5.211  22.837  0.00  0.00    +0.338 C 
ATOM     21  O   UNL     1       5.021  -5.633  21.888  0.00  0.00    -0.248 OA
BRANCH  20  22
ATOM     22  O   UNL     1       3.015  -5.284  22.890  0.00  0.00    -0.479 OA
ATOM     23  H   UNL     1       2.663  -5.214  21.977  0.00  0.00    +0.295 HD
ENDBRANCH  20  22
ENDBRANCH   4  20
BRANCH   6  24
ATOM     24  C   UNL     1       5.492  -1.624  25.686  0.00  0.00    +0.176 C 
BRANCH  24  25
ATOM     25  O   UNL     1       4.051  -1.557  25.803  0.00  0.00    -0.387 OA
ATOM     26  H   UNL     1       3.744  -0.886  25.168  0.00  0.00    +0.210 HD
ENDBRANCH  24  25
BRANCH  24  27
ATOM     27  C   UNL     1       6.060  -0.195  25.926  0.00  0.00    +0.171 C 
BRANCH  27  28
ATOM     28  O   UNL     1       6.482   0.348  24.660  0.00  0.00    -0.387 OA
ATOM     29  H   UNL     1       7.396   0.059  24.498  0.00  0.00    +0.210 HD
ENDBRANCH  27  28
BRANCH  27  30
ATOM     30  C   UNL     1       7.275  -0.137  26.879  0.00  0.00    +0.189 C 
BRANCH  30  31
ATOM     31  O   UNL     1       8.386   0.575  26.337  0.00  0.00    -0.392 OA
ATOM     32  H   UNL     1       8.335   0.466  25.363  0.00  0.00    +0.210 HD
ENDBRANCH  30  31
ENDBRANCH  27  30
ENDBRANCH  24  27
ENDBRANCH   6  24
TORSDOF 10
ENDMDL
MODEL 6
REMARK VINA RESULT:      -5.7      1.449      1.948
REMARK  Name = 
REMARK  11 active torsions:
REMARK  status: ('A' for Active; 'I' for Inactive)
REMARK    1  A    between atoms: C_1  and  C_2
REMARK    2  A    between atoms: N_4  and  C_5
REMARK    3  A    between atoms: C_7  and  C_20
REMARK    4  A    between atoms: C_10  and  C_17
REMARK    5  A    between atoms: C_12  and  N_13
REMARK    6  A    between atoms: C_17  and  O_19
REMARK    7  A    between atoms: C_20  and  C_22
REMARK    8  A    between atoms: C_20  and  O_27
REMARK    9  A    between atoms: C_22  and  C_24
REMARK   10  A    between atoms: C_22  and  O_26
REMARK   11  A    between atoms: C_24  and  O_25
REMARK                            x       y       z     vdW  Elec       q    Type
REMARK                         _______ _______ _______ _____ _____    ______ ____
ROOT
ATOM      1  C   UNL     1       7.625  -1.681  24.364  0.00  0.00    +0.170 C 
ATOM      2  C   UNL     1       7.669  -1.570  22.849  0.00  0.00    +0.141 C 
ATOM      3  C   UNL     1       7.640  -2.683  22.111  0.00  0.00    +0.059 C 
ATOM      4  C   UNL     1       7.402  -4.054  22.637  0.00  0.00    +0.253 C 
ATOM      5  O   UNL     1       7.171  -4.152  24.051  0.00  0.00    -0.353 OA
ATOM      6  C   UNL     1       7.690  -3.130  24.924  0.00  0.00    +0.178 C 
ENDROOT
BRANCH   2   7
ATOM      7  N   UNL     1       7.939  -0.316  22.351  0.00  0.00    -0.076 NA
ATOM      8  C   UNL     1       9.062   0.022  21.806  0.00  0.00    +0.382 C 
ATOM      9  N   UNL     1       9.187   1.288  21.331  0.00  0.00    -0.289 N 
ATOM     10  H   UNL     1       9.718   1.371  20.478  0.00  0.00    +0.255 HD
ATOM     11  H   UNL     1       8.273   1.724  21.248  0.00  0.00    +0.255 HD
ATOM     12  N   UNL     1      10.191  -0.665  21.547  0.00  0.00    -0.289 N 
ATOM     13  H   UNL     1      11.051  -0.145  21.398  0.00  0.00    +0.255 HD
ATOM     14  H   UNL     1      10.312  -1.612  21.886  0.00  0.00    +0.255 HD
ENDBRANCH   2   7
BRANCH   1  17
ATOM     15  C   UNL     1       5.174   0.636  26.089  0.00  0.00    +0.109 C 
ATOM     16  C   UNL     1       6.504   0.072  25.676  0.00  0.00    +0.211 C 
ATOM     17  N   UNL     1       6.418  -1.008  24.834  0.00  0.00    -0.303 N 
ATOM     18  H   UNL     1       5.519  -1.303  24.475  0.00  0.00    +0.149 HD
ATOM     19  O   UNL     1       7.569   0.541  26.071  0.00  0.00    -0.276 OA
ENDBRANCH   1  17
BRANCH   4  20
ATOM     20  C   UNL     1       6.098  -4.602  21.998  0.00  0.00    +0.338 C 
ATOM     21  O   UNL     1       5.105  -3.927  21.740  0.00  0.00    -0.248 OA
BRANCH  20  22
ATOM     22  O   UNL     1       6.168  -5.932  21.754  0.00  0.00    -0.479 OA
ATOM     23  H   UNL     1       5.330  -6.216  21.330  0.00  0.00    +0.295 HD
ENDBRANCH  20  22
ENDBRANCH   4  20
BRANCH   6  24
ATOM     24  C   UNL     1       9.067  -3.545  25.508  0.00  0.00    +0.176 C 
BRANCH  24  25
ATOM     25  O   UNL     1       9.981  -3.778  24.410  0.00  0.00    -0.387 OA
ATOM     26  H   UNL     1       9.546  -3.451  23.603  0.00  0.00    +0.210 HD
ENDBRANCH  24  25
BRANCH  24  27
ATOM     27  C   UNL     1       9.025  -4.835  26.379  0.00  0.00    +0.171 C 
BRANCH  27  28
ATOM     28  O   UNL     1       9.417  -5.953  25.559  0.00  0.00    -0.387 OA
ATOM     29  H   UNL     1       9.582  -5.624  24.659  0.00  0.00    +0.210 HD
ENDBRANCH  27  28
BRANCH  27  30
ATOM     30  C   UNL     1       7.637  -5.165  26.973  0.00  0.00    +0.189 C 
BRANCH  30  31
ATOM     31  O   UNL     1       7.661  -6.252  27.896  0.00  0.00    -0.392 OA
ATOM     32  H   UNL     1       7.923  -7.046  27.382  0.00  0.00    +0.210 HD
ENDBRANCH  30  31
ENDBRANCH  27  30
ENDBRANCH  24  27
ENDBRANCH   6  24
TORSDOF 10
ENDMDL
MODEL 7
REMARK VINA RESULT:      -5.5      1.773      2.516
REMARK  Name = 
REMARK  11 active torsions:
REMARK  status: ('A' for Active; 'I' for Inactive)
REMARK    1  A    between atoms: C_1  and  C_2
REMARK    2  A    between atoms: N_4  and  C_5
REMARK    3  A    between atoms: C_7  and  C_20
REMARK    4  A    between atoms: C_10  and  C_17
REMARK    5  A    between atoms: C_12  and  N_13
REMARK    6  A    between atoms: C_17  and  O_19
REMARK    7  A    between atoms: C_20  and  C_22
REMARK    8  A    between atoms: C_20  and  O_27
REMARK    9  A    between atoms: C_22  and  C_24
REMARK   10  A    between atoms: C_22  and  O_26
REMARK   11  A    between atoms: C_24  and  O_25
REMARK                            x       y       z     vdW  Elec       q    Type
REMARK                         _______ _______ _______ _____ _____    ______ ____
ROOT
ATOM      1  C   UNL     1       7.524  -3.086  25.537  0.00  0.00    +0.170 C 
ATOM      2  C   UNL     1       8.108  -3.578  24.224  0.00  0.00    +0.141 C 
ATOM      3  C   UNL     1       7.573  -4.649  23.631  0.00  0.00    +0.059 C 
ATOM      4  C   UNL     1       6.323  -5.330  24.061  0.00  0.00    +0.253 C 
ATOM      5  O   UNL     1       5.654  -4.758  25.195  0.00  0.00    -0.353 OA
ATOM      6  C   UNL     1       6.413  -3.987  26.147  0.00  0.00    +0.178 C 
ENDROOT
BRANCH   2   7
ATOM      7  N   UNL     1       9.292  -2.990  23.841  0.00  0.00    -0.076 NA
ATOM      8  C   UNL     1       9.394  -2.110  22.899  0.00  0.00    +0.382 C 
ATOM      9  N   UNL     1      10.622  -1.591  22.638  0.00  0.00    -0.289 N 
ATOM     10  H   UNL     1      10.625  -0.612  22.398  0.00  0.00    +0.255 HD
ATOM     11  H   UNL     1      11.257  -1.792  23.405  0.00  0.00    +0.255 HD
ATOM     12  N   UNL     1       8.483  -1.524  22.099  0.00  0.00    -0.289 N 
ATOM     13  H   UNL     1       8.800  -1.098  21.233  0.00  0.00    +0.255 HD
ATOM     14  H   UNL     1       7.517  -1.829  22.101  0.00  0.00    +0.255 HD
ENDBRANCH   2   7
BRANCH   1  17
ATOM     15  C   UNL     1       6.962   0.658  25.676  0.00  0.00    +0.109 C 
ATOM     16  C   UNL     1       7.609  -0.666  25.972  0.00  0.00    +0.211 C 
ATOM     17  N   UNL     1       7.024  -1.730  25.333  0.00  0.00    -0.303 N 
ATOM     18  H   UNL     1       6.285  -1.575  24.658  0.00  0.00    +0.149 HD
ATOM     19  O   UNL     1       8.571  -0.774  26.728  0.00  0.00    -0.276 OA
ENDBRANCH   1  17
BRANCH   4  20
ATOM     20  C   UNL     1       5.286  -5.220  22.911  0.00  0.00    +0.338 C 
ATOM     21  O   UNL     1       4.502  -4.287  22.760  0.00  0.00    -0.248 OA
BRANCH  20  22
ATOM     22  O   UNL     1       5.332  -6.285  22.077  0.00  0.00    -0.479 OA
ATOM     23  H   UNL     1       4.823  -6.070  21.267  0.00  0.00    +0.295 HD
ENDBRANCH  20  22
ENDBRANCH   4  20
BRANCH   6  24
ATOM     24  C   UNL     1       6.866  -4.868  27.341  0.00  0.00    +0.176 C 
BRANCH  24  25
ATOM     25  O   UNL     1       7.549  -6.033  26.821  0.00  0.00    -0.387 OA
ATOM     26  H   UNL     1       8.119  -6.372  27.533  0.00  0.00    +0.210 HD
ENDBRANCH  24  25
BRANCH  24  27
ATOM     27  C   UNL     1       5.699  -5.361  28.247  0.00  0.00    +0.171 C 
BRANCH  27  28
ATOM     28  O   UNL     1       6.193  -5.501  29.593  0.00  0.00    -0.387 OA
ATOM     29  H   UNL     1       5.488  -5.898  30.132  0.00  0.00    +0.210 HD
ENDBRANCH  27  28
BRANCH  27  30
ATOM     30  C   UNL     1       5.096  -6.722  27.834  0.00  0.00    +0.189 C 
BRANCH  30  31
ATOM     31  O   UNL     1       5.709  -7.833  28.486  0.00  0.00    -0.392 OA
ATOM     32  H   UNL     1       6.662  -7.612  28.571  0.00  0.00    +0.210 HD
ENDBRANCH  30  31
ENDBRANCH  27  30
ENDBRANCH  24  27
ENDBRANCH   6  24
TORSDOF 10
ENDMDL
MODEL 8
REMARK VINA RESULT:      -5.5      2.859      5.361
REMARK  Name = 
REMARK  11 active torsions:
REMARK  status: ('A' for Active; 'I' for Inactive)
REMARK    1  A    between atoms: C_1  and  C_2
REMARK    2  A    between atoms: N_4  and  C_5
REMARK    3  A    between atoms: C_7  and  C_20
REMARK    4  A    between atoms: C_10  and  C_17
REMARK    5  A    between atoms: C_12  and  N_13
REMARK    6  A    between atoms: C_17  and  O_19
REMARK    7  A    between atoms: C_20  and  C_22
REMARK    8  A    between atoms: C_20  and  O_27
REMARK    9  A    between atoms: C_22  and  C_24
REMARK   10  A    between atoms: C_22  and  O_26
REMARK   11  A    between atoms: C_24  and  O_25
REMARK                            x       y       z     vdW  Elec       q    Type
REMARK                         _______ _______ _______ _____ _____    ______ ____
ROOT
ATOM      1  C   UNL     1       6.015  -3.220  24.962  0.00  0.00    +0.170 C 
ATOM      2  C   UNL     1       7.096  -3.272  26.028  0.00  0.00    +0.141 C 
ATOM      3  C   UNL     1       8.221  -2.574  25.854  0.00  0.00    +0.059 C 
ATOM      4  C   UNL     1       8.460  -1.595  24.759  0.00  0.00    +0.253 C 
ATOM      5  O   UNL     1       7.371  -1.396  23.846  0.00  0.00    -0.353 OA
ATOM      6  C   UNL     1       6.397  -2.443  23.670  0.00  0.00    +0.178 C 
ENDROOT
BRANCH   2   7
ATOM      7  N   UNL     1       6.911  -4.209  27.019  0.00  0.00    -0.076 NA
ATOM      8  C   UNL     1       7.496  -5.362  27.046  0.00  0.00    +0.382 C 
ATOM      9  N   UNL     1       7.243  -6.183  28.098  0.00  0.00    -0.289 N 
ATOM     10  H   UNL     1       8.036  -6.717  28.419  0.00  0.00    +0.255 HD
ATOM     11  H   UNL     1       6.811  -5.661  28.855  0.00  0.00    +0.255 HD
ATOM     12  N   UNL     1       8.396  -5.945  26.232  0.00  0.00    -0.289 N 
ATOM     13  H   UNL     1       8.493  -6.956  26.261  0.00  0.00    +0.255 HD
ATOM     14  H   UNL     1       8.661  -5.511  25.355  0.00  0.00    +0.255 HD
ENDBRANCH   2   7
BRANCH   1  17
ATOM     15  C   UNL     1       2.538  -2.691  26.366  0.00  0.00    +0.109 C 
ATOM     16  C   UNL     1       3.700  -3.429  25.766  0.00  0.00    +0.211 C 
ATOM     17  N   UNL     1       4.812  -2.652  25.560  0.00  0.00    -0.303 N 
ATOM     18  H   UNL     1       4.831  -1.694  25.887  0.00  0.00    +0.149 HD
ATOM     19  O   UNL     1       3.645  -4.623  25.482  0.00  0.00    -0.276 OA
ENDBRANCH   1  17
BRANCH   4  20
ATOM     20  C   UNL     1       8.686  -0.197  25.395  0.00  0.00    +0.338 C 
ATOM     21  O   UNL     1       8.611   0.869  24.791  0.00  0.00    -0.248 OA
BRANCH  20  22
ATOM     22  O   UNL     1       8.987  -0.277  26.713  0.00  0.00    -0.479 OA
ATOM     23  H   UNL     1       9.590   0.462  26.941  0.00  0.00    +0.295 HD
ENDBRANCH  20  22
ENDBRANCH   4  20
BRANCH   6  24
ATOM     24  C   UNL     1       6.754  -3.334  22.450  0.00  0.00    +0.176 C 
BRANCH  24  25
ATOM     25  O   UNL     1       5.675  -3.252  21.489  0.00  0.00    -0.387 OA
ATOM     26  H   UNL     1       6.083  -3.189  20.607  0.00  0.00    +0.210 HD
ENDBRANCH  24  25
BRANCH  24  27
ATOM     27  C   UNL     1       6.969  -4.835  22.802  0.00  0.00    +0.171 C 
BRANCH  27  28
ATOM     28  O   UNL     1       8.318  -5.004  23.280  0.00  0.00    -0.387 OA
ATOM     29  H   UNL     1       8.788  -4.162  23.159  0.00  0.00    +0.210 HD
ENDBRANCH  27  28
BRANCH  27  30
ATOM     30  C   UNL     1       6.777  -5.808  21.616  0.00  0.00    +0.189 C 
BRANCH  30  31
ATOM     31  O   UNL     1       5.412  -6.141  21.373  0.00  0.00    -0.392 OA
ATOM     32  H   UNL     1       5.044  -6.442  22.232  0.00  0.00    +0.210 HD
ENDBRANCH  30  31
ENDBRANCH  27  30
ENDBRANCH  24  27
ENDBRANCH   6  24
TORSDOF 10
ENDMDL
MODEL 9
REMARK VINA RESULT:      -5.4      3.722      6.191
REMARK  Name = 
REMARK  11 active torsions:
REMARK  status: ('A' for Active; 'I' for Inactive)
REMARK    1  A    between atoms: C_1  and  C_2
REMARK    2  A    between atoms: N_4  and  C_5
REMARK    3  A    between atoms: C_7  and  C_20
REMARK    4  A    between atoms: C_10  and  C_17
REMARK    5  A    between atoms: C_12  and  N_13
REMARK    6  A    between atoms: C_17  and  O_19
REMARK    7  A    between atoms: C_20  and  C_22
REMARK    8  A    between atoms: C_20  and  O_27
REMARK    9  A    between atoms: C_22  and  C_24
REMARK   10  A    between atoms: C_22  and  O_26
REMARK   11  A    between atoms: C_24  and  O_25
REMARK                            x       y       z     vdW  Elec       q    Type
REMARK                         _______ _______ _______ _____ _____    ______ ____
ROOT
ATOM      1  C   UNL     1       5.401  -5.229  26.406  0.00  0.00    +0.170 C 
ATOM      2  C   UNL     1       6.775  -5.339  27.042  0.00  0.00    +0.141 C 
ATOM      3  C   UNL     1       7.858  -5.366  26.261  0.00  0.00    +0.059 C 
ATOM      4  C   UNL     1       7.859  -5.131  24.792  0.00  0.00    +0.253 C 
ATOM      5  O   UNL     1       6.584  -4.839  24.202  0.00  0.00    -0.353 OA
ATOM      6  C   UNL     1       5.383  -5.298  24.853  0.00  0.00    +0.178 C 
ENDROOT
BRANCH   2   7
ATOM      7  N   UNL     1       6.788  -5.606  28.393  0.00  0.00    -0.076 NA
ATOM      8  C   UNL     1       6.124  -6.566  28.949  0.00  0.00    +0.382 C 
ATOM      9  N   UNL     1       6.246  -6.735  30.291  0.00  0.00    -0.289 N 
ATOM     10  H   UNL     1       6.252  -7.695  30.599  0.00  0.00    +0.255 HD
ATOM     11  H   UNL     1       7.053  -6.224  30.637  0.00  0.00    +0.255 HD
ATOM     12  N   UNL     1       5.323  -7.527  28.450  0.00  0.00    -0.289 N 
ATOM     13  H   UNL     1       4.665  -7.983  29.075  0.00  0.00    +0.255 HD
ATOM     14  H   UNL     1       5.059  -7.527  27.471  0.00  0.00    +0.255 HD
ENDBRANCH   2   7
BRANCH   1  17
ATOM     15  C   UNL     1       3.141  -2.662  28.033  0.00  0.00    +0.109 C 
ATOM     16  C   UNL     1       3.669  -4.019  27.667  0.00  0.00    +0.211 C 
ATOM     17  N   UNL     1       4.783  -3.990  26.867  0.00  0.00    -0.303 N 
ATOM     18  H   UNL     1       5.229  -3.108  26.647  0.00  0.00    +0.149 HD
ATOM     19  O   UNL     1       3.136  -5.058  28.049  0.00  0.00    -0.276 OA
ENDBRANCH   1  17
BRANCH   4  20
ATOM     20  C   UNL     1       8.713  -3.869  24.500  0.00  0.00    +0.338 C 
ATOM     21  O   UNL     1       8.258  -2.756  24.249  0.00  0.00    -0.248 OA
BRANCH  20  22
ATOM     22  O   UNL     1      10.042  -4.128  24.545  0.00  0.00    -0.479 OA
ATOM     23  H   UNL     1      10.186  -5.067  24.303  0.00  0.00    +0.295 HD
ENDBRANCH  20  22
ENDBRANCH   4  20
BRANCH   6  24
ATOM     24  C   UNL     1       4.915  -6.656  24.263  0.00  0.00    +0.176 C 
BRANCH  24  25
ATOM     25  O   UNL     1       5.241  -6.682  22.853  0.00  0.00    -0.387 OA
ATOM     26  H   UNL     1       4.645  -6.052  22.411  0.00  0.00    +0.210 HD
ENDBRANCH  24  25
BRANCH  24  27
ATOM     27  C   UNL     1       3.387  -6.919  24.406  0.00  0.00    +0.171 C 
BRANCH  27  28
ATOM     28  O   UNL     1       3.167  -8.342  24.421  0.00  0.00    -0.387 OA
ATOM     29  H   UNL     1       3.903  -8.756  24.904  0.00  0.00    +0.210 HD
ENDBRANCH  27  28
BRANCH  27  30
ATOM     30  C   UNL     1       2.524  -6.332  23.267  0.00  0.00    +0.189 C 
BRANCH  30  31
ATOM     31  O   UNL     1       2.946  -5.036  22.846  0.00  0.00    -0.392 OA
ATOM     32  H   UNL     1       3.919  -5.088  22.728  0.00  0.00    +0.210 HD
ENDBRANCH  30  31
ENDBRANCH  27  30
ENDBRANCH  24  27
ENDBRANCH   6  24
TORSDOF 10
ENDMDL
