MODEL 1
REMARK VINA RESULT:      -6.0      0.000      0.000
REMARK  Name = 
REMARK  6 active torsions:
REMARK  status: ('A' for Active; 'I' for Inactive)
REMARK    1  A    between atoms: C_2  and  C_19
REMARK    2  A    between atoms: N_5  and  C1*_6
REMARK    3  A    between atoms: C2*_8  and  O2*_18
REMARK    4  A    between atoms: C3*_10  and  O3*_17
REMARK    5  A    between atoms: C4*_12  and  C5*_15
REMARK    6  A    between atoms: C5*_15  and  O5*_16
REMARK                            x       y       z     vdW  Elec       q    Type
REMARK                         _______ _______ _______ _____ _____    ______ ____
ROOT
ATOM      1  C1* UNL     1       8.887  -0.906  22.626  0.00  0.00    +0.252 C 
ATOM      2  O4* UNL     1      10.215  -0.399  22.873  0.00  0.00    -0.346 OA
ATOM      3  C4* UNL     1      10.130   1.052  22.801  0.00  0.00    +0.177 C 
ATOM      4  C3* UNL     1       8.657   1.412  22.578  0.00  0.00    +0.178 C 
ATOM      5  C2* UNL     1       7.923   0.185  23.092  0.00  0.00    +0.195 C 
ENDROOT
BRANCH   1   7
ATOM      6  C   UNL     1       9.311  -2.584  24.423  0.00  0.00    +0.122 A 
ATOM      7  N   UNL     1       8.693  -2.194  23.264  0.00  0.00    -0.307 N 
ATOM      8  C   UNL     1       7.870  -3.212  22.876  0.00  0.00    +0.202 A 
ATOM      9  N   UNL     1       7.926  -4.228  23.714  0.00  0.00    -0.231 NA
ATOM     10  C   UNL     1       8.826  -3.845  24.701  0.00  0.00    +0.143 A 
BRANCH  10  11
ATOM     11  C   UNL     1       9.183  -4.671  25.852  0.00  0.00    +0.261 C 
ATOM     12  N   UNL     1      10.216  -5.531  25.618  0.00  0.00    -0.324 N 
ATOM     13  H   UNL     1      10.529  -6.142  26.353  0.00  0.00    +0.145 HD
ATOM     14  H   UNL     1      10.648  -5.539  24.702  0.00  0.00    +0.145 HD
ATOM     15  O   UNL     1       8.617  -4.622  26.942  0.00  0.00    -0.269 OA
ENDBRANCH  10  11
ENDBRANCH   1   7
BRANCH   4  16
ATOM     16  O3* UNL     1       8.404   1.536  21.164  0.00  0.00    -0.386 OA
ATOM     17  H3* UNL     1       9.051   0.959  20.716  0.00  0.00    +0.210 HD
ENDBRANCH   4  16
BRANCH   5  18
ATOM     18  O2* UNL     1       6.609   0.101  22.545  0.00  0.00    -0.385 OA
ATOM     19  H2* UNL     1       6.694   0.157  21.577  0.00  0.00    +0.210 HD
ENDBRANCH   5  18
BRANCH   3  20
ATOM     20  C5* UNL     1      10.699   1.649  24.090  0.00  0.00    +0.190 C 
BRANCH  20  21
ATOM     21  O5* UNL     1      10.711   0.677  25.131  0.00  0.00    -0.392 OA
ATOM     22  H5* UNL     1      10.196  -0.087  24.815  0.00  0.00    +0.210 HD
ENDBRANCH  20  21
ENDBRANCH   3  20
TORSDOF 6
ENDMDL
MODEL 2
REMARK VINA RESULT:      -5.9      2.538      3.855
REMARK  Name = 
REMARK  6 active torsions:
REMARK  status: ('A' for Active; 'I' for Inactive)
REMARK    1  A    between atoms: C_2  and  C_19
REMARK    2  A    between atoms: N_5  and  C1*_6
REMARK    3  A    between atoms: C2*_8  and  O2*_18
REMARK    4  A    between atoms: C3*_10  and  O3*_17
REMARK    5  A    between atoms: C4*_12  and  C5*_15
REMARK    6  A    between atoms: C5*_15  and  O5*_16
REMARK                            x       y       z     vdW  Elec       q    Type
REMARK                         _______ _______ _______ _____ _____    ______ ____
ROOT
ATOM      1  C1* UNL     1       8.069  -1.636  23.512  0.00  0.00    +0.252 C 
ATOM      2  O4* UNL     1       7.819  -0.329  22.955  0.00  0.00    -0.346 OA
ATOM      3  C4* UNL     1       9.097   0.367  22.927  0.00  0.00    +0.177 C 
ATOM      4  C3* UNL     1      10.162  -0.618  23.422  0.00  0.00    +0.178 C 
ATOM      5  C2* UNL     1       9.521  -1.972  23.172  0.00  0.00    +0.195 C 
ENDROOT
BRANCH   1   7
ATOM      6  C   UNL     1       7.407  -3.688  22.257  0.00  0.00    +0.122 A 
ATOM      7  N   UNL     1       7.099  -2.602  23.032  0.00  0.00    -0.307 N 
ATOM      8  C   UNL     1       5.756  -2.639  23.276  0.00  0.00    +0.202 A 
ATOM      9  N   UNL     1       5.187  -3.681  22.703  0.00  0.00    -0.231 NA
ATOM     10  C   UNL     1       6.217  -4.358  22.060  0.00  0.00    +0.143 A 
BRANCH  10  11
ATOM     11  C   UNL     1       6.039  -5.595  21.303  0.00  0.00    +0.261 C 
ATOM     12  N   UNL     1       5.937  -6.711  22.081  0.00  0.00    -0.324 N 
ATOM     13  H   UNL     1       5.816  -7.610  21.646  0.00  0.00    +0.145 HD
ATOM     14  H   UNL     1       5.990  -6.612  23.088  0.00  0.00    +0.145 HD
ATOM     15  O   UNL     1       5.987  -5.655  20.077  0.00  0.00    -0.269 OA
ENDBRANCH  10  11
ENDBRANCH   1   7
BRANCH   4  16
ATOM     16  O3* UNL     1      10.341  -0.453  24.844  0.00  0.00    -0.386 OA
ATOM     17  H3* UNL     1      10.969  -1.146  25.124  0.00  0.00    +0.210 HD
ENDBRANCH   4  16
BRANCH   5  18
ATOM     18  O2* UNL     1      10.112  -2.983  23.985  0.00  0.00    -0.385 OA
ATOM     19  H2* UNL     1      10.533  -3.626  23.388  0.00  0.00    +0.210 HD
ENDBRANCH   5  18
BRANCH   3  20
ATOM     20  C5* UNL     1       9.363   0.865  21.505  0.00  0.00    +0.190 C 
BRANCH  20  21
ATOM     21  O5* UNL     1       9.902   2.183  21.526  0.00  0.00    -0.392 OA
ATOM     22  H5* UNL     1       9.420   2.700  20.856  0.00  0.00    +0.210 HD
ENDBRANCH  20  21
ENDBRANCH   3  20
TORSDOF 6
ENDMDL
MODEL 3
REMARK VINA RESULT:      -5.9      1.299      2.400
REMARK  Name = 
REMARK  6 active torsions:
REMARK  status: ('A' for Active; 'I' for Inactive)
REMARK    1  A    between atoms: C_2  and  C_19
REMARK    2  A    between atoms: N_5  and  C1*_6
REMARK    3  A    between atoms: C2*_8  and  O2*_18
REMARK    4  A    between atoms: C3*_10  and  O3*_17
REMARK    5  A    between atoms: C4*_12  and  C5*_15
REMARK    6  A    between atoms: C5*_15  and  O5*_16
REMARK                            x       y       z     vdW  Elec       q    Type
REMARK                         _______ _______ _______ _____ _____    ______ ____
ROOT
ATOM      1  C1* UNL     1       8.405  -0.409  24.394  0.00  0.00    +0.252 C 
ATOM      2  O4* UNL     1       7.634   0.102  23.287  0.00  0.00    -0.346 OA
ATOM      3  C4* UNL     1       8.088   1.465  23.052  0.00  0.00    +0.177 C 
ATOM      4  C3* UNL     1       9.241   1.734  24.026  0.00  0.00    +0.178 C 
ATOM      5  C2* UNL     1       9.738   0.339  24.364  0.00  0.00    +0.195 C 
ENDROOT
BRANCH   1   7
ATOM      6  C   UNL     1       8.696  -2.667  25.413  0.00  0.00    +0.122 A 
ATOM      7  N   UNL     1       8.522  -1.853  24.325  0.00  0.00    -0.307 N 
ATOM      8  C   UNL     1       8.450  -2.653  23.222  0.00  0.00    +0.202 A 
ATOM      9  N   UNL     1       8.569  -3.927  23.537  0.00  0.00    -0.231 NA
ATOM     10  C   UNL     1       8.718  -3.955  24.918  0.00  0.00    +0.143 A 
BRANCH  10  11
ATOM     11  C   UNL     1       8.868  -5.177  25.703  0.00  0.00    +0.261 C 
ATOM     12  N   UNL     1      10.129  -5.696  25.686  0.00  0.00    -0.324 N 
ATOM     13  H   UNL     1      10.326  -6.540  26.196  0.00  0.00    +0.145 HD
ATOM     14  H   UNL     1      10.847  -5.220  25.152  0.00  0.00    +0.145 HD
ATOM     15  O   UNL     1       7.957  -5.715  26.328  0.00  0.00    -0.269 OA
ENDBRANCH  10  11
ENDBRANCH   1   7
BRANCH   4  16
ATOM     16  O3* UNL     1       8.721   2.338  25.228  0.00  0.00    -0.386 OA
ATOM     17  H3* UNL     1       9.417   2.244  25.906  0.00  0.00    +0.210 HD
ENDBRANCH   4  16
BRANCH   5  18
ATOM     18  O2* UNL     1      10.462   0.330  25.592  0.00  0.00    -0.385 OA
ATOM     19  H2* UNL     1      11.408   0.390  25.372  0.00  0.00    +0.210 HD
ENDBRANCH   5  18
BRANCH   3  20
ATOM     20  C5* UNL     1       8.502   1.608  21.586  0.00  0.00    +0.190 C 
BRANCH  20  21
ATOM     21  O5* UNL     1       9.803   2.180  21.485  0.00  0.00    -0.392 OA
ATOM     22  H5* UNL     1      10.002   2.273  20.536  0.00  0.00    +0.210 HD
ENDBRANCH  20  21
ENDBRANCH   3  20
TORSDOF 6
ENDMDL
MODEL 4
REMARK VINA RESULT:      -5.7      2.121      3.665
REMARK  Name = 
REMARK  6 active torsions:
REMARK  status: ('A' for Active; 'I' for Inactive)
REMARK    1  A    between atoms: C_2  and  C_19
REMARK    2  A    between atoms: N_5  and  C1*_6
REMARK    3  A    between atoms: C2*_8  and  O2*_18
REMARK    4  A    between atoms: C3*_10  and  O3*_17
REMARK    5  A    between atoms: C4*_12  and  C5*_15
REMARK    6  A    between atoms: C5*_15  and  O5*_16
REMARK                            x       y       z     vdW  Elec       q    Type
REMARK                         _______ _______ _______ _____ _____    ______ ____
ROOT
ATOM      1  C1* UNL     1       8.819  -1.698  23.449  0.00  0.00    +0.252 C 
ATOM      2  O4* UNL     1       7.834  -0.679  23.716  0.00  0.00    -0.346 OA
ATOM      3  C4* UNL     1       8.390   0.579  23.238  0.00  0.00    +0.177 C 
ATOM      4  C3* UNL     1       9.740   0.260  22.586  0.00  0.00    +0.178 C 
ATOM      5  C2* UNL     1       9.614  -1.213  22.237  0.00  0.00    +0.195 C 
ENDROOT
BRANCH   1   7
ATOM      6  C   UNL     1       7.286  -3.296  22.300  0.00  0.00    +0.122 A 
ATOM      7  N   UNL     1       8.194  -2.996  23.281  0.00  0.00    -0.307 N 
ATOM      8  C   UNL     1       8.402  -4.133  24.008  0.00  0.00    +0.202 A 
ATOM      9  N   UNL     1       7.682  -5.139  23.554  0.00  0.00    -0.231 NA
ATOM     10  C   UNL     1       6.976  -4.630  22.471  0.00  0.00    +0.143 A 
BRANCH  10  11
ATOM     11  C   UNL     1       6.056  -5.412  21.650  0.00  0.00    +0.261 C 
ATOM     12  N   UNL     1       5.275  -6.275  22.363  0.00  0.00    -0.324 N 
ATOM     13  H   UNL     1       4.612  -6.859  21.881  0.00  0.00    +0.145 HD
ATOM     14  H   UNL     1       5.381  -6.314  23.369  0.00  0.00    +0.145 HD
ATOM     15  O   UNL     1       5.973  -5.327  20.428  0.00  0.00    -0.269 OA
ENDBRANCH  10  11
ENDBRANCH   1   7
BRANCH   4  16
ATOM     16  O3* UNL     1      10.791   0.409  23.564  0.00  0.00    -0.386 OA
ATOM     17  H3* UNL     1      11.209  -0.469  23.654  0.00  0.00    +0.210 HD
ENDBRANCH   4  16
BRANCH   5  18
ATOM     18  O2* UNL     1      10.894  -1.819  22.075  0.00  0.00    -0.385 OA
ATOM     19  H2* UNL     1      10.821  -2.739  22.386  0.00  0.00    +0.210 HD
ENDBRANCH   5  18
BRANCH   3  20
ATOM     20  C5* UNL     1       7.400   1.225  22.267  0.00  0.00    +0.190 C 
BRANCH  20  21
ATOM     21  O5* UNL     1       8.088   1.824  21.172  0.00  0.00    -0.392 OA
ATOM     22  H5* UNL     1       7.414   2.232  20.599  0.00  0.00    +0.210 HD
ENDBRANCH  20  21
ENDBRANCH   3  20
TORSDOF 6
ENDMDL
MODEL 5
REMARK VINA RESULT:      -5.6      2.489      5.866
REMARK  Name = 
REMARK  6 active torsions:
REMARK  status: ('A' for Active; 'I' for Inactive)
REMARK    1  A    between atoms: C_2  and  C_19
REMARK    2  A    between atoms: N_5  and  C1*_6
REMARK    3  A    between atoms: C2*_8  and  O2*_18
REMARK    4  A    between atoms: C3*_10  and  O3*_17
REMARK    5  A    between atoms: C4*_12  and  C5*_15
REMARK    6  A    between atoms: C5*_15  and  O5*_16
REMARK                            x       y       z     vdW  Elec       q    Type
REMARK                         _______ _______ _______ _____ _____    ______ ____
ROOT
ATOM      1  C1* UNL     1       9.112  -2.513  23.608  0.00  0.00    +0.252 C 
ATOM      2  O4* UNL     1       8.393  -2.617  22.362  0.00  0.00    -0.346 OA
ATOM      3  C4* UNL     1       7.489  -3.751  22.491  0.00  0.00    +0.177 C 
ATOM      4  C3* UNL     1       7.635  -4.288  23.920  0.00  0.00    +0.178 C 
ATOM      5  C2* UNL     1       8.190  -3.096  24.680  0.00  0.00    +0.195 C 
ENDROOT
BRANCH   1   7
ATOM      6  C   UNL     1       9.758  -0.219  22.873  0.00  0.00    +0.122 A 
ATOM      7  N   UNL     1       9.536  -1.148  23.854  0.00  0.00    -0.307 N 
ATOM      8  C   UNL     1       9.753  -0.536  25.055  0.00  0.00    +0.202 A 
ATOM      9  N   UNL     1      10.101   0.725  24.902  0.00  0.00    -0.231 NA
ATOM     10  C   UNL     1      10.103   0.945  23.530  0.00  0.00    +0.143 A 
BRANCH  10  11
ATOM     11  C   UNL     1      10.420   2.226  22.903  0.00  0.00    +0.261 C 
ATOM     12  N   UNL     1      10.023   2.320  21.602  0.00  0.00    -0.324 N 
ATOM     13  H   UNL     1      10.203   3.166  21.088  0.00  0.00    +0.145 HD
ATOM     14  H   UNL     1       9.555   1.529  21.175  0.00  0.00    +0.145 HD
ATOM     15  O   UNL     1      10.997   3.150  23.471  0.00  0.00    -0.269 OA
ENDBRANCH  10  11
ENDBRANCH   1   7
BRANCH   4  16
ATOM     16  O3* UNL     1       8.621  -5.340  23.936  0.00  0.00    -0.386 OA
ATOM     17  H3* UNL     1       8.209  -6.096  24.398  0.00  0.00    +0.210 HD
ENDBRANCH   4  16
BRANCH   5  18
ATOM     18  O2* UNL     1       8.844  -3.505  25.879  0.00  0.00    -0.385 OA
ATOM     19  H2* UNL     1       9.345  -2.739  26.212  0.00  0.00    +0.210 HD
ENDBRANCH   5  18
BRANCH   3  20
ATOM     20  C5* UNL     1       6.065  -3.292  22.171  0.00  0.00    +0.190 C 
BRANCH  20  21
ATOM     21  O5* UNL     1       5.615  -3.867  20.948  0.00  0.00    -0.392 OA
ATOM     22  H5* UNL     1       6.026  -3.358  20.225  0.00  0.00    +0.210 HD
ENDBRANCH  20  21
ENDBRANCH   3  20
TORSDOF 6
ENDMDL
MODEL 6
REMARK VINA RESULT:      -5.6      1.741      2.474
REMARK  Name = 
REMARK  6 active torsions:
REMARK  status: ('A' for Active; 'I' for Inactive)
REMARK    1  A    between atoms: C_2  and  C_19
REMARK    2  A    between atoms: N_5  and  C1*_6
REMARK    3  A    between atoms: C2*_8  and  O2*_18
REMARK    4  A    between atoms: C3*_10  and  O3*_17
REMARK    5  A    between atoms: C4*_12  and  C5*_15
REMARK    6  A    between atoms: C5*_15  and  O5*_16
REMARK                            x       y       z     vdW  Elec       q    Type
REMARK                         _______ _______ _______ _____ _____    ______ ____
ROOT
ATOM      1  C1* UNL     1       8.922  -0.078  23.379  0.00  0.00    +0.252 C 
ATOM      2  O4* UNL     1       8.089   0.991  23.875  0.00  0.00    -0.346 OA
ATOM      3  C4* UNL     1       8.032   2.000  22.827  0.00  0.00    +0.177 C 
ATOM      4  C3* UNL     1       8.811   1.453  21.626  0.00  0.00    +0.178 C 
ATOM      5  C2* UNL     1       8.788  -0.049  21.856  0.00  0.00    +0.195 C 
ENDROOT
BRANCH   1   7
ATOM      6  C   UNL     1       9.431  -2.394  24.152  0.00  0.00    +0.122 A 
ATOM      7  N   UNL     1       8.567  -1.343  23.992  0.00  0.00    -0.307 N 
ATOM      8  C   UNL     1       7.370  -1.710  24.537  0.00  0.00    +0.202 A 
ATOM      9  N   UNL     1       7.416  -2.930  25.033  0.00  0.00    -0.231 NA
ATOM     10  C   UNL     1       8.712  -3.374  24.805  0.00  0.00    +0.143 A 
BRANCH  10  11
ATOM     11  C   UNL     1       9.214  -4.685  25.211  0.00  0.00    +0.261 C 
ATOM     12  N   UNL     1       9.444  -4.799  26.551  0.00  0.00    -0.324 N 
ATOM     13  H   UNL     1       9.795  -5.666  26.922  0.00  0.00    +0.145 HD
ATOM     14  H   UNL     1       9.261  -4.002  27.149  0.00  0.00    +0.145 HD
ATOM     15  O   UNL     1       9.424  -5.616  24.438  0.00  0.00    -0.269 OA
ENDBRANCH  10  11
ENDBRANCH   1   7
BRANCH   4  16
ATOM     16  O3* UNL     1      10.179   1.905  21.697  0.00  0.00    -0.386 OA
ATOM     17  H3* UNL     1      10.423   2.185  20.794  0.00  0.00    +0.210 HD
ENDBRANCH   4  16
BRANCH   5  18
ATOM     18  O2* UNL     1       9.841  -0.698  21.147  0.00  0.00    -0.385 OA
ATOM     19  H2* UNL     1       9.433  -1.205  20.423  0.00  0.00    +0.210 HD
ENDBRANCH   5  18
BRANCH   3  20
ATOM     20  C5* UNL     1       6.567   2.297  22.499  0.00  0.00    +0.190 C 
BRANCH  20  21
ATOM     21  O5* UNL     1       5.702   1.455  23.257  0.00  0.00    -0.392 OA
ATOM     22  H5* UNL     1       4.822   1.873  23.255  0.00  0.00    +0.210 HD
ENDBRANCH  20  21
ENDBRANCH   3  20
TORSDOF 6
ENDMDL
MODEL 7
REMARK VINA RESULT:      -5.6      2.338      5.885
REMARK  Name = 
REMARK  6 active torsions:
REMARK  status: ('A' for Active; 'I' for Inactive)
REMARK    1  A    between atoms: C_2  and  C_19
REMARK    2  A    between atoms: N_5  and  C1*_6
REMARK    3  A    between atoms: C2*_8  and  O2*_18
REMARK    4  A    between atoms: C3*_10  and  O3*_17
REMARK    5  A    between atoms: C4*_12  and  C5*_15
REMARK    6  A    between atoms: C5*_15  and  O5*_16
REMARK                            x       y       z     vdW  Elec       q    Type
REMARK                         _______ _______ _______ _____ _____    ______ ____
ROOT
ATOM      1  C1* UNL     1       9.354  -2.976  24.571  0.00  0.00    +0.252 C 
ATOM      2  O4* UNL     1       8.938  -4.154  23.849  0.00  0.00    -0.346 OA
ATOM      3  C4* UNL     1       8.217  -4.993  24.795  0.00  0.00    +0.177 C 
ATOM      4  C3* UNL     1       8.142  -4.226  26.120  0.00  0.00    +0.178 C 
ATOM      5  C2* UNL     1       8.331  -2.781  25.691  0.00  0.00    +0.195 C 
ENDROOT
BRANCH   1   7
ATOM      6  C   UNL     1       9.859  -0.583  24.082  0.00  0.00    +0.122 A 
ATOM      7  N   UNL     1       9.497  -1.841  23.680  0.00  0.00    -0.307 N 
ATOM      8  C   UNL     1       9.342  -1.809  22.324  0.00  0.00    +0.202 A 
ATOM      9  N   UNL     1       9.580  -0.609  21.835  0.00  0.00    -0.231 NA
ATOM     10  C   UNL     1       9.915   0.177  22.931  0.00  0.00    +0.143 A 
BRANCH  10  11
ATOM     11  C   UNL     1      10.274   1.591  22.849  0.00  0.00    +0.261 C 
ATOM     12  N   UNL     1      10.010   2.160  21.637  0.00  0.00    -0.324 N 
ATOM     13  H   UNL     1      10.228   3.130  21.486  0.00  0.00    +0.145 HD
ATOM     14  H   UNL     1       9.601   1.589  20.907  0.00  0.00    +0.145 HD
ATOM     15  O   UNL     1      10.774   2.234  23.769  0.00  0.00    -0.269 OA
ENDBRANCH  10  11
ENDBRANCH   1   7
BRANCH   4  16
ATOM     16  O3* UNL     1       9.256  -4.603  26.955  0.00  0.00    -0.386 OA
ATOM     17  H3* UNL     1       9.146  -4.120  27.796  0.00  0.00    +0.210 HD
ENDBRANCH   4  16
BRANCH   5  18
ATOM     18  O2* UNL     1       8.775  -1.971  26.777  0.00  0.00    -0.385 OA
ATOM     19  H2* UNL     1       9.698  -2.218  26.965  0.00  0.00    +0.210 HD
ENDBRANCH   5  18
BRANCH   3  20
ATOM     20  C5* UNL     1       6.838  -5.322  24.220  0.00  0.00    +0.190 C 
BRANCH  20  21
ATOM     21  O5* UNL     1       5.878  -5.458  25.264  0.00  0.00    -0.392 OA
ATOM     22  H5* UNL     1       5.882  -6.393  25.536  0.00  0.00    +0.210 HD
ENDBRANCH  20  21
ENDBRANCH   3  20
TORSDOF 6
ENDMDL
MODEL 8
REMARK VINA RESULT:      -5.5      3.256      6.185
REMARK  Name = 
REMARK  6 active torsions:
REMARK  status: ('A' for Active; 'I' for Inactive)
REMARK    1  A    between atoms: C_2  and  C_19
REMARK    2  A    between atoms: N_5  and  C1*_6
REMARK    3  A    between atoms: C2*_8  and  O2*_18
REMARK    4  A    between atoms: C3*_10  and  O3*_17
REMARK    5  A    between atoms: C4*_12  and  C5*_15
REMARK    6  A    between atoms: C5*_15  and  O5*_16
REMARK                            x       y       z     vdW  Elec       q    Type
REMARK                         _______ _______ _______ _____ _____    ______ ____
ROOT
ATOM      1  C1* UNL     1       6.345  -4.432  23.417  0.00  0.00    +0.252 C 
ATOM      2  O4* UNL     1       5.714  -4.440  24.714  0.00  0.00    -0.346 OA
ATOM      3  C4* UNL     1       4.862  -5.619  24.761  0.00  0.00    +0.177 C 
ATOM      4  C3* UNL     1       5.069  -6.381  23.447  0.00  0.00    +0.178 C 
ATOM      5  C2* UNL     1       6.429  -5.894  22.978  0.00  0.00    +0.195 C 
ENDROOT
BRANCH   1   7
ATOM      6  C   UNL     1       7.920  -2.627  22.723  0.00  0.00    +0.122 A 
ATOM      7  N   UNL     1       7.619  -3.741  23.461  0.00  0.00    -0.307 N 
ATOM      8  C   UNL     1       8.708  -4.027  24.234  0.00  0.00    +0.202 A 
ATOM      9  N   UNL     1       9.685  -3.166  24.034  0.00  0.00    -0.231 NA
ATOM     10  C   UNL     1       9.202  -2.270  23.088  0.00  0.00    +0.143 A 
BRANCH  10  11
ATOM     11  C   UNL     1       9.957  -1.128  22.578  0.00  0.00    +0.261 C 
ATOM     12  N   UNL     1       9.825  -0.932  21.234  0.00  0.00    -0.324 N 
ATOM     13  H   UNL     1      10.313  -0.171  20.793  0.00  0.00    +0.145 HD
ATOM     14  H   UNL     1       9.239  -1.565  20.703  0.00  0.00    +0.145 HD
ATOM     15  O   UNL     1      10.659  -0.397  23.271  0.00  0.00    -0.269 OA
ENDBRANCH  10  11
ENDBRANCH   1   7
BRANCH   4  16
ATOM     16  O3* UNL     1       4.077  -5.960  22.488  0.00  0.00    -0.386 OA
ATOM     17  H3* UNL     1       4.157  -6.565  21.726  0.00  0.00    +0.210 HD
ENDBRANCH   4  16
BRANCH   5  18
ATOM     18  O2* UNL     1       6.595  -6.092  21.576  0.00  0.00    -0.385 OA
ATOM     19  H2* UNL     1       7.100  -5.333  21.233  0.00  0.00    +0.210 HD
ENDBRANCH   5  18
BRANCH   3  20
ATOM     20  C5* UNL     1       5.226  -6.450  25.993  0.00  0.00    +0.190 C 
BRANCH  20  21
ATOM     21  O5* UNL     1       6.499  -6.062  26.502  0.00  0.00    -0.392 OA
ATOM     22  H5* UNL     1       7.153  -6.241  25.802  0.00  0.00    +0.210 HD
ENDBRANCH  20  21
ENDBRANCH   3  20
TORSDOF 6
ENDMDL
MODEL 9
REMARK VINA RESULT:      -5.4      1.897      3.381
REMARK  Name = 
REMARK  6 active torsions:
REMARK  status: ('A' for Active; 'I' for Inactive)
REMARK    1  A    between atoms: C_2  and  C_19
REMARK    2  A    between atoms: N_5  and  C1*_6
REMARK    3  A    between atoms: C2*_8  and  O2*_18
REMARK    4  A    between atoms: C3*_10  and  O3*_17
REMARK    5  A    between atoms: C4*_12  and  C5*_15
REMARK    6  A    between atoms: C5*_15  and  O5*_16
REMARK                            x       y       z     vdW  Elec       q    Type
REMARK                         _______ _______ _______ _____ _____    ______ ____
ROOT
ATOM      1  C1* UNL     1       8.095  -0.608  23.984  0.00  0.00    +0.252 C 
ATOM      2  O4* UNL     1       7.268   0.186  23.109  0.00  0.00    -0.346 OA
ATOM      3  C4* UNL     1       7.863   1.514  23.058  0.00  0.00    +0.177 C 
ATOM      4  C3* UNL     1       9.151   1.466  23.888  0.00  0.00    +0.178 C 
ATOM      5  C2* UNL     1       9.500  -0.012  23.896  0.00  0.00    +0.195 C 
ENDROOT
BRANCH   1   7
ATOM      6  C   UNL     1       7.140  -2.541  22.729  0.00  0.00    +0.122 A 
ATOM      7  N   UNL     1       8.014  -2.016  23.643  0.00  0.00    -0.307 N 
ATOM      8  C   UNL     1       8.779  -3.043  24.115  0.00  0.00    +0.202 A 
ATOM      9  N   UNL     1       8.447  -4.191  23.561  0.00  0.00    -0.231 NA
ATOM     10  C   UNL     1       7.417  -3.892  22.677  0.00  0.00    +0.143 A 
BRANCH  10  11
ATOM     11  C   UNL     1       6.751  -4.876  21.829  0.00  0.00    +0.261 C 
ATOM     12  N   UNL     1       7.231  -6.146  21.972  0.00  0.00    -0.324 N 
ATOM     13  H   UNL     1       6.834  -6.890  21.425  0.00  0.00    +0.145 HD
ATOM     14  H   UNL     1       7.985  -6.313  22.627  0.00  0.00    +0.145 HD
ATOM     15  O   UNL     1       5.841  -4.614  21.046  0.00  0.00    -0.269 OA
ENDBRANCH  10  11
ENDBRANCH   1   7
BRANCH   4  16
ATOM     16  O3* UNL     1       8.864   1.876  25.241  0.00  0.00    -0.386 OA
ATOM     17  H3* UNL     1       9.660   1.667  25.766  0.00  0.00    +0.210 HD
ENDBRANCH   4  16
BRANCH   5  18
ATOM     18  O2* UNL     1      10.360  -0.335  24.986  0.00  0.00    -0.385 OA
ATOM     19  H2* UNL     1      10.425   0.457  25.549  0.00  0.00    +0.210 HD
ENDBRANCH   5  18
BRANCH   3  20
ATOM     20  C5* UNL     1       8.111   1.894  21.597  0.00  0.00    +0.190 C 
BRANCH  20  21
ATOM     21  O5* UNL     1       9.491   2.168  21.377  0.00  0.00    -0.392 OA
ATOM     22  H5* UNL     1       9.584   3.135  21.310  0.00  0.00    +0.210 HD
ENDBRANCH  20  21
ENDBRANCH   3  20
TORSDOF 6
ENDMDL
