MODEL 1
REMARK VINA RESULT:      -6.2      0.000      0.000
REMARK  Name = 
REMARK  6 active torsions:
REMARK  status: ('A' for Active; 'I' for Inactive)
REMARK    1  A    between atoms: C_3  and  C_18
REMARK    2  A    between atoms: N_5  and  C1*_6
REMARK    3  A    between atoms: C2*_8  and  O2*_17
REMARK    4  A    between atoms: C3*_10  and  O3*_16
REMARK    5  A    between atoms: C4*_11  and  C5*_14
REMARK    6  A    between atoms: C5*_14  and  O5*_15
REMARK                            x       y       z     vdW  Elec       q    Type
REMARK                         _______ _______ _______ _____ _____    ______ ____
ROOT
ATOM      1  C1* UNL     1       8.994  -1.780  23.722  0.00  0.00    +0.270 C 
ATOM      2  O4* UNL     1       8.023  -0.721  23.571  0.00  0.00    -0.344 OA
ATOM      3  C4* UNL     1       8.758   0.499  23.288  0.00  0.00    +0.177 C 
ATOM      4  C3* UNL     1      10.238   0.104  23.139  0.00  0.00    +0.178 C 
ATOM      5  C2* UNL     1      10.181  -1.388  22.838  0.00  0.00    +0.196 C 
ENDROOT
BRANCH   1   7
ATOM      6  C   UNL     1       8.558  -4.197  24.184  0.00  0.00    +0.223 A 
ATOM      7  N   UNL     1       8.362  -3.056  23.467  0.00  0.00    -0.220 N 
ATOM      8  N   UNL     1       7.570  -3.284  22.398  0.00  0.00    -0.142 NA
ATOM      9  C   UNL     1       7.288  -4.598  22.535  0.00  0.00    +0.236 A 
ATOM     10  N   UNL     1       7.904  -5.188  23.630  0.00  0.00    -0.211 NA
BRANCH   9  11
ATOM     11  C   UNL     1       6.423  -5.370  21.621  0.00  0.00    +0.281 C 
ATOM     12  N   UNL     1       6.208  -6.662  22.023  0.00  0.00    -0.323 N 
ATOM     13  H   UNL     1       5.615  -7.260  21.469  0.00  0.00    +0.145 HD
ATOM     14  H   UNL     1       6.621  -6.997  22.888  0.00  0.00    +0.145 HD
ATOM     15  O   UNL     1       5.924  -4.939  20.587  0.00  0.00    -0.267 OA
ENDBRANCH   9  11
ENDBRANCH   1   7
BRANCH   4  16
ATOM     16  O3* UNL     1      10.943   0.285  24.380  0.00  0.00    -0.386 OA
ATOM     17  H3* UNL     1      11.891   0.088  24.266  0.00  0.00    +0.210 HD
ENDBRANCH   4  16
BRANCH   5  18
ATOM     18  O2* UNL     1       9.924  -1.589  21.446  0.00  0.00    -0.385 OA
ATOM     19  H2* UNL     1       9.031  -1.998  21.386  0.00  0.00    +0.210 HD
ENDBRANCH   5  18
BRANCH   3  20
ATOM     20  C5* UNL     1       8.143   1.217  22.080  0.00  0.00    +0.190 C 
BRANCH  20  21
ATOM     21  O5* UNL     1       8.970   1.255  20.930  0.00  0.00    -0.392 OA
ATOM     22  H5* UNL     1       8.701   2.010  20.371  0.00  0.00    +0.210 HD
ENDBRANCH  20  21
ENDBRANCH   3  20
TORSDOF 6
ENDMDL
MODEL 2
REMARK VINA RESULT:      -6.1      1.971      3.322
REMARK  Name = 
REMARK  6 active torsions:
REMARK  status: ('A' for Active; 'I' for Inactive)
REMARK    1  A    between atoms: C_3  and  C_18
REMARK    2  A    between atoms: N_5  and  C1*_6
REMARK    3  A    between atoms: C2*_8  and  O2*_17
REMARK    4  A    between atoms: C3*_10  and  O3*_16
REMARK    5  A    between atoms: C4*_11  and  C5*_14
REMARK    6  A    between atoms: C5*_14  and  O5*_15
REMARK                            x       y       z     vdW  Elec       q    Type
REMARK                         _______ _______ _______ _____ _____    ______ ____
ROOT
ATOM      1  C1* UNL     1       8.991  -1.363  22.558  0.00  0.00    +0.270 C 
ATOM      2  O4* UNL     1      10.282  -0.927  23.038  0.00  0.00    -0.344 OA
ATOM      3  C4* UNL     1      10.308   0.521  22.948  0.00  0.00    +0.177 C 
ATOM      4  C3* UNL     1       8.902   0.966  22.510  0.00  0.00    +0.178 C 
ATOM      5  C2* UNL     1       8.021  -0.221  22.875  0.00  0.00    +0.196 C 
ENDROOT
BRANCH   1   7
ATOM      6  C   UNL     1       7.771  -3.544  22.604  0.00  0.00    +0.223 A 
ATOM      7  N   UNL     1       8.688  -2.668  23.102  0.00  0.00    -0.220 N 
ATOM      8  N   UNL     1       9.222  -3.128  24.254  0.00  0.00    -0.142 NA
ATOM      9  C   UNL     1       8.600  -4.319  24.394  0.00  0.00    +0.236 A 
ATOM     10  N   UNL     1       7.684  -4.590  23.388  0.00  0.00    -0.211 NA
BRANCH   9  11
ATOM     11  C   UNL     1       8.836  -5.264  25.504  0.00  0.00    +0.281 C 
ATOM     12  N   UNL     1      10.150  -5.623  25.655  0.00  0.00    -0.323 N 
ATOM     13  H   UNL     1      10.408  -6.252  26.399  0.00  0.00    +0.145 HD
ATOM     14  H   UNL     1      10.854  -5.231  25.038  0.00  0.00    +0.145 HD
ATOM     15  O   UNL     1       7.969  -5.714  26.244  0.00  0.00    -0.267 OA
ENDBRANCH   9  11
ENDBRANCH   1   7
BRANCH   4  16
ATOM     16  O3* UNL     1       8.844   1.147  21.083  0.00  0.00    -0.386 OA
ATOM     17  H3* UNL     1       8.108   1.739  20.844  0.00  0.00    +0.210 HD
ENDBRANCH   4  16
BRANCH   5  18
ATOM     18  O2* UNL     1       7.676  -0.157  24.261  0.00  0.00    -0.385 OA
ATOM     19  H2* UNL     1       7.783  -1.069  24.616  0.00  0.00    +0.210 HD
ENDBRANCH   5  18
BRANCH   3  20
ATOM     20  C5* UNL     1      10.808   1.123  24.268  0.00  0.00    +0.190 C 
BRANCH  20  21
ATOM     21  O5* UNL     1      10.368   0.446  25.432  0.00  0.00    -0.392 OA
ATOM     22  H5* UNL     1       9.548   0.868  25.753  0.00  0.00    +0.210 HD
ENDBRANCH  20  21
ENDBRANCH   3  20
TORSDOF 6
ENDMDL
MODEL 3
REMARK VINA RESULT:      -5.7      2.875      5.799
REMARK  Name = 
REMARK  6 active torsions:
REMARK  status: ('A' for Active; 'I' for Inactive)
REMARK    1  A    between atoms: C_3  and  C_18
REMARK    2  A    between atoms: N_5  and  C1*_6
REMARK    3  A    between atoms: C2*_8  and  O2*_17
REMARK    4  A    between atoms: C3*_10  and  O3*_16
REMARK    5  A    between atoms: C4*_11  and  C5*_14
REMARK    6  A    between atoms: C5*_14  and  O5*_15
REMARK                            x       y       z     vdW  Elec       q    Type
REMARK                         _______ _______ _______ _____ _____    ______ ____
ROOT
ATOM      1  C1* UNL     1       9.451  -3.026  24.484  0.00  0.00    +0.270 C 
ATOM      2  O4* UNL     1       8.746  -4.067  23.774  0.00  0.00    -0.344 OA
ATOM      3  C4* UNL     1       8.169  -4.953  24.769  0.00  0.00    +0.177 C 
ATOM      4  C3* UNL     1       8.447  -4.319  26.144  0.00  0.00    +0.178 C 
ATOM      5  C2* UNL     1       8.715  -2.856  25.816  0.00  0.00    +0.196 C 
ENDROOT
BRANCH   1   7
ATOM      6  C   UNL     1       9.530  -1.860  22.274  0.00  0.00    +0.223 A 
ATOM      7  N   UNL     1       9.577  -1.861  23.636  0.00  0.00    -0.220 N 
ATOM      8  N   UNL     1       9.866  -0.631  24.112  0.00  0.00    -0.142 NA
ATOM      9  C   UNL     1       9.959   0.093  22.976  0.00  0.00    +0.236 A 
ATOM     10  N   UNL     1       9.769  -0.654  21.822  0.00  0.00    -0.211 NA
BRANCH   9  11
ATOM     11  C   UNL     1      10.247   1.541  22.925  0.00  0.00    +0.281 C 
ATOM     12  N   UNL     1      10.033   2.104  21.694  0.00  0.00    -0.323 N 
ATOM     13  H   UNL     1      10.188   3.092  21.570  0.00  0.00    +0.145 HD
ATOM     14  H   UNL     1       9.694   1.530  20.929  0.00  0.00    +0.145 HD
ATOM     15  O   UNL     1      10.645   2.216  23.868  0.00  0.00    -0.267 OA
ENDBRANCH   9  11
ENDBRANCH   1   7
BRANCH   4  16
ATOM     16  O3* UNL     1       9.639  -4.873  26.731  0.00  0.00    -0.386 OA
ATOM     17  H3* UNL     1       9.920  -4.342  27.499  0.00  0.00    +0.210 HD
ENDBRANCH   4  16
BRANCH   5  18
ATOM     18  O2* UNL     1       7.474  -2.159  25.677  0.00  0.00    -0.385 OA
ATOM     19  H2* UNL     1       7.111  -2.414  24.798  0.00  0.00    +0.210 HD
ENDBRANCH   5  18
BRANCH   3  20
ATOM     20  C5* UNL     1       6.692  -5.214  24.451  0.00  0.00    +0.190 C 
BRANCH  20  21
ATOM     21  O5* UNL     1       5.913  -4.046  24.252  0.00  0.00    -0.392 OA
ATOM     22  H5* UNL     1       5.815  -3.891  23.293  0.00  0.00    +0.210 HD
ENDBRANCH  20  21
ENDBRANCH   3  20
TORSDOF 6
ENDMDL
MODEL 4
REMARK VINA RESULT:      -5.6      5.305      8.199
REMARK  Name = 
REMARK  6 active torsions:
REMARK  status: ('A' for Active; 'I' for Inactive)
REMARK    1  A    between atoms: C_3  and  C_18
REMARK    2  A    between atoms: N_5  and  C1*_6
REMARK    3  A    between atoms: C2*_8  and  O2*_17
REMARK    4  A    between atoms: C3*_10  and  O3*_16
REMARK    5  A    between atoms: C4*_11  and  C5*_14
REMARK    6  A    between atoms: C5*_14  and  O5*_15
REMARK                            x       y       z     vdW  Elec       q    Type
REMARK                         _______ _______ _______ _____ _____    ______ ____
ROOT
ATOM      1  C1* UNL     1       8.394   2.984  23.334  0.00  0.00    +0.270 C 
ATOM      2  O4* UNL     1       8.774   1.988  24.309  0.00  0.00    -0.344 OA
ATOM      3  C4* UNL     1       8.391   0.694  23.775  0.00  0.00    +0.177 C 
ATOM      4  C3* UNL     1       7.873   0.938  22.346  0.00  0.00    +0.178 C 
ATOM      5  C2* UNL     1       8.472   2.287  21.973  0.00  0.00    +0.196 C 
ENDROOT
BRANCH   1   7
ATOM      6  C   UNL     1       8.755   5.457  23.375  0.00  0.00    +0.223 A 
ATOM      7  N   UNL     1       9.192   4.175  23.523  0.00  0.00    -0.220 N 
ATOM      8  N   UNL     1      10.519   4.140  23.771  0.00  0.00    -0.142 NA
ATOM      9  C   UNL     1      10.834   5.453  23.789  0.00  0.00    +0.236 A 
ATOM     10  N   UNL     1       9.756   6.288  23.531  0.00  0.00    -0.211 NA
BRANCH   9  11
ATOM     11  C   UNL     1      12.186   5.989  24.043  0.00  0.00    +0.281 C 
ATOM     12  N   UNL     1      13.133   5.546  23.157  0.00  0.00    -0.323 N 
ATOM     13  H   UNL     1      14.082   5.873  23.244  0.00  0.00    +0.145 HD
ATOM     14  H   UNL     1      12.865   4.918  22.406  0.00  0.00    +0.145 HD
ATOM     15  O   UNL     1      12.482   6.758  24.952  0.00  0.00    -0.267 OA
ENDBRANCH   9  11
ENDBRANCH   1   7
BRANCH   4  16
ATOM     16  O3* UNL     1       6.439   1.065  22.337  0.00  0.00    -0.386 OA
ATOM     17  H3* UNL     1       6.111   1.290  23.227  0.00  0.00    +0.210 HD
ENDBRANCH   4  16
BRANCH   5  18
ATOM     18  O2* UNL     1       9.816   2.107  21.520  0.00  0.00    -0.385 OA
ATOM     19  H2* UNL     1      10.391   2.582  22.164  0.00  0.00    +0.210 HD
ENDBRANCH   5  18
BRANCH   3  20
ATOM     20  C5* UNL     1       9.560  -0.293  23.891  0.00  0.00    +0.190 C 
BRANCH  20  21
ATOM     21  O5* UNL     1      10.841   0.282  23.697  0.00  0.00    -0.392 OA
ATOM     22  H5* UNL     1      10.745   1.250  23.615  0.00  0.00    +0.210 HD
ENDBRANCH  20  21
ENDBRANCH   3  20
TORSDOF 6
ENDMDL
MODEL 5
REMARK VINA RESULT:      -5.6      2.527      5.668
REMARK  Name = 
REMARK  6 active torsions:
REMARK  status: ('A' for Active; 'I' for Inactive)
REMARK    1  A    between atoms: C_3  and  C_18
REMARK    2  A    between atoms: N_5  and  C1*_6
REMARK    3  A    between atoms: C2*_8  and  O2*_17
REMARK    4  A    between atoms: C3*_10  and  O3*_16
REMARK    5  A    between atoms: C4*_11  and  C5*_14
REMARK    6  A    between atoms: C5*_14  and  O5*_15
REMARK                            x       y       z     vdW  Elec       q    Type
REMARK                         _______ _______ _______ _____ _____    ______ ____
ROOT
ATOM      1  C1* UNL     1       7.565  -2.974  23.480  0.00  0.00    +0.270 C 
ATOM      2  O4* UNL     1       7.909  -4.204  22.805  0.00  0.00    -0.344 OA
ATOM      3  C4* UNL     1       6.827  -5.142  23.041  0.00  0.00    +0.177 C 
ATOM      4  C3* UNL     1       5.725  -4.372  23.791  0.00  0.00    +0.178 C 
ATOM      5  C2* UNL     1       6.035  -2.913  23.483  0.00  0.00    +0.196 C 
ENDROOT
BRANCH   1   7
ATOM      6  C   UNL     1       9.602  -1.862  22.552  0.00  0.00    +0.223 A 
ATOM      7  N   UNL     1       8.278  -1.873  22.871  0.00  0.00    -0.220 N 
ATOM      8  N   UNL     1       7.714  -0.667  22.645  0.00  0.00    -0.142 NA
ATOM      9  C   UNL     1       8.755   0.040  22.154  0.00  0.00    +0.236 A 
ATOM     10  N   UNL     1       9.941  -0.679  22.102  0.00  0.00    -0.211 NA
BRANCH   9  11
ATOM     11  C   UNL     1       8.682   1.448  21.716  0.00  0.00    +0.281 C 
ATOM     12  N   UNL     1       9.904   2.059  21.608  0.00  0.00    -0.323 N 
ATOM     13  H   UNL     1       9.951   3.017  21.300  0.00  0.00    +0.145 HD
ATOM     14  H   UNL     1      10.749   1.534  21.811  0.00  0.00    +0.145 HD
ATOM     15  O   UNL     1       7.647   2.057  21.465  0.00  0.00    -0.267 OA
ENDBRANCH   9  11
ENDBRANCH   1   7
BRANCH   4  16
ATOM     16  O3* UNL     1       5.844  -4.565  25.213  0.00  0.00    -0.386 OA
ATOM     17  H3* UNL     1       6.349  -3.835  25.616  0.00  0.00    +0.210 HD
ENDBRANCH   4  16
BRANCH   5  18
ATOM     18  O2* UNL     1       5.493  -2.566  22.206  0.00  0.00    -0.385 OA
ATOM     19  H2* UNL     1       4.768  -3.209  22.029  0.00  0.00    +0.210 HD
ENDBRANCH   5  18
BRANCH   3  20
ATOM     20  C5* UNL     1       6.393  -5.792  21.721  0.00  0.00    +0.190 C 
BRANCH  20  21
ATOM     21  O5* UNL     1       5.914  -4.884  20.744  0.00  0.00    -0.392 OA
ATOM     22  H5* UNL     1       5.502  -4.122  21.195  0.00  0.00    +0.210 HD
ENDBRANCH  20  21
ENDBRANCH   3  20
TORSDOF 6
ENDMDL
MODEL 6
REMARK VINA RESULT:      -5.5      1.160      2.364
REMARK  Name = 
REMARK  6 active torsions:
REMARK  status: ('A' for Active; 'I' for Inactive)
REMARK    1  A    between atoms: C_3  and  C_18
REMARK    2  A    between atoms: N_5  and  C1*_6
REMARK    3  A    between atoms: C2*_8  and  O2*_17
REMARK    4  A    between atoms: C3*_10  and  O3*_16
REMARK    5  A    between atoms: C4*_11  and  C5*_14
REMARK    6  A    between atoms: C5*_14  and  O5*_15
REMARK                            x       y       z     vdW  Elec       q    Type
REMARK                         _______ _______ _______ _____ _____    ______ ____
ROOT
ATOM      1  C1* UNL     1       8.724  -1.235  22.374  0.00  0.00    +0.270 C 
ATOM      2  O4* UNL     1       9.999  -1.131  23.045  0.00  0.00    -0.344 OA
ATOM      3  C4* UNL     1      10.323   0.281  23.137  0.00  0.00    +0.177 C 
ATOM      4  C3* UNL     1       9.105   1.054  22.601  0.00  0.00    +0.178 C 
ATOM      5  C2* UNL     1       7.965   0.050  22.716  0.00  0.00    +0.196 C 
ENDROOT
BRANCH   1   7
ATOM      6  C   UNL     1       8.555  -3.383  23.641  0.00  0.00    +0.223 A 
ATOM      7  N   UNL     1       8.099  -2.493  22.716  0.00  0.00    -0.220 N 
ATOM      8  N   UNL     1       7.023  -2.982  22.063  0.00  0.00    -0.142 NA
ATOM      9  C   UNL     1       6.853  -4.180  22.662  0.00  0.00    +0.236 A 
ATOM     10  N   UNL     1       7.803  -4.456  23.636  0.00  0.00    -0.211 NA
BRANCH   9  11
ATOM     11  C   UNL     1       5.780  -5.139  22.333  0.00  0.00    +0.281 C 
ATOM     12  N   UNL     1       6.237  -6.375  21.958  0.00  0.00    -0.323 N 
ATOM     13  H   UNL     1       5.574  -7.099  21.731  0.00  0.00    +0.145 HD
ATOM     14  H   UNL     1       7.235  -6.559  21.941  0.00  0.00    +0.145 HD
ATOM     15  O   UNL     1       4.579  -4.896  22.374  0.00  0.00    -0.267 OA
ENDBRANCH   9  11
ENDBRANCH   1   7
BRANCH   4  16
ATOM     16  O3* UNL     1       9.277   1.379  21.209  0.00  0.00    -0.386 OA
ATOM     17  H3* UNL     1      10.144   1.802  21.062  0.00  0.00    +0.210 HD
ENDBRANCH   4  16
BRANCH   5  18
ATOM     18  O2* UNL     1       7.456   0.052  24.052  0.00  0.00    -0.385 OA
ATOM     19  H2* UNL     1       7.790   0.877  24.474  0.00  0.00    +0.210 HD
ENDBRANCH   5  18
BRANCH   3  20
ATOM     20  C5* UNL     1      10.749   0.634  24.568  0.00  0.00    +0.190 C 
BRANCH  20  21
ATOM     21  O5* UNL     1       9.959   0.040  25.584  0.00  0.00    -0.392 OA
ATOM     22  H5* UNL     1       9.175  -0.373  25.174  0.00  0.00    +0.210 HD
ENDBRANCH  20  21
ENDBRANCH   3  20
TORSDOF 6
ENDMDL
MODEL 7
REMARK VINA RESULT:      -5.5      2.298      3.448
REMARK  Name = 
REMARK  6 active torsions:
REMARK  status: ('A' for Active; 'I' for Inactive)
REMARK    1  A    between atoms: C_3  and  C_18
REMARK    2  A    between atoms: N_5  and  C1*_6
REMARK    3  A    between atoms: C2*_8  and  O2*_17
REMARK    4  A    between atoms: C3*_10  and  O3*_16
REMARK    5  A    between atoms: C4*_11  and  C5*_14
REMARK    6  A    between atoms: C5*_14  and  O5*_15
REMARK                            x       y       z     vdW  Elec       q    Type
REMARK                         _______ _______ _______ _____ _____    ______ ____
ROOT
ATOM      1  C1* UNL     1       8.856  -2.514  23.182  0.00  0.00    +0.270 C 
ATOM      2  O4* UNL     1       9.945  -2.071  24.021  0.00  0.00    -0.344 OA
ATOM      3  C4* UNL     1      10.268  -0.712  23.625  0.00  0.00    +0.177 C 
ATOM      4  C3* UNL     1       9.221  -0.292  22.578  0.00  0.00    +0.178 C 
ATOM      5  C2* UNL     1       8.065  -1.254  22.822  0.00  0.00    +0.196 C 
ENDROOT
BRANCH   1   7
ATOM      6  C   UNL     1       7.364  -4.519  23.226  0.00  0.00    +0.223 A 
ATOM      7  N   UNL     1       8.144  -3.587  23.841  0.00  0.00    -0.220 N 
ATOM      8  N   UNL     1       8.089  -3.718  25.184  0.00  0.00    -0.142 NA
ATOM      9  C   UNL     1       7.269  -4.781  25.327  0.00  0.00    +0.236 A 
ATOM     10  N   UNL     1       6.795  -5.285  24.124  0.00  0.00    -0.211 NA
BRANCH   9  11
ATOM     11  C   UNL     1       6.880  -5.373  26.622  0.00  0.00    +0.281 C 
ATOM     12  N   UNL     1       5.914  -6.340  26.522  0.00  0.00    -0.323 N 
ATOM     13  H   UNL     1       5.598  -6.811  27.355  0.00  0.00    +0.145 HD
ATOM     14  H   UNL     1       5.548  -6.593  25.610  0.00  0.00    +0.145 HD
ATOM     15  O   UNL     1       7.347  -5.057  27.712  0.00  0.00    -0.267 OA
ENDBRANCH   9  11
ENDBRANCH   1   7
BRANCH   4  16
ATOM     16  O3* UNL     1       9.714  -0.513  21.244  0.00  0.00    -0.386 OA
ATOM     17  H3* UNL     1      10.404  -1.202  21.244  0.00  0.00    +0.210 HD
ENDBRANCH   4  16
BRANCH   5  18
ATOM     18  O2* UNL     1       7.263  -0.776  23.906  0.00  0.00    -0.385 OA
ATOM     19  H2* UNL     1       7.884  -0.357  24.545  0.00  0.00    +0.210 HD
ENDBRANCH   5  18
BRANCH   3  20
ATOM     20  C5* UNL     1      10.362   0.191  24.861  0.00  0.00    +0.190 C 
BRANCH  20  21
ATOM     21  O5* UNL     1       9.499  -0.171  25.926  0.00  0.00    -0.392 OA
ATOM     22  H5* UNL     1       9.143   0.641  26.335  0.00  0.00    +0.210 HD
ENDBRANCH  20  21
ENDBRANCH   3  20
TORSDOF 6
ENDMDL
MODEL 8
REMARK VINA RESULT:      -5.4      2.703      3.438
REMARK  Name = 
REMARK  6 active torsions:
REMARK  status: ('A' for Active; 'I' for Inactive)
REMARK    1  A    between atoms: C_3  and  C_18
REMARK    2  A    between atoms: N_5  and  C1*_6
REMARK    3  A    between atoms: C2*_8  and  O2*_17
REMARK    4  A    between atoms: C3*_10  and  O3*_16
REMARK    5  A    between atoms: C4*_11  and  C5*_14
REMARK    6  A    between atoms: C5*_14  and  O5*_15
REMARK                            x       y       z     vdW  Elec       q    Type
REMARK                         _______ _______ _______ _____ _____    ______ ____
ROOT
ATOM      1  C1* UNL     1       9.629  -0.036  23.625  0.00  0.00    +0.270 C 
ATOM      2  O4* UNL     1       9.860   1.003  24.602  0.00  0.00    -0.344 OA
ATOM      3  C4* UNL     1       9.632   2.275  23.940  0.00  0.00    +0.177 C 
ATOM      4  C3* UNL     1       9.112   1.955  22.527  0.00  0.00    +0.178 C 
ATOM      5  C2* UNL     1       8.590   0.529  22.652  0.00  0.00    +0.196 C 
ENDROOT
BRANCH   1   7
ATOM      6  C   UNL     1       8.766  -1.381  25.548  0.00  0.00    +0.223 A 
ATOM      7  N   UNL     1       9.307  -1.273  24.302  0.00  0.00    -0.220 N 
ATOM      8  N   UNL     1       9.616  -2.488  23.801  0.00  0.00    -0.142 NA
ATOM      9  C   UNL     1       9.207  -3.311  24.791  0.00  0.00    +0.236 A 
ATOM     10  N   UNL     1       8.689  -2.643  25.892  0.00  0.00    -0.211 NA
BRANCH   9  11
ATOM     11  C   UNL     1       9.298  -4.784  24.749  0.00  0.00    +0.281 C 
ATOM     12  N   UNL     1      10.158  -5.312  25.676  0.00  0.00    -0.323 N 
ATOM     13  H   UNL     1      10.270  -6.312  25.731  0.00  0.00    +0.145 HD
ATOM     14  H   UNL     1      10.650  -4.697  26.316  0.00  0.00    +0.145 HD
ATOM     15  O   UNL     1       8.682  -5.507  23.974  0.00  0.00    -0.267 OA
ENDBRANCH   9  11
ENDBRANCH   1   7
BRANCH   4  16
ATOM     16  O3* UNL     1      10.190   1.956  21.573  0.00  0.00    -0.386 OA
ATOM     17  H3* UNL     1       9.990   2.559  20.833  0.00  0.00    +0.210 HD
ENDBRANCH   4  16
BRANCH   5  18
ATOM     18  O2* UNL     1       7.270   0.547  23.201  0.00  0.00    -0.385 OA
ATOM     19  H2* UNL     1       7.256   1.274  23.864  0.00  0.00    +0.210 HD
ENDBRANCH   5  18
BRANCH   3  20
ATOM     20  C5* UNL     1       8.715   3.159  24.795  0.00  0.00    +0.190 C 
BRANCH  20  21
ATOM     21  O5* UNL     1       7.761   2.449  25.567  0.00  0.00    -0.392 OA
ATOM     22  H5* UNL     1       7.164   1.964  24.965  0.00  0.00    +0.210 HD
ENDBRANCH  20  21
ENDBRANCH   3  20
TORSDOF 6
ENDMDL
MODEL 9
REMARK VINA RESULT:      -5.3      2.833      5.518
REMARK  Name = 
REMARK  6 active torsions:
REMARK  status: ('A' for Active; 'I' for Inactive)
REMARK    1  A    between atoms: C_3  and  C_18
REMARK    2  A    between atoms: N_5  and  C1*_6
REMARK    3  A    between atoms: C2*_8  and  O2*_17
REMARK    4  A    between atoms: C3*_10  and  O3*_16
REMARK    5  A    between atoms: C4*_11  and  C5*_14
REMARK    6  A    between atoms: C5*_14  and  O5*_15
REMARK                            x       y       z     vdW  Elec       q    Type
REMARK                         _______ _______ _______ _____ _____    ______ ____
ROOT
ATOM      1  C1* UNL     1       9.454  -3.029  24.121  0.00  0.00    +0.270 C 
ATOM      2  O4* UNL     1       8.492  -3.650  23.241  0.00  0.00    -0.344 OA
ATOM      3  C4* UNL     1       8.075  -4.892  23.867  0.00  0.00    +0.177 C 
ATOM      4  C3* UNL     1       8.738  -4.936  25.255  0.00  0.00    +0.178 C 
ATOM      5  C2* UNL     1       9.078  -3.478  25.535  0.00  0.00    +0.196 C 
ENDROOT
BRANCH   1   7
ATOM      6  C   UNL     1       9.925  -0.652  24.734  0.00  0.00    +0.223 A 
ATOM      7  N   UNL     1       9.501  -1.607  23.860  0.00  0.00    -0.220 N 
ATOM      8  N   UNL     1       9.017  -1.049  22.729  0.00  0.00    -0.142 NA
ATOM      9  C   UNL     1       9.201   0.267  22.967  0.00  0.00    +0.236 A 
ATOM     10  N   UNL     1       9.750   0.538  24.212  0.00  0.00    -0.211 NA
BRANCH   9  11
ATOM     11  C   UNL     1       8.853   1.347  22.022  0.00  0.00    +0.281 C 
ATOM     12  N   UNL     1       9.928   2.092  21.612  0.00  0.00    -0.323 N 
ATOM     13  H   UNL     1       9.787   2.841  20.953  0.00  0.00    +0.145 HD
ATOM     14  H   UNL     1      10.857   1.865  21.951  0.00  0.00    +0.145 HD
ATOM     15  O   UNL     1       7.722   1.594  21.617  0.00  0.00    -0.267 OA
ENDBRANCH   9  11
ENDBRANCH   1   7
BRANCH   4  16
ATOM     16  O3* UNL     1       9.967  -5.683  25.211  0.00  0.00    -0.386 OA
ATOM     17  H3* UNL     1       9.842  -6.518  24.724  0.00  0.00    +0.210 HD
ENDBRANCH   4  16
BRANCH   5  18
ATOM     18  O2* UNL     1       7.923  -2.803  26.041  0.00  0.00    -0.385 OA
ATOM     19  H2* UNL     1       8.194  -1.870  26.197  0.00  0.00    +0.210 HD
ENDBRANCH   5  18
BRANCH   3  20
ATOM     20  C5* UNL     1       6.544  -4.997  23.864  0.00  0.00    +0.190 C 
BRANCH  20  21
ATOM     21  O5* UNL     1       5.867  -3.784  24.147  0.00  0.00    -0.392 OA
ATOM     22  H5* UNL     1       4.905  -3.937  24.084  0.00  0.00    +0.210 HD
ENDBRANCH  20  21
ENDBRANCH   3  20
TORSDOF 6
ENDMDL
