MODEL 1
REMARK VINA RESULT:      -6.1      0.000      0.000
REMARK  Name = 
REMARK  4 active torsions:
REMARK  status: ('A' for Active; 'I' for Inactive)
REMARK    1  A    between atoms: C3*_2  and  O3*_17
REMARK    2  A    between atoms: C4*_3  and  C5*_15
REMARK    3  A    between atoms: C1*_5  and  N_6
REMARK    4  A    between atoms: C5*_15  and  O5*_16
REMARK                            x       y       z     vdW  Elec       q    Type
REMARK                         _______ _______ _______ _____ _____    ______ ____
ROOT
ATOM      1  C2* UNL     1       9.878  -1.894  23.875  0.00  0.00    +0.086 C 
ATOM      2  C1* UNL     1       8.917  -3.068  23.785  0.00  0.00    +0.212 C 
ATOM      3  O4* UNL     1       7.739  -2.622  23.102  0.00  0.00    -0.350 OA
ATOM      4  C4* UNL     1       7.970  -1.287  22.594  0.00  0.00    +0.174 C 
ATOM      5  C3* UNL     1       9.478  -1.075  22.665  0.00  0.00    +0.150 C 
ENDROOT
BRANCH   2   6
ATOM      6  N   UNL     1       8.537  -3.661  25.050  0.00  0.00    -0.258 N 
ATOM      7  C   UNL     1       9.283  -4.690  25.580  0.00  0.00    +0.310 C 
ATOM      8  O   UNL     1      10.355  -5.069  25.121  0.00  0.00    -0.252 OA
ATOM      9  N   UNL     1       8.701  -5.329  26.646  0.00  0.00    -0.239 N 
ATOM     10  H   UNL     1       9.216  -6.120  27.008  0.00  0.00    +0.159 HD
ATOM     11  C   UNL     1       7.358  -5.318  26.958  0.00  0.00    +0.235 C 
ATOM     12  O   UNL     1       6.896  -6.196  27.685  0.00  0.00    -0.274 OA
ATOM     13  C   UNL     1       6.517  -4.265  26.251  0.00  0.00    +0.155 C 
ATOM     14  I   UNL     1       4.983  -3.553  27.541  0.00  0.00    -0.070 I 
ATOM     15  C   UNL     1       7.438  -3.127  25.840  0.00  0.00    +0.135 C 
ENDBRANCH   2   6
BRANCH   5  16
ATOM     16  O3* UNL     1      10.117  -1.599  21.497  0.00  0.00    -0.389 OA
ATOM     17  H3* UNL     1      11.039  -1.828  21.711  0.00  0.00    +0.210 HD
ENDBRANCH   5  16
BRANCH   4  18
ATOM     18  C5* UNL     1       7.201  -0.259  23.442  0.00  0.00    +0.190 C 
BRANCH  18  19
ATOM     19  O5* UNL     1       6.392   0.591  22.637  0.00  0.00    -0.392 OA
ATOM     20  H5* UNL     1       5.837   1.132  23.223  0.00  0.00    +0.210 HD
ENDBRANCH  18  19
ENDBRANCH   4  18
TORSDOF 4
ENDMDL
MODEL 2
REMARK VINA RESULT:      -5.8      2.645      3.505
REMARK  Name = 
REMARK  4 active torsions:
REMARK  status: ('A' for Active; 'I' for Inactive)
REMARK    1  A    between atoms: C3*_2  and  O3*_17
REMARK    2  A    between atoms: C4*_3  and  C5*_15
REMARK    3  A    between atoms: C1*_5  and  N_6
REMARK    4  A    between atoms: C5*_15  and  O5*_16
REMARK                            x       y       z     vdW  Elec       q    Type
REMARK                         _______ _______ _______ _____ _____    ______ ____
ROOT
ATOM      1  C2* UNL     1       9.494  -0.147  21.784  0.00  0.00    +0.086 C 
ATOM      2  C1* UNL     1       8.305  -0.273  22.721  0.00  0.00    +0.212 C 
ATOM      3  O4* UNL     1       8.497   0.645  23.804  0.00  0.00    -0.350 OA
ATOM      4  C4* UNL     1       9.648   1.474  23.515  0.00  0.00    +0.174 C 
ATOM      5  C3* UNL     1       9.930   1.282  22.030  0.00  0.00    +0.150 C 
ENDROOT
BRANCH   2   6
ATOM      6  N   UNL     1       8.071  -1.597  23.258  0.00  0.00    -0.258 N 
ATOM      7  C   UNL     1       9.136  -2.397  23.608  0.00  0.00    +0.310 C 
ATOM      8  O   UNL     1      10.302  -2.018  23.629  0.00  0.00    -0.252 OA
ATOM      9  N   UNL     1       8.809  -3.703  23.876  0.00  0.00    -0.239 N 
ATOM     10  H   UNL     1       9.591  -4.310  24.080  0.00  0.00    +0.159 HD
ATOM     11  C   UNL     1       7.665  -4.349  23.457  0.00  0.00    +0.235 C 
ATOM     12  O   UNL     1       7.639  -5.578  23.424  0.00  0.00    -0.274 OA
ATOM     13  C   UNL     1       6.548  -3.458  22.935  0.00  0.00    +0.155 C 
ATOM     14  I   UNL     1       4.650  -4.263  23.460  0.00  0.00    -0.070 I 
ATOM     15  C   UNL     1       6.726  -2.075  23.542  0.00  0.00    +0.135 C 
ENDBRANCH   2   6
BRANCH   5  16
ATOM     16  O3* UNL     1       9.129   2.171  21.245  0.00  0.00    -0.389 OA
ATOM     17  H3* UNL     1       8.649   2.778  21.838  0.00  0.00    +0.210 HD
ENDBRANCH   5  16
BRANCH   4  18
ATOM     18  C5* UNL     1      10.839   1.047  24.391  0.00  0.00    +0.190 C 
BRANCH  18  19
ATOM     19  O5* UNL     1      10.416   0.332  25.546  0.00  0.00    -0.392 OA
ATOM     20  H5* UNL     1      10.960  -0.470  25.628  0.00  0.00    +0.210 HD
ENDBRANCH  18  19
ENDBRANCH   4  18
TORSDOF 4
ENDMDL
MODEL 3
REMARK VINA RESULT:      -5.7      2.879      3.311
REMARK  Name = 
REMARK  4 active torsions:
REMARK  status: ('A' for Active; 'I' for Inactive)
REMARK    1  A    between atoms: C3*_2  and  O3*_17
REMARK    2  A    between atoms: C4*_3  and  C5*_15
REMARK    3  A    between atoms: C1*_5  and  N_6
REMARK    4  A    between atoms: C5*_15  and  O5*_16
REMARK                            x       y       z     vdW  Elec       q    Type
REMARK                         _______ _______ _______ _____ _____    ______ ____
ROOT
ATOM      1  C2* UNL     1       8.836  -3.425  24.024  0.00  0.00    +0.086 C 
ATOM      2  C1* UNL     1       7.948  -3.680  22.817  0.00  0.00    +0.212 C 
ATOM      3  O4* UNL     1       7.608  -2.411  22.244  0.00  0.00    -0.350 OA
ATOM      4  C4* UNL     1       8.374  -1.378  22.907  0.00  0.00    +0.174 C 
ATOM      5  C3* UNL     1       9.484  -2.107  23.655  0.00  0.00    +0.150 C 
ENDROOT
BRANCH   2   6
ATOM      6  N   UNL     1       6.733  -4.421  23.082  0.00  0.00    -0.258 N 
ATOM      7  C   UNL     1       6.395  -5.496  22.289  0.00  0.00    +0.310 C 
ATOM      8  O   UNL     1       7.129  -5.974  21.431  0.00  0.00    -0.252 OA
ATOM      9  N   UNL     1       5.120  -5.968  22.478  0.00  0.00    -0.239 N 
ATOM     10  H   UNL     1       4.844  -6.721  21.862  0.00  0.00    +0.159 HD
ATOM     11  C   UNL     1       4.076  -5.268  23.043  0.00  0.00    +0.235 C 
ATOM     12  O   UNL     1       2.919  -5.627  22.832  0.00  0.00    -0.274 OA
ATOM     13  C   UNL     1       4.453  -4.001  23.796  0.00  0.00    +0.155 C 
ATOM     14  I   UNL     1       3.179  -3.731  25.479  0.00  0.00    -0.070 I 
ATOM     15  C   UNL     1       5.901  -4.130  24.241  0.00  0.00    +0.135 C 
ENDBRANCH   2   6
BRANCH   5  16
ATOM     16  O3* UNL     1      10.602  -2.344  22.794  0.00  0.00    -0.389 OA
ATOM     17  H3* UNL     1      10.280  -2.520  21.892  0.00  0.00    +0.210 HD
ENDBRANCH   5  16
BRANCH   4  18
ATOM     18  C5* UNL     1       7.468  -0.574  23.854  0.00  0.00    +0.190 C 
BRANCH  18  19
ATOM     19  O5* UNL     1       6.107  -0.609  23.440  0.00  0.00    -0.392 OA
ATOM     20  H5* UNL     1       5.546  -0.688  24.230  0.00  0.00    +0.210 HD
ENDBRANCH  18  19
ENDBRANCH   4  18
TORSDOF 4
ENDMDL
MODEL 4
REMARK VINA RESULT:      -5.6      2.642      3.433
REMARK  Name = 
REMARK  4 active torsions:
REMARK  status: ('A' for Active; 'I' for Inactive)
REMARK    1  A    between atoms: C3*_2  and  O3*_17
REMARK    2  A    between atoms: C4*_3  and  C5*_15
REMARK    3  A    between atoms: C1*_5  and  N_6
REMARK    4  A    between atoms: C5*_15  and  O5*_16
REMARK                            x       y       z     vdW  Elec       q    Type
REMARK                         _______ _______ _______ _____ _____    ______ ____
ROOT
ATOM      1  C2* UNL     1       6.548  -3.140  23.860  0.00  0.00    +0.086 C 
ATOM      2  C1* UNL     1       7.336  -4.231  24.565  0.00  0.00    +0.212 C 
ATOM      3  O4* UNL     1       7.573  -5.284  23.623  0.00  0.00    -0.350 OA
ATOM      4  C4* UNL     1       7.139  -4.846  22.314  0.00  0.00    +0.174 C 
ATOM      5  C3* UNL     1       6.974  -3.334  22.420  0.00  0.00    +0.150 C 
ENDROOT
BRANCH   2   6
ATOM      6  N   UNL     1       6.714  -4.785  25.749  0.00  0.00    -0.258 N 
ATOM      7  C   UNL     1       7.479  -5.074  26.858  0.00  0.00    +0.310 C 
ATOM      8  O   UNL     1       8.660  -4.768  26.977  0.00  0.00    -0.252 OA
ATOM      9  N   UNL     1       6.835  -5.810  27.822  0.00  0.00    -0.239 N 
ATOM     10  H   UNL     1       7.405  -6.074  28.614  0.00  0.00    +0.159 HD
ATOM     11  C   UNL     1       5.713  -6.587  27.627  0.00  0.00    +0.235 C 
ATOM     12  O   UNL     1       5.442  -7.475  28.434  0.00  0.00    -0.274 OA
ATOM     13  C   UNL     1       4.958  -6.356  26.327  0.00  0.00    +0.155 C 
ATOM     14  I   UNL     1       2.866  -6.591  26.631  0.00  0.00    -0.070 I 
ATOM     15  C   UNL     1       5.271  -4.949  25.844  0.00  0.00    +0.135 C 
ENDBRANCH   2   6
BRANCH   5  16
ATOM     16  O3* UNL     1       8.223  -2.674  22.195  0.00  0.00    -0.389 OA
ATOM     17  H3* UNL     1       8.060  -1.728  22.024  0.00  0.00    +0.210 HD
ENDBRANCH   5  16
BRANCH   4  18
ATOM     18  C5* UNL     1       5.823  -5.546  21.933  0.00  0.00    +0.190 C 
BRANCH  18  19
ATOM     19  O5* UNL     1       5.574  -6.684  22.750  0.00  0.00    -0.392 OA
ATOM     20  H5* UNL     1       4.992  -6.418  23.481  0.00  0.00    +0.210 HD
ENDBRANCH  18  19
ENDBRANCH   4  18
TORSDOF 4
ENDMDL
MODEL 5
REMARK VINA RESULT:      -5.6      2.284      2.974
REMARK  Name = 
REMARK  4 active torsions:
REMARK  status: ('A' for Active; 'I' for Inactive)
REMARK    1  A    between atoms: C3*_2  and  O3*_17
REMARK    2  A    between atoms: C4*_3  and  C5*_15
REMARK    3  A    between atoms: C1*_5  and  N_6
REMARK    4  A    between atoms: C5*_15  and  O5*_16
REMARK                            x       y       z     vdW  Elec       q    Type
REMARK                         _______ _______ _______ _____ _____    ______ ____
ROOT
ATOM      1  C2* UNL     1       9.767   1.384  23.672  0.00  0.00    +0.086 C 
ATOM      2  C1* UNL     1       9.556   0.032  23.012  0.00  0.00    +0.212 C 
ATOM      3  O4* UNL     1       8.568   0.192  21.986  0.00  0.00    -0.350 OA
ATOM      4  C4* UNL     1       8.273   1.600  21.836  0.00  0.00    +0.174 C 
ATOM      5  C3* UNL     1       9.402   2.335  22.551  0.00  0.00    +0.150 C 
ENDROOT
BRANCH   2   6
ATOM      6  N   UNL     1       9.151  -1.039  23.898  0.00  0.00    -0.258 N 
ATOM      7  C   UNL     1       9.718  -2.288  23.772  0.00  0.00    +0.310 C 
ATOM      8  O   UNL     1      10.664  -2.542  23.037  0.00  0.00    -0.252 OA
ATOM      9  N   UNL     1       9.094  -3.275  24.494  0.00  0.00    -0.239 N 
ATOM     10  H   UNL     1       9.469  -4.205  24.366  0.00  0.00    +0.159 HD
ATOM     11  C   UNL     1       7.801  -3.231  24.971  0.00  0.00    +0.235 C 
ATOM     12  O   UNL     1       7.227  -4.277  25.267  0.00  0.00    -0.274 OA
ATOM     13  C   UNL     1       7.135  -1.863  24.967  0.00  0.00    +0.155 C 
ATOM     14  I   UNL     1       5.852  -1.658  26.652  0.00  0.00    -0.070 I 
ATOM     15  C   UNL     1       8.228  -0.807  24.999  0.00  0.00    +0.135 C 
ENDBRANCH   2   6
BRANCH   5  16
ATOM     16  O3* UNL     1      10.524   2.506  21.681  0.00  0.00    -0.389 OA
ATOM     17  H3* UNL     1      10.601   3.447  21.439  0.00  0.00    +0.210 HD
ENDBRANCH   5  16
BRANCH   4  18
ATOM     18  C5* UNL     1       6.898   1.920  22.445  0.00  0.00    +0.190 C 
BRANCH  18  19
ATOM     19  O5* UNL     1       6.133   0.741  22.671  0.00  0.00    -0.392 OA
ATOM     20  H5* UNL     1       5.193   0.955  22.546  0.00  0.00    +0.210 HD
ENDBRANCH  18  19
ENDBRANCH   4  18
TORSDOF 4
ENDMDL
MODEL 6
REMARK VINA RESULT:      -5.6      2.641      3.098
REMARK  Name = 
REMARK  4 active torsions:
REMARK  status: ('A' for Active; 'I' for Inactive)
REMARK    1  A    between atoms: C3*_2  and  O3*_17
REMARK    2  A    between atoms: C4*_3  and  C5*_15
REMARK    3  A    between atoms: C1*_5  and  N_6
REMARK    4  A    between atoms: C5*_15  and  O5*_16
REMARK                            x       y       z     vdW  Elec       q    Type
REMARK                         _______ _______ _______ _____ _____    ______ ____
ROOT
ATOM      1  C2* UNL     1       9.050  -0.079  24.623  0.00  0.00    +0.086 C 
ATOM      2  C1* UNL     1       9.414  -1.547  24.482  0.00  0.00    +0.212 C 
ATOM      3  O4* UNL     1      10.116  -1.710  23.244  0.00  0.00    -0.350 OA
ATOM      4  C4* UNL     1      10.376  -0.404  22.678  0.00  0.00    +0.174 C 
ATOM      5  C3* UNL     1      10.140   0.588  23.811  0.00  0.00    +0.150 C 
ENDROOT
BRANCH   2   6
ATOM      6  N   UNL     1       8.301  -2.473  24.523  0.00  0.00    -0.258 N 
ATOM      7  C   UNL     1       7.633  -2.694  25.706  0.00  0.00    +0.310 C 
ATOM      8  O   UNL     1       7.822  -2.052  26.733  0.00  0.00    -0.252 OA
ATOM      9  N   UNL     1       6.763  -3.757  25.683  0.00  0.00    -0.239 N 
ATOM     10  H   UNL     1       6.309  -3.961  26.563  0.00  0.00    +0.159 HD
ATOM     11  C   UNL     1       6.795  -4.805  24.788  0.00  0.00    +0.235 C 
ATOM     12  O   UNL     1       6.232  -5.861  25.070  0.00  0.00    -0.274 OA
ATOM     13  C   UNL     1       7.657  -4.600  23.551  0.00  0.00    +0.155 C 
ATOM     14  I   UNL     1       6.769  -5.543  21.863  0.00  0.00    -0.070 I 
ATOM     15  C   UNL     1       7.793  -3.104  23.314  0.00  0.00    +0.135 C 
ENDBRANCH   2   6
BRANCH   5  16
ATOM     16  O3* UNL     1      11.317   0.731  24.611  0.00  0.00    -0.389 OA
ATOM     17  H3* UNL     1      11.552   1.675  24.669  0.00  0.00    +0.210 HD
ENDBRANCH   5  16
BRANCH   4  18
ATOM     18  C5* UNL     1       9.443  -0.151  21.482  0.00  0.00    +0.190 C 
BRANCH  18  19
ATOM     19  O5* UNL     1       9.375   1.231  21.148  0.00  0.00    -0.392 OA
ATOM     20  H5* UNL     1      10.266   1.533  20.905  0.00  0.00    +0.210 HD
ENDBRANCH  18  19
ENDBRANCH   4  18
TORSDOF 4
ENDMDL
MODEL 7
REMARK VINA RESULT:      -5.5      2.673      5.260
REMARK  Name = 
REMARK  4 active torsions:
REMARK  status: ('A' for Active; 'I' for Inactive)
REMARK    1  A    between atoms: C3*_2  and  O3*_17
REMARK    2  A    between atoms: C4*_3  and  C5*_15
REMARK    3  A    between atoms: C1*_5  and  N_6
REMARK    4  A    between atoms: C5*_15  and  O5*_16
REMARK                            x       y       z     vdW  Elec       q    Type
REMARK                         _______ _______ _______ _____ _____    ______ ____
ROOT
ATOM      1  C2* UNL     1       7.293  -3.591  23.609  0.00  0.00    +0.086 C 
ATOM      2  C1* UNL     1       8.687  -3.072  23.298  0.00  0.00    +0.212 C 
ATOM      3  O4* UNL     1       9.604  -3.702  24.200  0.00  0.00    -0.350 OA
ATOM      4  C4* UNL     1       8.900  -4.724  24.944  0.00  0.00    +0.174 C 
ATOM      5  C3* UNL     1       7.596  -4.956  24.190  0.00  0.00    +0.150 C 
ENDROOT
BRANCH   2   6
ATOM      6  N   UNL     1       8.851  -1.636  23.381  0.00  0.00    -0.258 N 
ATOM      7  C   UNL     1       9.908  -1.026  22.742  0.00  0.00    +0.310 C 
ATOM      8  O   UNL     1      10.671  -1.601  21.974  0.00  0.00    -0.252 OA
ATOM      9  N   UNL     1      10.101   0.290  23.083  0.00  0.00    -0.239 N 
ATOM     10  H   UNL     1      10.908   0.730  22.661  0.00  0.00    +0.159 HD
ATOM     11  C   UNL     1       9.636   0.903  24.226  0.00  0.00    +0.235 C 
ATOM     12  O   UNL     1      10.161   1.946  24.613  0.00  0.00    -0.274 OA
ATOM     13  C   UNL     1       8.568   0.146  25.002  0.00  0.00    +0.155 C 
ATOM     14  I   UNL     1       7.178   1.504  25.869  0.00  0.00    -0.070 I 
ATOM     15  C   UNL     1       7.863  -0.794  24.038  0.00  0.00    +0.135 C 
ENDBRANCH   2   6
BRANCH   5  16
ATOM     16  O3* UNL     1       7.786  -5.899  23.131  0.00  0.00    -0.389 OA
ATOM     17  H3* UNL     1       8.655  -5.746  22.718  0.00  0.00    +0.210 HD
ENDBRANCH   5  16
BRANCH   4  18
ATOM     18  C5* UNL     1       8.658  -4.254  26.388  0.00  0.00    +0.190 C 
BRANCH  18  19
ATOM     19  O5* UNL     1       8.293  -5.332  27.242  0.00  0.00    -0.392 OA
ATOM     20  H5* UNL     1       8.290  -6.151  26.719  0.00  0.00    +0.210 HD
ENDBRANCH  18  19
ENDBRANCH   4  18
TORSDOF 4
ENDMDL
MODEL 8
REMARK VINA RESULT:      -5.4      2.609      3.341
REMARK  Name = 
REMARK  4 active torsions:
REMARK  status: ('A' for Active; 'I' for Inactive)
REMARK    1  A    between atoms: C3*_2  and  O3*_17
REMARK    2  A    between atoms: C4*_3  and  C5*_15
REMARK    3  A    between atoms: C1*_5  and  N_6
REMARK    4  A    between atoms: C5*_15  and  O5*_16
REMARK                            x       y       z     vdW  Elec       q    Type
REMARK                         _______ _______ _______ _____ _____    ______ ____
ROOT
ATOM      1  C2* UNL     1       9.229  -1.193  21.636  0.00  0.00    +0.086 C 
ATOM      2  C1* UNL     1       7.839  -1.377  22.221  0.00  0.00    +0.212 C 
ATOM      3  O4* UNL     1       7.661  -0.400  23.253  0.00  0.00    -0.350 OA
ATOM      4  C4* UNL     1       8.787   0.509  23.235  0.00  0.00    +0.174 C 
ATOM      5  C3* UNL     1       9.480   0.278  21.898  0.00  0.00    +0.150 C 
ENDROOT
BRANCH   2   6
ATOM      6  N   UNL     1       7.557  -2.691  22.759  0.00  0.00    -0.258 N 
ATOM      7  C   UNL     1       6.457  -3.394  22.319  0.00  0.00    +0.310 C 
ATOM      8  O   UNL     1       5.748  -3.045  21.382  0.00  0.00    -0.252 OA
ATOM      9  N   UNL     1       6.155  -4.509  23.061  0.00  0.00    -0.239 N 
ATOM     10  H   UNL     1       5.318  -5.001  22.779  0.00  0.00    +0.159 HD
ATOM     11  C   UNL     1       6.562  -4.750  24.356  0.00  0.00    +0.235 C 
ATOM     12  O   UNL     1       5.952  -5.568  25.042  0.00  0.00    -0.274 OA
ATOM     13  C   UNL     1       7.684  -3.865  24.879  0.00  0.00    +0.155 C 
ATOM     14  I   UNL     1       8.953  -4.968  26.182  0.00  0.00    -0.070 I 
ATOM     15  C   UNL     1       8.469  -3.346  23.685  0.00  0.00    +0.135 C 
ENDBRANCH   2   6
BRANCH   5  16
ATOM     16  O3* UNL     1       8.868   1.060  20.869  0.00  0.00    -0.389 OA
ATOM     17  H3* UNL     1       7.901   1.051  20.991  0.00  0.00    +0.210 HD
ENDBRANCH   5  16
BRANCH   4  18
ATOM     18  C5* UNL     1       9.717   0.223  24.426  0.00  0.00    +0.190 C 
BRANCH  18  19
ATOM     19  O5* UNL     1       9.358   0.986  25.572  0.00  0.00    -0.392 OA
ATOM     20  H5* UNL     1       9.711   0.542  26.361  0.00  0.00    +0.210 HD
ENDBRANCH  18  19
ENDBRANCH   4  18
TORSDOF 4
ENDMDL
MODEL 9
REMARK VINA RESULT:      -5.4      2.171      5.245
REMARK  Name = 
REMARK  4 active torsions:
REMARK  status: ('A' for Active; 'I' for Inactive)
REMARK    1  A    between atoms: C3*_2  and  O3*_17
REMARK    2  A    between atoms: C4*_3  and  C5*_15
REMARK    3  A    between atoms: C1*_5  and  N_6
REMARK    4  A    between atoms: C5*_15  and  O5*_16
REMARK                            x       y       z     vdW  Elec       q    Type
REMARK                         _______ _______ _______ _____ _____    ______ ____
ROOT
ATOM      1  C2* UNL     1       8.488  -4.441  24.057  0.00  0.00    +0.086 C 
ATOM      2  C1* UNL     1       9.221  -3.186  24.500  0.00  0.00    +0.212 C 
ATOM      3  O4* UNL     1       9.142  -3.110  25.928  0.00  0.00    -0.350 OA
ATOM      4  C4* UNL     1       8.560  -4.335  26.431  0.00  0.00    +0.174 C 
ATOM      5  C3* UNL     1       8.633  -5.328  25.277  0.00  0.00    +0.150 C 
ENDROOT
BRANCH   2   6
ATOM      6  N   UNL     1       8.735  -1.947  23.931  0.00  0.00    -0.258 N 
ATOM      7  C   UNL     1       9.426  -1.344  22.903  0.00  0.00    +0.310 C 
ATOM      8  O   UNL     1      10.376  -1.855  22.321  0.00  0.00    -0.252 OA
ATOM      9  N   UNL     1       9.015  -0.068  22.608  0.00  0.00    -0.239 N 
ATOM     10  H   UNL     1       9.551   0.403  21.892  0.00  0.00    +0.159 HD
ATOM     11  C   UNL     1       8.309   0.767  23.448  0.00  0.00    +0.235 C 
ATOM     12  O   UNL     1       8.315   1.980  23.245  0.00  0.00    -0.274 OA
ATOM     13  C   UNL     1       7.671   0.108  24.662  0.00  0.00    +0.155 C 
ATOM     14  I   UNL     1       5.812   1.036  25.120  0.00  0.00    -0.070 I 
ATOM     15  C   UNL     1       7.467  -1.365  24.345  0.00  0.00    +0.135 C 
ENDBRANCH   2   6
BRANCH   5  16
ATOM     16  O3* UNL     1       9.907  -5.978  25.250  0.00  0.00    -0.389 OA
ATOM     17  H3* UNL     1       9.777  -6.933  25.109  0.00  0.00    +0.210 HD
ENDBRANCH   5  16
BRANCH   4  18
ATOM     18  C5* UNL     1       7.112  -4.083  26.887  0.00  0.00    +0.190 C 
BRANCH  18  19
ATOM     19  O5* UNL     1       6.755  -4.907  27.991  0.00  0.00    -0.392 OA
ATOM     20  H5* UNL     1       6.452  -5.765  27.650  0.00  0.00    +0.210 HD
ENDBRANCH  18  19
ENDBRANCH   4  18
TORSDOF 4
ENDMDL
