MODEL 1
REMARK VINA RESULT:      -7.3      0.000      0.000
REMARK  Name = 
REMARK  16 active torsions:
REMARK  status: ('A' for Active; 'I' for Inactive)
REMARK    1  A    between atoms: C_1  and  C_2
REMARK    2  A    between atoms: C_3  and  C_9
REMARK    3  A    between atoms: C_7  and  O_8
REMARK    4  A    between atoms: N_11  and  C_12
REMARK    5  A    between atoms: C_12  and  C_14
REMARK    6  A    between atoms: C_12  and  C_22
REMARK    7  A    between atoms: C_14  and  S_15
REMARK    8  A    between atoms: S_15  and  C_16
REMARK    9  A    between atoms: C_22  and  C_24
REMARK   10  A    between atoms: C_22  and  O_44
REMARK   11  A    between atoms: C_24  and  N_25
REMARK   12  A    between atoms: C_36  and  C_37
REMARK   13  A    between atoms: N_39  and  C_40
REMARK   14  A    between atoms: C_40  and  C_41
REMARK   15  A    between atoms: C_40  and  C_42
REMARK   16  A    between atoms: C_40  and  C_43
REMARK                            x       y       z     vdW  Elec       q    Type
REMARK                         _______ _______ _______ _____ _____    ______ ____
ROOT
ATOM      1  C   UNL     1       7.014  -1.347  24.482  0.00  0.00    +0.113 C 
ENDROOT
BRANCH   1   3
ATOM      2  C   UNL     1       6.928  -3.802  24.973  0.00  0.00    +0.245 C 
ATOM      3  N   UNL     1       6.274  -2.591  24.813  0.00  0.00    -0.305 N 
ATOM      4  H   UNL     1       5.318  -2.503  25.121  0.00  0.00    +0.149 HD
ATOM      5  O   UNL     1       8.144  -3.877  24.817  0.00  0.00    -0.270 OA
BRANCH   2  12
ATOM      6  C   UNL     1       5.761  -5.570  22.840  0.00  0.00    +0.048 C 
ATOM      7  C   UNL     1       5.506  -5.808  24.307  0.00  0.00    +0.003 A 
ATOM      8  C   UNL     1       4.613  -6.816  24.698  0.00  0.00    +0.120 A 
ATOM      9  C   UNL     1       4.381  -7.118  26.037  0.00  0.00    +0.046 A 
ATOM     10  C   UNL     1       5.026  -6.381  27.027  0.00  0.00    +0.004 A 
ATOM     11  C   UNL     1       5.873  -5.334  26.671  0.00  0.00    +0.013 A 
ATOM     12  C   UNL     1       6.113  -5.020  25.317  0.00  0.00    +0.043 A 
BRANCH   8  13
ATOM     13  O   UNL     1       3.933  -7.515  23.735  0.00  0.00    -0.506 OA
ATOM     14  H   UNL     1       4.106  -8.463  23.862  0.00  0.00    +0.292 HD
ENDBRANCH   8  13
ENDBRANCH   2  12
ENDBRANCH   1   3
BRANCH   1  15
ATOM     15  C   UNL     1       6.363  -0.118  25.204  0.00  0.00    +0.149 C 
BRANCH  15  16
ATOM     16  O   UNL     1       4.943  -0.215  25.364  0.00  0.00    -0.389 OA
ATOM     17  H   UNL     1       4.563   0.679  25.433  0.00  0.00    +0.210 HD
ENDBRANCH  15  16
BRANCH  15  18
ATOM     18  C   UNL     1       6.626   1.230  24.468  0.00  0.00    +0.118 C 
BRANCH  18  19
ATOM     19  N   UNL     1       5.454   2.148  24.412  0.00  0.00    -0.289 NA
ATOM     20  C   UNL     1       5.225   2.622  23.015  0.00  0.00    +0.143 C 
ATOM     21  C   UNL     1       6.136   3.800  22.611  0.00  0.00    +0.032 C 
ATOM     22  C   UNL     1       6.037   4.954  23.626  0.00  0.00    -0.005 C 
ATOM     23  C   UNL     1       6.408   4.460  25.020  0.00  0.00    +0.006 C 
ATOM     24  C   UNL     1       7.924   4.266  25.229  0.00  0.00    +0.005 C 
ATOM     25  C   UNL     1       8.894   4.871  24.200  0.00  0.00    +0.000 C 
ATOM     26  C   UNL     1       8.348   5.810  23.125  0.00  0.00    +0.000 C 
ATOM     27  C   UNL     1       6.887   6.171  23.289  0.00  0.00    +0.004 C 
ATOM     28  C   UNL     1       5.509   3.258  25.375  0.00  0.00    +0.089 C 
BRANCH  20  29
ATOM     29  C   UNL     1       3.748   3.012  22.753  0.00  0.00    +0.231 C 
ATOM     30  N   UNL     1       3.443   3.468  21.485  0.00  0.00    -0.309 N 
ATOM     31  H   UNL     1       4.147   3.261  20.778  0.00  0.00    +0.149 HD
ATOM     32  O   UNL     1       2.914   2.980  23.661  0.00  0.00    -0.274 OA
BRANCH  30  33
ATOM     33  C   UNL     1       2.072   3.840  21.090  0.00  0.00    +0.026 C 
ATOM     34  C   UNL     1       1.095   2.694  21.408  0.00  0.00    +0.031 C 
ATOM     35  C   UNL     1       2.000   4.104  19.573  0.00  0.00    +0.031 C 
ATOM     36  C   UNL     1       1.640   5.147  21.789  0.00  0.00    +0.031 C 
ENDBRANCH  30  33
ENDBRANCH  20  29
ENDBRANCH  18  19
ENDBRANCH  15  18
ENDBRANCH   1  15
BRANCH   1  37
ATOM     37  C   UNL     1       7.058  -1.216  22.936  0.00  0.00    +0.099 C 
BRANCH  37  38
ATOM     38  S   UNL     1       8.699  -1.581  22.205  0.00  0.00    -0.123 S 
BRANCH  38  39
ATOM     39  C   UNL     1       9.603  -0.120  22.666  0.00  0.00    +0.008 A 
ATOM     40  C   UNL     1      10.300  -0.075  23.875  0.00  0.00    +0.015 A 
ATOM     41  C   UNL     1      10.943   1.098  24.272  0.00  0.00    +0.001 A 
ATOM     42  C   UNL     1      10.890   2.233  23.463  0.00  0.00    +0.000 A 
ATOM     43  C   UNL     1      10.193   2.197  22.257  0.00  0.00    +0.001 A 
ATOM     44  C   UNL     1       9.545   1.024  21.860  0.00  0.00    +0.015 A 
ENDBRANCH  38  39
ENDBRANCH  37  38
ENDBRANCH   1  37
TORSDOF 12
ENDMDL
MODEL 2
REMARK VINA RESULT:      -7.3      2.359      3.762
REMARK  Name = 
REMARK  16 active torsions:
REMARK  status: ('A' for Active; 'I' for Inactive)
REMARK    1  A    between atoms: C_1  and  C_2
REMARK    2  A    between atoms: C_3  and  C_9
REMARK    3  A    between atoms: C_7  and  O_8
REMARK    4  A    between atoms: N_11  and  C_12
REMARK    5  A    between atoms: C_12  and  C_14
REMARK    6  A    between atoms: C_12  and  C_22
REMARK    7  A    between atoms: C_14  and  S_15
REMARK    8  A    between atoms: S_15  and  C_16
REMARK    9  A    between atoms: C_22  and  C_24
REMARK   10  A    between atoms: C_22  and  O_44
REMARK   11  A    between atoms: C_24  and  N_25
REMARK   12  A    between atoms: C_36  and  C_37
REMARK   13  A    between atoms: N_39  and  C_40
REMARK   14  A    between atoms: C_40  and  C_41
REMARK   15  A    between atoms: C_40  and  C_42
REMARK   16  A    between atoms: C_40  and  C_43
REMARK                            x       y       z     vdW  Elec       q    Type
REMARK                         _______ _______ _______ _____ _____    ______ ____
ROOT
ATOM      1  C   UNL     1       7.290  -1.615  23.863  0.00  0.00    +0.113 C 
ENDROOT
BRANCH   1   3
ATOM      2  C   UNL     1       7.049  -3.949  24.741  0.00  0.00    +0.245 C 
ATOM      3  N   UNL     1       6.468  -2.781  24.275  0.00  0.00    -0.305 N 
ATOM      4  H   UNL     1       5.479  -2.638  24.405  0.00  0.00    +0.149 HD
ATOM      5  O   UNL     1       8.272  -4.055  24.798  0.00  0.00    -0.270 OA
BRANCH   2  12
ATOM      6  C   UNL     1       5.825  -5.796  22.708  0.00  0.00    +0.048 C 
ATOM      7  C   UNL     1       5.522  -5.909  24.181  0.00  0.00    +0.003 A 
ATOM      8  C   UNL     1       4.558  -6.830  24.619  0.00  0.00    +0.120 A 
ATOM      9  C   UNL     1       4.276  -7.017  25.969  0.00  0.00    +0.046 A 
ATOM     10  C   UNL     1       4.943  -6.250  26.921  0.00  0.00    +0.004 A 
ATOM     11  C   UNL     1       5.861  -5.286  26.514  0.00  0.00    +0.013 A 
ATOM     12  C   UNL     1       6.152  -5.087  25.148  0.00  0.00    +0.043 A 
BRANCH   8  13
ATOM     13  O   UNL     1       3.858  -7.555  23.690  0.00  0.00    -0.506 OA
ATOM     14  H   UNL     1       3.459  -6.938  23.054  0.00  0.00    +0.292 HD
ENDBRANCH   8  13
ENDBRANCH   2  12
ENDBRANCH   1   3
BRANCH   1  15
ATOM     15  C   UNL     1       6.480  -0.287  24.045  0.00  0.00    +0.149 C 
BRANCH  15  16
ATOM     16  O   UNL     1       6.442   0.544  22.879  0.00  0.00    -0.389 OA
ATOM     17  H   UNL     1       6.148   1.438  23.128  0.00  0.00    +0.210 HD
ENDBRANCH  15  16
BRANCH  15  18
ATOM     18  C   UNL     1       7.026   0.607  25.199  0.00  0.00    +0.118 C 
BRANCH  18  19
ATOM     19  N   UNL     1       6.766   2.065  25.034  0.00  0.00    -0.289 NA
ATOM     20  C   UNL     1       7.606   2.858  25.978  0.00  0.00    +0.143 C 
ATOM     21  C   UNL     1       7.016   2.939  27.402  0.00  0.00    +0.032 C 
ATOM     22  C   UNL     1       5.562   3.444  27.374  0.00  0.00    -0.005 C 
ATOM     23  C   UNL     1       4.705   2.530  26.505  0.00  0.00    +0.006 C 
ATOM     24  C   UNL     1       4.339   1.192  27.180  0.00  0.00    +0.005 C 
ATOM     25  C   UNL     1       4.563   1.045  28.695  0.00  0.00    +0.000 C 
ATOM     26  C   UNL     1       4.943   2.277  29.514  0.00  0.00    +0.000 C 
ATOM     27  C   UNL     1       4.910   3.579  28.744  0.00  0.00    +0.004 C 
ATOM     28  C   UNL     1       5.345   2.437  25.104  0.00  0.00    +0.089 C 
BRANCH  20  29
ATOM     29  C   UNL     1       7.887   4.293  25.465  0.00  0.00    +0.231 C 
ATOM     30  N   UNL     1       7.648   4.529  24.124  0.00  0.00    -0.309 N 
ATOM     31  H   UNL     1       7.073   3.825  23.664  0.00  0.00    +0.149 HD
ATOM     32  O   UNL     1       8.366   5.150  26.210  0.00  0.00    -0.274 OA
BRANCH  30  33
ATOM     33  C   UNL     1       7.840   5.856  23.511  0.00  0.00    +0.026 C 
ATOM     34  C   UNL     1       7.009   6.914  24.259  0.00  0.00    +0.031 C 
ATOM     35  C   UNL     1       7.369   5.846  22.044  0.00  0.00    +0.031 C 
ATOM     36  C   UNL     1       9.336   6.237  23.495  0.00  0.00    +0.031 C 
ENDBRANCH  30  33
ENDBRANCH  20  29
ENDBRANCH  18  19
ENDBRANCH  15  18
ENDBRANCH   1  15
BRANCH   1  37
ATOM     37  C   UNL     1       7.772  -1.862  22.408  0.00  0.00    +0.099 C 
BRANCH  37  38
ATOM     38  S   UNL     1       9.596  -1.868  22.220  0.00  0.00    -0.123 S 
BRANCH  38  39
ATOM     39  C   UNL     1       9.984  -0.194  22.679  0.00  0.00    +0.008 A 
ATOM     40  C   UNL     1      10.483   0.090  23.952  0.00  0.00    +0.015 A 
ATOM     41  C   UNL     1      10.713   1.410  24.339  0.00  0.00    +0.001 A 
ATOM     42  C   UNL     1      10.444   2.455  23.455  0.00  0.00    +0.000 A 
ATOM     43  C   UNL     1       9.941   2.179  22.184  0.00  0.00    +0.001 A 
ATOM     44  C   UNL     1       9.706   0.858  21.797  0.00  0.00    +0.015 A 
ENDBRANCH  38  39
ENDBRANCH  37  38
ENDBRANCH   1  37
TORSDOF 12
ENDMDL
MODEL 3
REMARK VINA RESULT:      -7.2      3.944      7.746
REMARK  Name = 
REMARK  16 active torsions:
REMARK  status: ('A' for Active; 'I' for Inactive)
REMARK    1  A    between atoms: C_1  and  C_2
REMARK    2  A    between atoms: C_3  and  C_9
REMARK    3  A    between atoms: C_7  and  O_8
REMARK    4  A    between atoms: N_11  and  C_12
REMARK    5  A    between atoms: C_12  and  C_14
REMARK    6  A    between atoms: C_12  and  C_22
REMARK    7  A    between atoms: C_14  and  S_15
REMARK    8  A    between atoms: S_15  and  C_16
REMARK    9  A    between atoms: C_22  and  C_24
REMARK   10  A    between atoms: C_22  and  O_44
REMARK   11  A    between atoms: C_24  and  N_25
REMARK   12  A    between atoms: C_36  and  C_37
REMARK   13  A    between atoms: N_39  and  C_40
REMARK   14  A    between atoms: C_40  and  C_41
REMARK   15  A    between atoms: C_40  and  C_42
REMARK   16  A    between atoms: C_40  and  C_43
REMARK                            x       y       z     vdW  Elec       q    Type
REMARK                         _______ _______ _______ _____ _____    ______ ____
ROOT
ATOM      1  C   UNL     1       2.922  -2.472  26.432  0.00  0.00    +0.113 C 
ENDROOT
BRANCH   1   3
ATOM      2  C   UNL     1       1.688  -4.196  25.098  0.00  0.00    +0.245 C 
ATOM      3  N   UNL     1       2.818  -3.812  25.802  0.00  0.00    -0.305 N 
ATOM      4  H   UNL     1       3.659  -4.361  25.719  0.00  0.00    +0.149 HD
ATOM      5  O   UNL     1       0.728  -3.435  25.002  0.00  0.00    -0.270 OA
BRANCH   2  12
ATOM      6  C   UNL     1       2.265  -6.666  26.712  0.00  0.00    +0.048 C 
ATOM      7  C   UNL     1       1.999  -6.721  25.229  0.00  0.00    +0.003 A 
ATOM      8  C   UNL     1       2.128  -7.941  24.549  0.00  0.00    +0.120 A 
ATOM      9  C   UNL     1       1.842  -8.063  23.192  0.00  0.00    +0.046 A 
ATOM     10  C   UNL     1       1.446  -6.939  22.472  0.00  0.00    +0.004 A 
ATOM     11  C   UNL     1       1.367  -5.702  23.105  0.00  0.00    +0.013 A 
ATOM     12  C   UNL     1       1.656  -5.568  24.479  0.00  0.00    +0.043 A 
BRANCH   8  13
ATOM     13  O   UNL     1       2.565  -9.044  25.235  0.00  0.00    -0.506 OA
ATOM     14  H   UNL     1       2.723  -8.789  26.160  0.00  0.00    +0.292 HD
ENDBRANCH   8  13
ENDBRANCH   2  12
ENDBRANCH   1   3
BRANCH   1  15
ATOM     15  C   UNL     1       4.312  -1.826  26.108  0.00  0.00    +0.149 C 
BRANCH  15  16
ATOM     16  O   UNL     1       4.339  -0.399  26.219  0.00  0.00    -0.389 OA
ATOM     17  H   UNL     1       3.802  -0.123  26.982  0.00  0.00    +0.210 HD
ENDBRANCH  15  16
BRANCH  15  18
ATOM     18  C   UNL     1       4.819  -2.160  24.673  0.00  0.00    +0.118 C 
BRANCH  18  19
ATOM     19  N   UNL     1       6.300  -2.123  24.510  0.00  0.00    -0.289 NA
ATOM     20  C   UNL     1       6.666  -1.898  23.081  0.00  0.00    +0.143 C 
ATOM     21  C   UNL     1       6.630  -3.185  22.230  0.00  0.00    +0.032 C 
ATOM     22  C   UNL     1       7.483  -4.297  22.867  0.00  0.00    -0.005 C 
ATOM     23  C   UNL     1       6.993  -4.591  24.281  0.00  0.00    +0.006 C 
ATOM     24  C   UNL     1       5.691  -5.417  24.329  0.00  0.00    +0.005 C 
ATOM     25  C   UNL     1       5.215  -6.119  23.046  0.00  0.00    +0.000 C 
ATOM     26  C   UNL     1       6.138  -6.150  21.828  0.00  0.00    +0.000 C 
ATOM     27  C   UNL     1       7.525  -5.597  22.076  0.00  0.00    +0.004 C 
ATOM     28  C   UNL     1       7.001  -3.278  25.090  0.00  0.00    +0.089 C 
BRANCH  20  29
ATOM     29  C   UNL     1       8.052  -1.223  22.920  0.00  0.00    +0.231 C 
ATOM     30  N   UNL     1       8.217   0.008  23.526  0.00  0.00    -0.309 N 
ATOM     31  H   UNL     1       7.513   0.233  24.228  0.00  0.00    +0.149 HD
ATOM     32  O   UNL     1       8.930  -1.738  22.224  0.00  0.00    -0.274 OA
BRANCH  30  33
ATOM     33  C   UNL     1       9.493   0.744  23.481  0.00  0.00    +0.026 C 
ATOM     34  C   UNL     1      10.609  -0.083  24.145  0.00  0.00    +0.031 C 
ATOM     35  C   UNL     1       9.378   2.072  24.254  0.00  0.00    +0.031 C 
ATOM     36  C   UNL     1       9.862   1.106  22.027  0.00  0.00    +0.031 C 
ENDBRANCH  30  33
ENDBRANCH  20  29
ENDBRANCH  18  19
ENDBRANCH  15  18
ENDBRANCH   1  15
BRANCH   1  37
ATOM     37  C   UNL     1       2.645  -2.636  27.951  0.00  0.00    +0.099 C 
BRANCH  37  38
ATOM     38  S   UNL     1       4.150  -2.560  28.994  0.00  0.00    -0.123 S 
BRANCH  38  39
ATOM     39  C   UNL     1       4.659  -4.264  28.971  0.00  0.00    +0.008 A 
ATOM     40  C   UNL     1       5.631  -4.697  28.066  0.00  0.00    +0.015 A 
ATOM     41  C   UNL     1       5.973  -6.048  27.994  0.00  0.00    +0.001 A 
ATOM     42  C   UNL     1       5.343  -6.973  28.825  0.00  0.00    +0.000 A 
ATOM     43  C   UNL     1       4.368  -6.549  29.727  0.00  0.00    +0.001 A 
ATOM     44  C   UNL     1       4.022  -5.198  29.797  0.00  0.00    +0.015 A 
ENDBRANCH  38  39
ENDBRANCH  37  38
ENDBRANCH   1  37
TORSDOF 12
ENDMDL
MODEL 4
REMARK VINA RESULT:      -7.1      2.579      8.589
REMARK  Name = 
REMARK  16 active torsions:
REMARK  status: ('A' for Active; 'I' for Inactive)
REMARK    1  A    between atoms: C_1  and  C_2
REMARK    2  A    between atoms: C_3  and  C_9
REMARK    3  A    between atoms: C_7  and  O_8
REMARK    4  A    between atoms: N_11  and  C_12
REMARK    5  A    between atoms: C_12  and  C_14
REMARK    6  A    between atoms: C_12  and  C_22
REMARK    7  A    between atoms: C_14  and  S_15
REMARK    8  A    between atoms: S_15  and  C_16
REMARK    9  A    between atoms: C_22  and  C_24
REMARK   10  A    between atoms: C_22  and  O_44
REMARK   11  A    between atoms: C_24  and  N_25
REMARK   12  A    between atoms: C_36  and  C_37
REMARK   13  A    between atoms: N_39  and  C_40
REMARK   14  A    between atoms: C_40  and  C_41
REMARK   15  A    between atoms: C_40  and  C_42
REMARK   16  A    between atoms: C_40  and  C_43
REMARK                            x       y       z     vdW  Elec       q    Type
REMARK                         _______ _______ _______ _____ _____    ______ ____
ROOT
ATOM      1  C   UNL     1       8.338   0.286  25.012  0.00  0.00    +0.113 C 
ENDROOT
BRANCH   1   3
ATOM      2  C   UNL     1       6.611   1.487  23.650  0.00  0.00    +0.245 C 
ATOM      3  N   UNL     1       7.345   1.373  24.821  0.00  0.00    -0.305 N 
ATOM      4  H   UNL     1       7.063   1.903  25.631  0.00  0.00    +0.149 HD
ATOM      5  O   UNL     1       6.790   0.697  22.727  0.00  0.00    -0.270 OA
BRANCH   2  12
ATOM      6  C   UNL     1       7.112   3.852  21.863  0.00  0.00    +0.048 C 
ATOM      7  C   UNL     1       5.891   3.755  22.742  0.00  0.00    +0.003 A 
ATOM      8  C   UNL     1       5.007   4.841  22.819  0.00  0.00    +0.120 A 
ATOM      9  C   UNL     1       3.836   4.788  23.569  0.00  0.00    +0.046 A 
ATOM     10  C   UNL     1       3.539   3.637  24.295  0.00  0.00    +0.004 A 
ATOM     11  C   UNL     1       4.426   2.564  24.287  0.00  0.00    +0.013 A 
ATOM     12  C   UNL     1       5.616   2.610  23.531  0.00  0.00    +0.043 A 
BRANCH   8  13
ATOM     13  O   UNL     1       5.312   5.998  22.150  0.00  0.00    -0.506 OA
ATOM     14  H   UNL     1       6.083   6.407  22.579  0.00  0.00    +0.292 HD
ENDBRANCH   8  13
ENDBRANCH   2  12
ENDBRANCH   1   3
BRANCH   1  15
ATOM     15  C   UNL     1       8.006  -0.532  26.307  0.00  0.00    +0.149 C 
BRANCH  15  16
ATOM     16  O   UNL     1       8.722  -0.106  27.472  0.00  0.00    -0.389 OA
ATOM     17  H   UNL     1       9.095   0.780  27.317  0.00  0.00    +0.210 HD
ENDBRANCH  15  16
BRANCH  15  18
ATOM     18  C   UNL     1       8.292  -2.056  26.155  0.00  0.00    +0.118 C 
BRANCH  18  19
ATOM     19  N   UNL     1       7.186  -2.946  26.606  0.00  0.00    -0.289 NA
ATOM     20  C   UNL     1       7.646  -4.364  26.673  0.00  0.00    +0.143 C 
ATOM     21  C   UNL     1       7.629  -5.078  25.305  0.00  0.00    +0.032 C 
ATOM     22  C   UNL     1       6.249  -4.960  24.632  0.00  0.00    -0.005 C 
ATOM     23  C   UNL     1       5.873  -3.492  24.460  0.00  0.00    +0.006 C 
ATOM     24  C   UNL     1       6.614  -2.791  23.304  0.00  0.00    +0.005 C 
ATOM     25  C   UNL     1       7.363  -3.656  22.275  0.00  0.00    +0.000 C 
ATOM     26  C   UNL     1       7.183  -5.173  22.307  0.00  0.00    +0.000 C 
ATOM     27  C   UNL     1       6.137  -5.662  23.286  0.00  0.00    +0.004 C 
ATOM     28  C   UNL     1       5.941  -2.800  25.837  0.00  0.00    +0.089 C 
BRANCH  20  29
ATOM     29  C   UNL     1       6.837  -5.205  27.693  0.00  0.00    +0.231 C 
ATOM     30  N   UNL     1       5.648  -4.661  28.140  0.00  0.00    -0.309 N 
ATOM     31  H   UNL     1       5.291  -3.894  27.572  0.00  0.00    +0.149 HD
ATOM     32  O   UNL     1       7.279  -6.270  28.128  0.00  0.00    -0.274 OA
BRANCH  30  33
ATOM     33  C   UNL     1       4.763  -5.368  29.084  0.00  0.00    +0.026 C 
ATOM     34  C   UNL     1       4.412  -6.765  28.542  0.00  0.00    +0.031 C 
ATOM     35  C   UNL     1       3.443  -4.596  29.269  0.00  0.00    +0.031 C 
ATOM     36  C   UNL     1       5.421  -5.465  30.478  0.00  0.00    +0.031 C 
ENDBRANCH  30  33
ENDBRANCH  20  29
ENDBRANCH  18  19
ENDBRANCH  15  18
ENDBRANCH   1  15
BRANCH   1  37
ATOM     37  C   UNL     1       9.751   0.928  25.021  0.00  0.00    +0.099 C 
BRANCH  37  38
ATOM     38  S   UNL     1      10.349   1.432  23.362  0.00  0.00    -0.123 S 
BRANCH  38  39
ATOM     39  C   UNL     1      10.473   3.194  23.573  0.00  0.00    +0.008 A 
ATOM     40  C   UNL     1      11.633   3.869  23.185  0.00  0.00    +0.015 A 
ATOM     41  C   UNL     1      11.761   5.238  23.422  0.00  0.00    +0.001 A 
ATOM     42  C   UNL     1      10.732   5.938  24.050  0.00  0.00    +0.000 A 
ATOM     43  C   UNL     1       9.574   5.270  24.444  0.00  0.00    +0.001 A 
ATOM     44  C   UNL     1       9.445   3.898  24.211  0.00  0.00    +0.015 A 
ENDBRANCH  38  39
ENDBRANCH  37  38
ENDBRANCH   1  37
TORSDOF 12
ENDMDL
MODEL 5
REMARK VINA RESULT:      -7.1      3.068      6.104
REMARK  Name = 
REMARK  16 active torsions:
REMARK  status: ('A' for Active; 'I' for Inactive)
REMARK    1  A    between atoms: C_1  and  C_2
REMARK    2  A    between atoms: C_3  and  C_9
REMARK    3  A    between atoms: C_7  and  O_8
REMARK    4  A    between atoms: N_11  and  C_12
REMARK    5  A    between atoms: C_12  and  C_14
REMARK    6  A    between atoms: C_12  and  C_22
REMARK    7  A    between atoms: C_14  and  S_15
REMARK    8  A    between atoms: S_15  and  C_16
REMARK    9  A    between atoms: C_22  and  C_24
REMARK   10  A    between atoms: C_22  and  O_44
REMARK   11  A    between atoms: C_24  and  N_25
REMARK   12  A    between atoms: C_36  and  C_37
REMARK   13  A    between atoms: N_39  and  C_40
REMARK   14  A    between atoms: C_40  and  C_41
REMARK   15  A    between atoms: C_40  and  C_42
REMARK   16  A    between atoms: C_40  and  C_43
REMARK                            x       y       z     vdW  Elec       q    Type
REMARK                         _______ _______ _______ _____ _____    ______ ____
ROOT
ATOM      1  C   UNL     1       4.427  -1.251  26.485  0.00  0.00    +0.113 C 
ENDROOT
BRANCH   1   3
ATOM      2  C   UNL     1       4.693  -3.061  24.772  0.00  0.00    +0.245 C 
ATOM      3  N   UNL     1       5.262  -2.133  25.631  0.00  0.00    -0.305 N 
ATOM      4  H   UNL     1       6.240  -1.907  25.533  0.00  0.00    +0.149 HD
ATOM      5  O   UNL     1       3.473  -3.191  24.720  0.00  0.00    -0.270 OA
BRANCH   2  12
ATOM      6  C   UNL     1       7.091  -4.443  25.948  0.00  0.00    +0.048 C 
ATOM      7  C   UNL     1       6.770  -4.506  24.476  0.00  0.00    +0.003 A 
ATOM      8  C   UNL     1       7.667  -5.134  23.600  0.00  0.00    +0.120 A 
ATOM      9  C   UNL     1       7.398  -5.271  22.241  0.00  0.00    +0.046 A 
ATOM     10  C   UNL     1       6.220  -4.742  21.720  0.00  0.00    +0.004 A 
ATOM     11  C   UNL     1       5.337  -4.060  22.553  0.00  0.00    +0.013 A 
ATOM     12  C   UNL     1       5.602  -3.915  23.931  0.00  0.00    +0.043 A 
BRANCH   8  13
ATOM     13  O   UNL     1       8.853  -5.613  24.091  0.00  0.00    -0.506 OA
ATOM     14  H   UNL     1       9.580  -5.216  23.583  0.00  0.00    +0.292 HD
ENDBRANCH   8  13
ENDBRANCH   2  12
ENDBRANCH   1   3
BRANCH   1  15
ATOM     15  C   UNL     1       4.843   0.247  26.289  0.00  0.00    +0.149 C 
BRANCH  15  16
ATOM     16  O   UNL     1       3.741   1.154  26.174  0.00  0.00    -0.389 OA
ATOM     17  H   UNL     1       2.926   0.653  25.995  0.00  0.00    +0.210 HD
ENDBRANCH  15  16
BRANCH  15  18
ATOM     18  C   UNL     1       5.726   0.473  25.025  0.00  0.00    +0.118 C 
BRANCH  18  19
ATOM     19  N   UNL     1       6.837   1.449  25.207  0.00  0.00    -0.289 NA
ATOM     20  C   UNL     1       6.947   2.347  24.020  0.00  0.00    +0.143 C 
ATOM     21  C   UNL     1       7.726   1.717  22.846  0.00  0.00    +0.032 C 
ATOM     22  C   UNL     1       9.105   1.207  23.303  0.00  0.00    -0.005 C 
ATOM     23  C   UNL     1       8.943   0.191  24.428  0.00  0.00    +0.006 C 
ATOM     24  C   UNL     1       8.471  -1.197  23.950  0.00  0.00    +0.005 C 
ATOM     25  C   UNL     1       8.529  -1.519  22.446  0.00  0.00    +0.000 C 
ATOM     26  C   UNL     1       9.235  -0.545  21.504  0.00  0.00    +0.000 C 
ATOM     27  C   UNL     1       9.953   0.593  22.198  0.00  0.00    +0.004 C 
ATOM     28  C   UNL     1       8.125   0.838  25.565  0.00  0.00    +0.089 C 
BRANCH  20  29
ATOM     29  C   UNL     1       7.579   3.719  24.368  0.00  0.00    +0.231 C 
ATOM     30  N   UNL     1       7.510   4.698  23.395  0.00  0.00    -0.309 N 
ATOM     31  H   UNL     1       6.834   4.515  22.655  0.00  0.00    +0.149 HD
ATOM     32  O   UNL     1       8.172   3.891  25.435  0.00  0.00    -0.274 OA
BRANCH  30  33
ATOM     33  C   UNL     1       8.040   6.058  23.606  0.00  0.00    +0.026 C 
ATOM     34  C   UNL     1       7.475   6.655  24.907  0.00  0.00    +0.031 C 
ATOM     35  C   UNL     1       7.621   6.985  22.449  0.00  0.00    +0.031 C 
ATOM     36  C   UNL     1       9.583   6.043  23.627  0.00  0.00    +0.031 C 
ENDBRANCH  30  33
ENDBRANCH  20  29
ENDBRANCH  18  19
ENDBRANCH  15  18
ENDBRANCH   1  15
BRANCH   1  37
ATOM     37  C   UNL     1       4.550  -1.750  27.950  0.00  0.00    +0.099 C 
BRANCH  37  38
ATOM     38  S   UNL     1       3.236  -2.926  28.447  0.00  0.00    -0.123 S 
BRANCH  38  39
ATOM     39  C   UNL     1       4.112  -4.471  28.345  0.00  0.00    +0.008 A 
ATOM     40  C   UNL     1       3.743  -5.429  27.398  0.00  0.00    +0.015 A 
ATOM     41  C   UNL     1       4.378  -6.670  27.370  0.00  0.00    +0.001 A 
ATOM     42  C   UNL     1       5.385  -6.961  28.289  0.00  0.00    +0.000 A 
ATOM     43  C   UNL     1       5.756  -6.011  29.240  0.00  0.00    +0.001 A 
ATOM     44  C   UNL     1       5.118  -4.769  29.272  0.00  0.00    +0.015 A 
ENDBRANCH  38  39
ENDBRANCH  37  38
ENDBRANCH   1  37
TORSDOF 12
ENDMDL
MODEL 6
REMARK VINA RESULT:      -7.1      2.868      4.582
REMARK  Name = 
REMARK  16 active torsions:
REMARK  status: ('A' for Active; 'I' for Inactive)
REMARK    1  A    between atoms: C_1  and  C_2
REMARK    2  A    between atoms: C_3  and  C_9
REMARK    3  A    between atoms: C_7  and  O_8
REMARK    4  A    between atoms: N_11  and  C_12
REMARK    5  A    between atoms: C_12  and  C_14
REMARK    6  A    between atoms: C_12  and  C_22
REMARK    7  A    between atoms: C_14  and  S_15
REMARK    8  A    between atoms: S_15  and  C_16
REMARK    9  A    between atoms: C_22  and  C_24
REMARK   10  A    between atoms: C_22  and  O_44
REMARK   11  A    between atoms: C_24  and  N_25
REMARK   12  A    between atoms: C_36  and  C_37
REMARK   13  A    between atoms: N_39  and  C_40
REMARK   14  A    between atoms: C_40  and  C_41
REMARK   15  A    between atoms: C_40  and  C_42
REMARK   16  A    between atoms: C_40  and  C_43
REMARK                            x       y       z     vdW  Elec       q    Type
REMARK                         _______ _______ _______ _____ _____    ______ ____
ROOT
ATOM      1  C   UNL     1       8.379  -2.205  24.123  0.00  0.00    +0.113 C 
ENDROOT
BRANCH   1   3
ATOM      2  C   UNL     1       7.366  -4.481  24.385  0.00  0.00    +0.245 C 
ATOM      3  N   UNL     1       7.271  -3.106  24.529  0.00  0.00    -0.305 N 
ATOM      4  H   UNL     1       6.535  -2.721  25.100  0.00  0.00    +0.149 HD
ATOM      5  O   UNL     1       8.369  -4.985  23.887  0.00  0.00    -0.270 OA
BRANCH   2  12
ATOM      6  C   UNL     1       7.098  -5.427  27.226  0.00  0.00    +0.048 C 
ATOM      7  C   UNL     1       6.123  -5.834  26.150  0.00  0.00    +0.003 A 
ATOM      8  C   UNL     1       5.119  -6.768  26.444  0.00  0.00    +0.120 A 
ATOM      9  C   UNL     1       4.159  -7.140  25.507  0.00  0.00    +0.046 A 
ATOM     10  C   UNL     1       4.208  -6.598  24.225  0.00  0.00    +0.004 A 
ATOM     11  C   UNL     1       5.228  -5.714  23.884  0.00  0.00    +0.013 A 
ATOM     12  C   UNL     1       6.206  -5.333  24.826  0.00  0.00    +0.043 A 
BRANCH   8  13
ATOM     13  O   UNL     1       5.091  -7.347  27.686  0.00  0.00    -0.506 OA
ATOM     14  H   UNL     1       5.971  -7.715  27.875  0.00  0.00    +0.292 HD
ENDBRANCH   8  13
ENDBRANCH   2  12
ENDBRANCH   1   3
BRANCH   1  15
ATOM     15  C   UNL     1       8.828  -1.316  25.333  0.00  0.00    +0.149 C 
BRANCH  15  16
ATOM     16  O   UNL     1       8.879  -2.008  26.585  0.00  0.00    -0.389 OA
ATOM     17  H   UNL     1       8.624  -2.938  26.452  0.00  0.00    +0.210 HD
ENDBRANCH  15  16
BRANCH  15  18
ATOM     18  C   UNL     1       7.904  -0.081  25.556  0.00  0.00    +0.118 C 
BRANCH  18  19
ATOM     19  N   UNL     1       6.780  -0.307  26.506  0.00  0.00    -0.289 NA
ATOM     20  C   UNL     1       5.471  -0.263  25.791  0.00  0.00    +0.143 C 
ATOM     21  C   UNL     1       4.950   1.171  25.555  0.00  0.00    +0.032 C 
ATOM     22  C   UNL     1       4.906   1.971  26.870  0.00  0.00    -0.005 C 
ATOM     23  C   UNL     1       6.292   2.016  27.504  0.00  0.00    +0.006 C 
ATOM     24  C   UNL     1       7.260   2.999  26.814  0.00  0.00    +0.005 C 
ATOM     25  C   UNL     1       6.685   4.032  25.830  0.00  0.00    +0.000 C 
ATOM     26  C   UNL     1       5.170   4.191  25.719  0.00  0.00    +0.000 C 
ATOM     27  C   UNL     1       4.377   3.392  26.731  0.00  0.00    +0.004 C 
ATOM     28  C   UNL     1       6.800   0.570  27.686  0.00  0.00    +0.089 C 
BRANCH  20  29
ATOM     29  C   UNL     1       4.372  -1.088  26.508  0.00  0.00    +0.231 C 
ATOM     30  N   UNL     1       4.797  -2.179  27.242  0.00  0.00    -0.309 N 
ATOM     31  H   UNL     1       5.793  -2.186  27.456  0.00  0.00    +0.149 HD
ATOM     32  O   UNL     1       3.179  -0.816  26.363  0.00  0.00    -0.274 OA
BRANCH  30  33
ATOM     33  C   UNL     1       3.862  -3.031  28.002  0.00  0.00    +0.026 C 
ATOM     34  C   UNL     1       3.000  -3.867  27.039  0.00  0.00    +0.031 C 
ATOM     35  C   UNL     1       2.909  -2.164  28.846  0.00  0.00    +0.031 C 
ATOM     36  C   UNL     1       4.630  -3.937  28.987  0.00  0.00    +0.031 C 
ENDBRANCH  30  33
ENDBRANCH  20  29
ENDBRANCH  18  19
ENDBRANCH  15  18
ENDBRANCH   1  15
BRANCH   1  37
ATOM     37  C   UNL     1       7.904  -1.392  22.889  0.00  0.00    +0.099 C 
BRANCH  37  38
ATOM     38  S   UNL     1       9.271  -0.735  21.860  0.00  0.00    -0.123 S 
BRANCH  38  39
ATOM     39  C   UNL     1       9.295   0.966  22.381  0.00  0.00    +0.008 A 
ATOM     40  C   UNL     1      10.330   1.439  23.191  0.00  0.00    +0.015 A 
ATOM     41  C   UNL     1      10.307   2.752  23.665  0.00  0.00    +0.001 A 
ATOM     42  C   UNL     1       9.248   3.596  23.333  0.00  0.00    +0.000 A 
ATOM     43  C   UNL     1       8.209   3.129  22.528  0.00  0.00    +0.001 A 
ATOM     44  C   UNL     1       8.229   1.814  22.057  0.00  0.00    +0.015 A 
ENDBRANCH  38  39
ENDBRANCH  37  38
ENDBRANCH   1  37
TORSDOF 12
ENDMDL
MODEL 7
REMARK VINA RESULT:      -7.0      3.354      7.156
REMARK  Name = 
REMARK  16 active torsions:
REMARK  status: ('A' for Active; 'I' for Inactive)
REMARK    1  A    between atoms: C_1  and  C_2
REMARK    2  A    between atoms: C_3  and  C_9
REMARK    3  A    between atoms: C_7  and  O_8
REMARK    4  A    between atoms: N_11  and  C_12
REMARK    5  A    between atoms: C_12  and  C_14
REMARK    6  A    between atoms: C_12  and  C_22
REMARK    7  A    between atoms: C_14  and  S_15
REMARK    8  A    between atoms: S_15  and  C_16
REMARK    9  A    between atoms: C_22  and  C_24
REMARK   10  A    between atoms: C_22  and  O_44
REMARK   11  A    between atoms: C_24  and  N_25
REMARK   12  A    between atoms: C_36  and  C_37
REMARK   13  A    between atoms: N_39  and  C_40
REMARK   14  A    between atoms: C_40  and  C_41
REMARK   15  A    between atoms: C_40  and  C_42
REMARK   16  A    between atoms: C_40  and  C_43
REMARK                            x       y       z     vdW  Elec       q    Type
REMARK                         _______ _______ _______ _____ _____    ______ ____
ROOT
ATOM      1  C   UNL     1       4.589  -0.726  27.050  0.00  0.00    +0.113 C 
ENDROOT
BRANCH   1   3
ATOM      2  C   UNL     1       3.867  -2.854  25.942  0.00  0.00    +0.245 C 
ATOM      3  N   UNL     1       4.818  -2.138  26.651  0.00  0.00    -0.305 N 
ATOM      4  H   UNL     1       5.755  -2.502  26.723  0.00  0.00    +0.149 HD
ATOM      5  O   UNL     1       2.791  -2.338  25.650  0.00  0.00    -0.270 OA
BRANCH   2  12
ATOM      6  C   UNL     1       4.901  -3.573  23.212  0.00  0.00    +0.048 C 
ATOM      7  C   UNL     1       4.591  -4.618  24.253  0.00  0.00    +0.003 A 
ATOM      8  C   UNL     1       4.681  -5.977  23.916  0.00  0.00    +0.120 A 
ATOM      9  C   UNL     1       4.461  -6.985  24.850  0.00  0.00    +0.046 A 
ATOM     10  C   UNL     1       4.109  -6.646  26.154  0.00  0.00    +0.004 A 
ATOM     11  C   UNL     1       3.953  -5.308  26.504  0.00  0.00    +0.013 A 
ATOM     12  C   UNL     1       4.172  -4.279  25.564  0.00  0.00    +0.043 A 
BRANCH   8  13
ATOM     13  O   UNL     1       4.977  -6.325  22.624  0.00  0.00    -0.506 OA
ATOM     14  H   UNL     1       5.209  -7.269  22.605  0.00  0.00    +0.292 HD
ENDBRANCH   8  13
ENDBRANCH   2  12
ENDBRANCH   1   3
BRANCH   1  15
ATOM     15  C   UNL     1       5.806   0.164  26.624  0.00  0.00    +0.149 C 
BRANCH  15  16
ATOM     16  O   UNL     1       5.800   1.479  27.191  0.00  0.00    -0.389 OA
ATOM     17  H   UNL     1       6.005   1.423  28.141  0.00  0.00    +0.210 HD
ENDBRANCH  15  16
BRANCH  15  18
ATOM     18  C   UNL     1       5.910   0.355  25.082  0.00  0.00    +0.118 C 
BRANCH  18  19
ATOM     19  N   UNL     1       6.720  -0.678  24.378  0.00  0.00    -0.289 NA
ATOM     20  C   UNL     1       8.038  -0.862  25.054  0.00  0.00    +0.143 C 
ATOM     21  C   UNL     1       9.085   0.198  24.652  0.00  0.00    +0.032 C 
ATOM     22  C   UNL     1       9.238   0.277  23.122  0.00  0.00    -0.005 C 
ATOM     23  C   UNL     1       7.894   0.599  22.476  0.00  0.00    +0.006 C 
ATOM     24  C   UNL     1       7.474   2.076  22.617  0.00  0.00    +0.005 C 
ATOM     25  C   UNL     1       8.528   3.104  23.065  0.00  0.00    +0.000 C 
ATOM     26  C   UNL     1       9.991   2.676  23.158  0.00  0.00    +0.000 C 
ATOM     27  C   UNL     1      10.274   1.283  22.638  0.00  0.00    +0.004 C 
ATOM     28  C   UNL     1       6.862  -0.453  22.932  0.00  0.00    +0.089 C 
BRANCH  20  29
ATOM     29  C   UNL     1       8.633  -2.274  24.824  0.00  0.00    +0.231 C 
ATOM     30  N   UNL     1       8.008  -3.323  25.471  0.00  0.00    -0.309 N 
ATOM     31  H   UNL     1       7.075  -3.111  25.821  0.00  0.00    +0.149 HD
ATOM     32  O   UNL     1       9.656  -2.429  24.153  0.00  0.00    -0.274 OA
BRANCH  30  33
ATOM     33  C   UNL     1       8.449  -4.722  25.313  0.00  0.00    +0.026 C 
ATOM     34  C   UNL     1       8.193  -5.203  23.874  0.00  0.00    +0.031 C 
ATOM     35  C   UNL     1       7.659  -5.646  26.259  0.00  0.00    +0.031 C 
ATOM     36  C   UNL     1       9.939  -4.868  25.690  0.00  0.00    +0.031 C 
ENDBRANCH  30  33
ENDBRANCH  20  29
ENDBRANCH  18  19
ENDBRANCH  15  18
ENDBRANCH   1  15
BRANCH   1  37
ATOM     37  C   UNL     1       4.298  -0.704  28.575  0.00  0.00    +0.099 C 
BRANCH  37  38
ATOM     38  S   UNL     1       2.555  -1.076  29.005  0.00  0.00    -0.123 S 
BRANCH  38  39
ATOM     39  C   UNL     1       2.658  -2.819  29.339  0.00  0.00    +0.008 A 
ATOM     40  C   UNL     1       1.569  -3.653  29.071  0.00  0.00    +0.015 A 
ATOM     41  C   UNL     1       1.622  -5.007  29.406  0.00  0.00    +0.001 A 
ATOM     42  C   UNL     1       2.762  -5.533  30.012  0.00  0.00    +0.000 A 
ATOM     43  C   UNL     1       3.851  -4.706  30.286  0.00  0.00    +0.001 A 
ATOM     44  C   UNL     1       3.798  -3.350  29.955  0.00  0.00    +0.015 A 
ENDBRANCH  38  39
ENDBRANCH  37  38
ENDBRANCH   1  37
TORSDOF 12
ENDMDL
MODEL 8
REMARK VINA RESULT:      -7.0      1.871      3.640
REMARK  Name = 
REMARK  16 active torsions:
REMARK  status: ('A' for Active; 'I' for Inactive)
REMARK    1  A    between atoms: C_1  and  C_2
REMARK    2  A    between atoms: C_3  and  C_9
REMARK    3  A    between atoms: C_7  and  O_8
REMARK    4  A    between atoms: N_11  and  C_12
REMARK    5  A    between atoms: C_12  and  C_14
REMARK    6  A    between atoms: C_12  and  C_22
REMARK    7  A    between atoms: C_14  and  S_15
REMARK    8  A    between atoms: S_15  and  C_16
REMARK    9  A    between atoms: C_22  and  C_24
REMARK   10  A    between atoms: C_22  and  O_44
REMARK   11  A    between atoms: C_24  and  N_25
REMARK   12  A    between atoms: C_36  and  C_37
REMARK   13  A    between atoms: N_39  and  C_40
REMARK   14  A    between atoms: C_40  and  C_41
REMARK   15  A    between atoms: C_40  and  C_42
REMARK   16  A    between atoms: C_40  and  C_43
REMARK                            x       y       z     vdW  Elec       q    Type
REMARK                         _______ _______ _______ _____ _____    ______ ____
ROOT
ATOM      1  C   UNL     1       8.160  -0.585  23.480  0.00  0.00    +0.113 C 
ENDROOT
BRANCH   1   3
ATOM      2  C   UNL     1       6.550  -2.488  23.227  0.00  0.00    +0.245 C 
ATOM      3  N   UNL     1       7.827  -1.973  23.070  0.00  0.00    -0.305 N 
ATOM      4  H   UNL     1       8.487  -2.465  22.489  0.00  0.00    +0.149 HD
ATOM      5  O   UNL     1       5.665  -1.807  23.740  0.00  0.00    -0.270 OA
BRANCH   2  12
ATOM      6  C   UNL     1       4.101  -3.986  24.121  0.00  0.00    +0.048 C 
ATOM      7  C   UNL     1       5.164  -4.625  23.263  0.00  0.00    +0.003 A 
ATOM      8  C   UNL     1       5.074  -5.990  22.954  0.00  0.00    +0.120 A 
ATOM      9  C   UNL     1       5.995  -6.621  22.122  0.00  0.00    +0.046 A 
ATOM     10  C   UNL     1       7.060  -5.890  21.601  0.00  0.00    +0.004 A 
ATOM     11  C   UNL     1       7.210  -4.548  21.938  0.00  0.00    +0.013 A 
ATOM     12  C   UNL     1       6.283  -3.901  22.781  0.00  0.00    +0.043 A 
BRANCH   8  13
ATOM     13  O   UNL     1       4.060  -6.732  23.501  0.00  0.00    -0.506 OA
ATOM     14  H   UNL     1       4.452  -7.464  24.007  0.00  0.00    +0.292 HD
ENDBRANCH   8  13
ENDBRANCH   2  12
ENDBRANCH   1   3
BRANCH   1  15
ATOM     15  C   UNL     1       8.510   0.283  22.224  0.00  0.00    +0.149 C 
BRANCH  15  16
ATOM     16  O   UNL     1       9.806   0.024  21.672  0.00  0.00    -0.389 OA
ATOM     17  H   UNL     1      10.249   0.868  21.475  0.00  0.00    +0.210 HD
ENDBRANCH  15  16
BRANCH  15  18
ATOM     18  C   UNL     1       8.458   1.814  22.509  0.00  0.00    +0.118 C 
BRANCH  18  19
ATOM     19  N   UNL     1       7.219   2.279  23.193  0.00  0.00    -0.289 NA
ATOM     20  C   UNL     1       6.496   3.276  22.350  0.00  0.00    +0.143 C 
ATOM     21  C   UNL     1       7.067   4.705  22.467  0.00  0.00    +0.032 C 
ATOM     22  C   UNL     1       7.145   5.155  23.937  0.00  0.00    -0.005 C 
ATOM     23  C   UNL     1       8.003   4.182  24.739  0.00  0.00    +0.006 C 
ATOM     24  C   UNL     1       9.518   4.343  24.500  0.00  0.00    +0.005 C 
ATOM     25  C   UNL     1      10.020   5.610  23.785  0.00  0.00    +0.000 C 
ATOM     26  C   UNL     1       9.042   6.752  23.520  0.00  0.00    +0.000 C 
ATOM     27  C   UNL     1       7.674   6.567  24.143  0.00  0.00    +0.004 C 
ATOM     28  C   UNL     1       7.430   2.759  24.566  0.00  0.00    +0.089 C 
BRANCH  20  29
ATOM     29  C   UNL     1       4.975   3.314  22.644  0.00  0.00    +0.231 C 
ATOM     30  N   UNL     1       4.229   4.235  21.933  0.00  0.00    -0.309 N 
ATOM     31  H   UNL     1       4.694   4.614  21.110  0.00  0.00    +0.149 HD
ATOM     32  O   UNL     1       4.482   2.602  23.521  0.00  0.00    -0.274 OA
BRANCH  30  33
ATOM     33  C   UNL     1       2.767   4.354  22.089  0.00  0.00    +0.026 C 
ATOM     34  C   UNL     1       2.078   3.041  21.676  0.00  0.00    +0.031 C 
ATOM     35  C   UNL     1       2.218   5.472  21.182  0.00  0.00    +0.031 C 
ATOM     36  C   UNL     1       2.404   4.738  23.539  0.00  0.00    +0.031 C 
ENDBRANCH  30  33
ENDBRANCH  20  29
ENDBRANCH  18  19
ENDBRANCH  15  18
ENDBRANCH   1  15
BRANCH   1  37
ATOM     37  C   UNL     1       9.302  -0.661  24.530  0.00  0.00    +0.099 C 
BRANCH  37  38
ATOM     38  S   UNL     1       8.716  -0.881  26.252  0.00  0.00    -0.123 S 
BRANCH  38  39
ATOM     39  C   UNL     1       8.204  -2.584  26.215  0.00  0.00    +0.008 A 
ATOM     40  C   UNL     1       6.971  -2.961  26.752  0.00  0.00    +0.015 A 
ATOM     41  C   UNL     1       6.604  -4.306  26.794  0.00  0.00    +0.001 A 
ATOM     42  C   UNL     1       7.469  -5.283  26.302  0.00  0.00    +0.000 A 
ATOM     43  C   UNL     1       8.704  -4.915  25.768  0.00  0.00    +0.001 A 
ATOM     44  C   UNL     1       9.074  -3.568  25.729  0.00  0.00    +0.015 A 
ENDBRANCH  38  39
ENDBRANCH  37  38
ENDBRANCH   1  37
TORSDOF 12
ENDMDL
MODEL 9
REMARK VINA RESULT:      -7.0      1.507      1.972
REMARK  Name = 
REMARK  16 active torsions:
REMARK  status: ('A' for Active; 'I' for Inactive)
REMARK    1  A    between atoms: C_1  and  C_2
REMARK    2  A    between atoms: C_3  and  C_9
REMARK    3  A    between atoms: C_7  and  O_8
REMARK    4  A    between atoms: N_11  and  C_12
REMARK    5  A    between atoms: C_12  and  C_14
REMARK    6  A    between atoms: C_12  and  C_22
REMARK    7  A    between atoms: C_14  and  S_15
REMARK    8  A    between atoms: S_15  and  C_16
REMARK    9  A    between atoms: C_22  and  C_24
REMARK   10  A    between atoms: C_22  and  O_44
REMARK   11  A    between atoms: C_24  and  N_25
REMARK   12  A    between atoms: C_36  and  C_37
REMARK   13  A    between atoms: N_39  and  C_40
REMARK   14  A    between atoms: C_40  and  C_41
REMARK   15  A    between atoms: C_40  and  C_42
REMARK   16  A    between atoms: C_40  and  C_43
REMARK                            x       y       z     vdW  Elec       q    Type
REMARK                         _______ _______ _______ _____ _____    ______ ____
ROOT
ATOM      1  C   UNL     1       6.671  -0.915  26.184  0.00  0.00    +0.113 C 
ENDROOT
BRANCH   1   3
ATOM      2  C   UNL     1       6.332  -3.249  25.337  0.00  0.00    +0.245 C 
ATOM      3  N   UNL     1       6.606  -1.913  25.087  0.00  0.00    -0.305 N 
ATOM      4  H   UNL     1       6.560  -1.571  24.139  0.00  0.00    +0.149 HD
ATOM      5  O   UNL     1       6.162  -3.642  26.488  0.00  0.00    -0.270 OA
BRANCH   2  12
ATOM      6  C   UNL     1       3.713  -4.208  24.215  0.00  0.00    +0.048 C 
ATOM      7  C   UNL     1       5.038  -4.705  23.696  0.00  0.00    +0.003 A 
ATOM      8  C   UNL     1       5.064  -5.727  22.735  0.00  0.00    +0.120 A 
ATOM      9  C   UNL     1       6.254  -6.187  22.180  0.00  0.00    +0.046 A 
ATOM     10  C   UNL     1       7.464  -5.647  22.608  0.00  0.00    +0.004 A 
ATOM     11  C   UNL     1       7.475  -4.674  23.603  0.00  0.00    +0.013 A 
ATOM     12  C   UNL     1       6.274  -4.202  24.173  0.00  0.00    +0.043 A 
BRANCH   8  13
ATOM     13  O   UNL     1       3.884  -6.303  22.342  0.00  0.00    -0.506 OA
ATOM     14  H   UNL     1       3.997  -7.268  22.345  0.00  0.00    +0.292 HD
ENDBRANCH   8  13
ENDBRANCH   2  12
ENDBRANCH   1   3
BRANCH   1  15
ATOM     15  C   UNL     1       5.544   0.159  26.009  0.00  0.00    +0.149 C 
BRANCH  15  16
ATOM     16  O   UNL     1       4.216  -0.377  25.999  0.00  0.00    -0.389 OA
ATOM     17  H   UNL     1       3.770  -0.125  25.171  0.00  0.00    +0.210 HD
ENDBRANCH  15  16
BRANCH  15  18
ATOM     18  C   UNL     1       5.688   0.984  24.695  0.00  0.00    +0.118 C 
BRANCH  18  19
ATOM     19  N   UNL     1       4.710   2.098  24.548  0.00  0.00    -0.289 NA
ATOM     20  C   UNL     1       4.798   2.699  23.185  0.00  0.00    +0.143 C 
ATOM     21  C   UNL     1       5.946   3.720  23.039  0.00  0.00    +0.032 C 
ATOM     22  C   UNL     1       5.871   4.802  24.132  0.00  0.00    -0.005 C 
ATOM     23  C   UNL     1       5.917   4.157  25.513  0.00  0.00    +0.006 C 
ATOM     24  C   UNL     1       7.324   3.683  25.931  0.00  0.00    +0.005 C 
ATOM     25  C   UNL     1       8.538   4.173  25.125  0.00  0.00    +0.000 C 
ATOM     26  C   UNL     1       8.342   5.265  24.074  0.00  0.00    +0.000 C 
ATOM     27  C   UNL     1       6.954   5.869  24.046  0.00  0.00    +0.004 C 
ATOM     28  C   UNL     1       4.786   3.113  25.610  0.00  0.00    +0.089 C 
BRANCH  20  29
ATOM     29  C   UNL     1       3.471   3.362  22.739  0.00  0.00    +0.231 C 
ATOM     30  N   UNL     1       3.577   4.522  21.995  0.00  0.00    -0.309 N 
ATOM     31  H   UNL     1       4.499   4.686  21.592  0.00  0.00    +0.149 HD
ATOM     32  O   UNL     1       2.383   2.907  23.099  0.00  0.00    -0.274 OA
BRANCH  30  33
ATOM     33  C   UNL     1       2.396   5.237  21.477  0.00  0.00    +0.026 C 
ATOM     34  C   UNL     1       1.787   4.472  20.288  0.00  0.00    +0.031 C 
ATOM     35  C   UNL     1       2.792   6.639  20.974  0.00  0.00    +0.031 C 
ATOM     36  C   UNL     1       1.352   5.445  22.595  0.00  0.00    +0.031 C 
ENDBRANCH  30  33
ENDBRANCH  20  29
ENDBRANCH  18  19
ENDBRANCH  15  18
ENDBRANCH   1  15
BRANCH   1  37
ATOM     37  C   UNL     1       8.105  -0.322  26.204  0.00  0.00    +0.099 C 
BRANCH  37  38
ATOM     38  S   UNL     1       9.277  -1.171  25.079  0.00  0.00    -0.123 S 
BRANCH  38  39
ATOM     39  C   UNL     1       9.487   0.067  23.819  0.00  0.00    +0.008 A 
ATOM     40  C   UNL     1      10.408   1.102  23.996  0.00  0.00    +0.015 A 
ATOM     41  C   UNL     1      10.516   2.116  23.043  0.00  0.00    +0.001 A 
ATOM     42  C   UNL     1       9.703   2.102  21.911  0.00  0.00    +0.000 A 
ATOM     43  C   UNL     1       8.778   1.073  21.730  0.00  0.00    +0.001 A 
ATOM     44  C   UNL     1       8.666   0.060  22.685  0.00  0.00    +0.015 A 
ENDBRANCH  38  39
ENDBRANCH  37  38
ENDBRANCH   1  37
TORSDOF 12
ENDMDL
