MODEL 1
REMARK VINA RESULT:      -5.7      0.000      0.000
REMARK  Name = 
REMARK  24 active torsions:
REMARK  status: ('A' for Active; 'I' for Inactive)
REMARK    1  A    between atoms: C_1  and  C_2
REMARK    2  A    between atoms: C_2  and  C_3
REMARK    3  A    between atoms: C_2  and  C_4
REMARK    4  A    between atoms: C_6  and  C_9
REMARK    5  A    between atoms: C_9  and  N_10
REMARK    6  A    between atoms: N_10  and  C_11
REMARK    7  A    between atoms: N_14  and  C_15
REMARK    8  A    between atoms: C_15  and  C_17
REMARK    9  A    between atoms: C_15  and  C_20
REMARK   10  A    between atoms: C_17  and  C_18
REMARK   11  A    between atoms: C_17  and  C_19
REMARK   12  A    between atoms: N_22  and  C_23
REMARK   13  A    between atoms: C_23  and  C_25
REMARK   14  A    between atoms: C_23  and  C_32
REMARK   15  A    between atoms: C_25  and  C_26
REMARK   16  A    between atoms: C_32  and  C_33
REMARK   17  A    between atoms: C_33  and  C_35
REMARK   18  A    between atoms: C_33  and  O_54
REMARK   19  A    between atoms: C_35  and  C_37
REMARK   20  A    between atoms: C_35  and  N_44
REMARK   21  A    between atoms: C_37  and  C_38
REMARK   22  A    between atoms: C_45  and  O_47
REMARK   23  A    between atoms: O_47  and  C_48
REMARK   24  A    between atoms: C_48  and  C_49
REMARK                            x       y       z     vdW  Elec       q    Type
REMARK                         _______ _______ _______ _____ _____    ______ ____
ROOT
ATOM      1  C   UNL     1       6.976   0.808  26.386  0.00  0.00    +0.080 C 
ENDROOT
BRANCH   1   3
ATOM      2  C   UNL     1       4.510   0.616  26.807  0.00  0.00    +0.234 C 
ATOM      3  N   UNL     1       5.790   0.763  27.268  0.00  0.00    -0.311 N 
ATOM      4  H   UNL     1       5.938   0.488  28.229  0.00  0.00    +0.149 HD
ATOM      5  O   UNL     1       4.204   0.647  25.611  0.00  0.00    -0.274 OA
BRANCH   2   6
ATOM      6  C   UNL     1       3.428   0.405  27.884  0.00  0.00    +0.163 C 
BRANCH   6   9
ATOM      7  N   UNL     1       2.031  -3.029  27.382  0.00  0.00    -0.283 N 
ATOM      8  C   UNL     1       2.081  -1.642  27.269  0.00  0.00    +0.303 C 
ATOM      9  N   UNL     1       3.148  -1.037  27.874  0.00  0.00    -0.288 N 
ATOM     10  H   UNL     1       3.881  -1.603  28.281  0.00  0.00    +0.151 HD
ATOM     11  O   UNL     1       1.218  -0.984  26.686  0.00  0.00    -0.253 OA
ATOM     12  C   UNL     1       3.033  -3.840  28.061  0.00  0.00    +0.134 C 
BRANCH   7  13
ATOM     13  C   UNL     1       0.850  -3.750  26.882  0.00  0.00    +0.164 C 
BRANCH  13  17
ATOM     14  C   UNL     1       0.995  -6.531  24.506  0.00  0.00    +0.081 A 
ATOM     15  S   UNL     1       1.688  -5.465  23.341  0.00  0.00    -0.080 S 
ATOM     16  C   UNL     1       1.640  -4.188  24.476  0.00  0.00    +0.071 A 
ATOM     17  C   UNL     1       1.136  -4.629  25.686  0.00  0.00    +0.066 A 
ATOM     18  N   UNL     1       0.775  -5.986  25.691  0.00  0.00    -0.247 NA
BRANCH  14  20
ATOM     19  C   UNL     1       0.804  -8.163  22.586  0.00  0.00    +0.014 C 
ATOM     20  C   UNL     1       0.663  -7.953  24.092  0.00  0.00    +0.038 C 
ATOM     21  C   UNL     1       1.517  -8.966  24.856  0.00  0.00    +0.014 C 
ENDBRANCH  14  20
ENDBRANCH  13  17
ENDBRANCH   7  13
ENDBRANCH   6   9
BRANCH   6  22
ATOM     22  C   UNL     1       3.966   0.916  29.245  0.00  0.00    +0.012 C 
ATOM     23  C   UNL     1       3.744  -0.111  30.366  0.00  0.00    +0.009 C 
ATOM     24  C   UNL     1       3.363   2.264  29.670  0.00  0.00    +0.009 C 
ENDBRANCH   6  22
ENDBRANCH   2   6
ENDBRANCH   1   3
BRANCH   1  25
ATOM     25  C   UNL     1       8.080  -0.131  26.923  0.00  0.00    +0.055 C 
BRANCH  25  26
ATOM     26  C   UNL     1       8.046  -1.555  26.361  0.00  0.00    +0.137 C 
BRANCH  26  27
ATOM     27  O   UNL     1       6.794  -2.146  26.727  0.00  0.00    -0.390 OA
ATOM     28  H   UNL     1       6.247  -1.424  27.089  0.00  0.00    +0.210 HD
ENDBRANCH  26  27
BRANCH  26  29
ATOM     29  C   UNL     1       8.220  -1.611  24.809  0.00  0.00    +0.109 C 
BRANCH  29  30
ATOM     30  N   UNL     1       7.685  -2.871  24.288  0.00  0.00    -0.275 N 
ATOM     31  H   UNL     1       7.919  -3.744  24.742  0.00  0.00    +0.152 HD
ATOM     32  C   UNL     1       6.754  -2.942  23.295  0.00  0.00    +0.401 C 
ATOM     33  O   UNL     1       6.305  -1.981  22.693  0.00  0.00    -0.226 OA
BRANCH  32  34
ATOM     34  O   UNL     1       6.458  -4.235  23.051  0.00  0.00    -0.445 OA
BRANCH  34  35
ATOM     35  C   UNL     1       7.175  -5.187  23.847  0.00  0.00    +0.278 C 
BRANCH  35  36
ATOM     36  C   UNL     1       6.189  -5.791  24.780  0.00  0.00    +0.046 A 
ATOM     37  S   UNL     1       6.375  -5.664  26.483  0.00  0.00    -0.077 S 
ATOM     38  C   UNL     1       4.937  -6.581  26.688  0.00  0.00    +0.156 A 
ATOM     39  N   UNL     1       4.335  -6.961  25.583  0.00  0.00    -0.255 NA
ATOM     40  C   UNL     1       5.048  -6.511  24.493  0.00  0.00    +0.125 A 
ENDBRANCH  35  36
ENDBRANCH  34  35
ENDBRANCH  32  34
ENDBRANCH  29  30
BRANCH  29  41
ATOM     41  C   UNL     1       9.690  -1.374  24.374  0.00  0.00    +0.060 C 
BRANCH  41  42
ATOM     42  C   UNL     1      10.018  -0.075  23.665  0.00  0.00    -0.046 A 
ATOM     43  C   UNL     1      10.641   0.951  24.393  0.00  0.00    +0.004 A 
ATOM     44  C   UNL     1      10.876   2.199  23.815  0.00  0.00    +0.000 A 
ATOM     45  C   UNL     1      10.486   2.442  22.502  0.00  0.00    +0.000 A 
ATOM     46  C   UNL     1       9.859   1.436  21.770  0.00  0.00    +0.000 A 
ATOM     47  C   UNL     1       9.620   0.187  22.350  0.00  0.00    +0.004 A 
ENDBRANCH  41  42
ENDBRANCH  29  41
ENDBRANCH  26  29
ENDBRANCH  25  26
ENDBRANCH   1  25
BRANCH   1  48
ATOM     48  C   UNL     1       7.570   2.235  26.177  0.00  0.00    +0.057 C 
BRANCH  48  49
ATOM     49  C   UNL     1       7.359   2.831  24.800  0.00  0.00    -0.046 A 
ATOM     50  C   UNL     1       7.797   4.129  24.500  0.00  0.00    +0.004 A 
ATOM     51  C   UNL     1       7.656   4.662  23.222  0.00  0.00    +0.000 A 
ATOM     52  C   UNL     1       7.039   3.910  22.228  0.00  0.00    +0.000 A 
ATOM     53  C   UNL     1       6.577   2.627  22.511  0.00  0.00    +0.000 A 
ATOM     54  C   UNL     1       6.734   2.090  23.793  0.00  0.00    +0.004 A 
ENDBRANCH  48  49
ENDBRANCH   1  48
TORSDOF 19
ENDMDL
MODEL 2
REMARK VINA RESULT:      -5.5      2.335      6.052
REMARK  Name = 
REMARK  24 active torsions:
REMARK  status: ('A' for Active; 'I' for Inactive)
REMARK    1  A    between atoms: C_1  and  C_2
REMARK    2  A    between atoms: C_2  and  C_3
REMARK    3  A    between atoms: C_2  and  C_4
REMARK    4  A    between atoms: C_6  and  C_9
REMARK    5  A    between atoms: C_9  and  N_10
REMARK    6  A    between atoms: N_10  and  C_11
REMARK    7  A    between atoms: N_14  and  C_15
REMARK    8  A    between atoms: C_15  and  C_17
REMARK    9  A    between atoms: C_15  and  C_20
REMARK   10  A    between atoms: C_17  and  C_18
REMARK   11  A    between atoms: C_17  and  C_19
REMARK   12  A    between atoms: N_22  and  C_23
REMARK   13  A    between atoms: C_23  and  C_25
REMARK   14  A    between atoms: C_23  and  C_32
REMARK   15  A    between atoms: C_25  and  C_26
REMARK   16  A    between atoms: C_32  and  C_33
REMARK   17  A    between atoms: C_33  and  C_35
REMARK   18  A    between atoms: C_33  and  O_54
REMARK   19  A    between atoms: C_35  and  C_37
REMARK   20  A    between atoms: C_35  and  N_44
REMARK   21  A    between atoms: C_37  and  C_38
REMARK   22  A    between atoms: C_45  and  O_47
REMARK   23  A    between atoms: O_47  and  C_48
REMARK   24  A    between atoms: C_48  and  C_49
REMARK                            x       y       z     vdW  Elec       q    Type
REMARK                         _______ _______ _______ _____ _____    ______ ____
ROOT
ATOM      1  C   UNL     1       8.888   2.075  24.788  0.00  0.00    +0.080 C 
ENDROOT
BRANCH   1   3
ATOM      2  C   UNL     1      10.122   0.005  24.093  0.00  0.00    +0.234 C 
ATOM      3  N   UNL     1       8.953   0.698  24.255  0.00  0.00    -0.311 N 
ATOM      4  H   UNL     1       8.122   0.130  24.337  0.00  0.00    +0.149 HD
ATOM      5  O   UNL     1      11.242   0.505  24.240  0.00  0.00    -0.274 OA
BRANCH   2   6
ATOM      6  C   UNL     1       9.975  -1.478  23.701  0.00  0.00    +0.163 C 
BRANCH   6   9
ATOM      7  N   UNL     1       8.104  -3.655  26.100  0.00  0.00    -0.283 N 
ATOM      8  C   UNL     1       9.068  -3.342  25.145  0.00  0.00    +0.303 C 
ATOM      9  N   UNL     1       9.056  -2.051  24.693  0.00  0.00    -0.288 N 
ATOM     10  H   UNL     1       8.435  -1.376  25.121  0.00  0.00    +0.151 HD
ATOM     11  O   UNL     1       9.872  -4.166  24.707  0.00  0.00    -0.253 OA
ATOM     12  C   UNL     1       7.139  -2.708  26.643  0.00  0.00    +0.134 C 
BRANCH   7  13
ATOM     13  C   UNL     1       7.955  -5.051  26.541  0.00  0.00    +0.164 C 
BRANCH  13  17
ATOM     14  C   UNL     1       4.791  -6.381  25.268  0.00  0.00    +0.081 A 
ATOM     15  S   UNL     1       4.285  -6.662  26.892  0.00  0.00    -0.080 S 
ATOM     16  C   UNL     1       5.757  -6.008  27.466  0.00  0.00    +0.071 A 
ATOM     17  C   UNL     1       6.545  -5.581  26.414  0.00  0.00    +0.066 A 
ATOM     18  N   UNL     1       5.971  -5.795  25.150  0.00  0.00    -0.247 NA
BRANCH  14  20
ATOM     19  C   UNL     1       2.701  -7.650  24.631  0.00  0.00    +0.014 C 
ATOM     20  C   UNL     1       3.898  -6.845  24.132  0.00  0.00    +0.038 C 
ATOM     21  C   UNL     1       3.431  -5.666  23.277  0.00  0.00    +0.014 C 
ENDBRANCH  14  20
ENDBRANCH  13  17
ENDBRANCH   7  13
ENDBRANCH   6   9
BRANCH   6  22
ATOM     22  C   UNL     1       9.440  -1.564  22.247  0.00  0.00    +0.012 C 
ATOM     23  C   UNL     1       9.638  -0.243  21.490  0.00  0.00    +0.009 C 
ATOM     24  C   UNL     1       7.961  -1.974  22.167  0.00  0.00    +0.009 C 
ENDBRANCH   6  22
ENDBRANCH   2   6
ENDBRANCH   1   3
BRANCH   1  25
ATOM     25  C   UNL     1       7.631   2.250  25.672  0.00  0.00    +0.055 C 
BRANCH  25  26
ATOM     26  C   UNL     1       6.316   1.824  25.015  0.00  0.00    +0.137 C 
BRANCH  26  27
ATOM     27  O   UNL     1       6.188   0.405  25.159  0.00  0.00    -0.390 OA
ATOM     28  H   UNL     1       5.384   0.152  24.666  0.00  0.00    +0.210 HD
ENDBRANCH  26  27
BRANCH  26  29
ATOM     29  C   UNL     1       5.062   2.529  25.625  0.00  0.00    +0.109 C 
BRANCH  29  30
ATOM     30  N   UNL     1       4.112   1.530  26.117  0.00  0.00    -0.275 N 
ATOM     31  H   UNL     1       3.752   0.824  25.488  0.00  0.00    +0.152 HD
ATOM     32  C   UNL     1       3.776   1.391  27.430  0.00  0.00    +0.401 C 
ATOM     33  O   UNL     1       4.179   2.108  28.330  0.00  0.00    -0.226 OA
BRANCH  32  34
ATOM     34  O   UNL     1       2.893   0.380  27.562  0.00  0.00    -0.445 OA
BRANCH  34  35
ATOM     35  C   UNL     1       3.443  -0.852  28.044  0.00  0.00    +0.278 C 
BRANCH  35  36
ATOM     36  C   UNL     1       2.667  -1.946  27.404  0.00  0.00    +0.046 A 
ATOM     37  S   UNL     1       3.326  -2.875  26.119  0.00  0.00    -0.077 S 
ATOM     38  C   UNL     1       1.859  -3.763  26.035  0.00  0.00    +0.156 A 
ATOM     39  N   UNL     1       0.929  -3.420  26.898  0.00  0.00    -0.255 NA
ATOM     40  C   UNL     1       1.389  -2.383  27.680  0.00  0.00    +0.125 A 
ENDBRANCH  35  36
ENDBRANCH  34  35
ENDBRANCH  32  34
ENDBRANCH  29  30
BRANCH  29  41
ATOM     41  C   UNL     1       4.405   3.522  24.630  0.00  0.00    +0.060 C 
BRANCH  41  42
ATOM     42  C   UNL     1       5.205   4.740  24.213  0.00  0.00    -0.046 A 
ATOM     43  C   UNL     1       5.636   4.840  22.879  0.00  0.00    +0.004 A 
ATOM     44  C   UNL     1       6.456   5.891  22.468  0.00  0.00    +0.000 A 
ATOM     45  C   UNL     1       6.864   6.855  23.384  0.00  0.00    +0.000 A 
ATOM     46  C   UNL     1       6.452   6.765  24.713  0.00  0.00    +0.000 A 
ATOM     47  C   UNL     1       5.633   5.709  25.126  0.00  0.00    +0.004 A 
ENDBRANCH  41  42
ENDBRANCH  29  41
ENDBRANCH  26  29
ENDBRANCH  25  26
ENDBRANCH   1  25
BRANCH   1  48
ATOM     48  C   UNL     1       8.910   3.190  23.698  0.00  0.00    +0.057 C 
BRANCH  48  49
ATOM     49  C   UNL     1      10.064   4.167  23.791  0.00  0.00    -0.046 A 
ATOM     50  C   UNL     1      11.329   3.843  23.277  0.00  0.00    +0.004 A 
ATOM     51  C   UNL     1      12.377   4.759  23.309  0.00  0.00    +0.000 A 
ATOM     52  C   UNL     1      12.185   6.006  23.893  0.00  0.00    +0.000 A 
ATOM     53  C   UNL     1      10.943   6.338  24.430  0.00  0.00    +0.000 A 
ATOM     54  C   UNL     1       9.887   5.422  24.381  0.00  0.00    +0.004 A 
ENDBRANCH  48  49
ENDBRANCH   1  48
TORSDOF 19
ENDMDL
MODEL 3
REMARK VINA RESULT:      -5.5      2.815      6.547
REMARK  Name = 
REMARK  24 active torsions:
REMARK  status: ('A' for Active; 'I' for Inactive)
REMARK    1  A    between atoms: C_1  and  C_2
REMARK    2  A    between atoms: C_2  and  C_3
REMARK    3  A    between atoms: C_2  and  C_4
REMARK    4  A    between atoms: C_6  and  C_9
REMARK    5  A    between atoms: C_9  and  N_10
REMARK    6  A    between atoms: N_10  and  C_11
REMARK    7  A    between atoms: N_14  and  C_15
REMARK    8  A    between atoms: C_15  and  C_17
REMARK    9  A    between atoms: C_15  and  C_20
REMARK   10  A    between atoms: C_17  and  C_18
REMARK   11  A    between atoms: C_17  and  C_19
REMARK   12  A    between atoms: N_22  and  C_23
REMARK   13  A    between atoms: C_23  and  C_25
REMARK   14  A    between atoms: C_23  and  C_32
REMARK   15  A    between atoms: C_25  and  C_26
REMARK   16  A    between atoms: C_32  and  C_33
REMARK   17  A    between atoms: C_33  and  C_35
REMARK   18  A    between atoms: C_33  and  O_54
REMARK   19  A    between atoms: C_35  and  C_37
REMARK   20  A    between atoms: C_35  and  N_44
REMARK   21  A    between atoms: C_37  and  C_38
REMARK   22  A    between atoms: C_45  and  O_47
REMARK   23  A    between atoms: O_47  and  C_48
REMARK   24  A    between atoms: C_48  and  C_49
REMARK                            x       y       z     vdW  Elec       q    Type
REMARK                         _______ _______ _______ _____ _____    ______ ____
ROOT
ATOM      1  C   UNL     1       9.308  -2.267  24.255  0.00  0.00    +0.080 C 
ENDROOT
BRANCH   1   3
ATOM      2  C   UNL     1       8.194  -4.489  23.921  0.00  0.00    +0.234 C 
ATOM      3  N   UNL     1       8.270  -3.145  23.675  0.00  0.00    -0.311 N 
ATOM      4  H   UNL     1       7.408  -2.710  23.380  0.00  0.00    +0.149 HD
ATOM      5  O   UNL     1       9.058  -5.125  24.532  0.00  0.00    -0.274 OA
BRANCH   2   6
ATOM      6  C   UNL     1       6.939  -5.201  23.378  0.00  0.00    +0.163 C 
BRANCH   6   9
ATOM      7  N   UNL     1       4.434  -4.797  26.127  0.00  0.00    -0.283 N 
ATOM      8  C   UNL     1       5.503  -5.376  25.450  0.00  0.00    +0.303 C 
ATOM      9  N   UNL     1       5.844  -4.784  24.265  0.00  0.00    -0.288 N 
ATOM     10  H   UNL     1       5.388  -3.926  23.983  0.00  0.00    +0.151 HD
ATOM     11  O   UNL     1       6.101  -6.371  25.863  0.00  0.00    -0.253 OA
ATOM     12  C   UNL     1       3.706  -3.621  25.670  0.00  0.00    +0.134 C 
BRANCH   7  13
ATOM     13  C   UNL     1       3.911  -5.448  27.339  0.00  0.00    +0.164 C 
BRANCH  13  17
ATOM     14  C   UNL     1       1.356  -7.691  25.982  0.00  0.00    +0.081 A 
ATOM     15  S   UNL     1       0.443  -7.485  27.431  0.00  0.00    -0.080 S 
ATOM     16  C   UNL     1       1.633  -6.415  28.031  0.00  0.00    +0.071 A 
ATOM     17  C   UNL     1       2.644  -6.239  27.105  0.00  0.00    +0.066 A 
ATOM     18  N   UNL     1       2.466  -6.975  25.922  0.00  0.00    -0.247 NA
BRANCH  14  20
ATOM     19  C   UNL     1       1.418  -8.369  23.549  0.00  0.00    +0.014 C 
ATOM     20  C   UNL     1       0.859  -8.673  24.937  0.00  0.00    +0.038 C 
ATOM     21  C   UNL     1       1.174 -10.115  25.336  0.00  0.00    +0.014 C 
ENDBRANCH  14  20
ENDBRANCH  13  17
ENDBRANCH   7  13
ENDBRANCH   6   9
BRANCH   6  22
ATOM     22  C   UNL     1       6.723  -4.784  21.900  0.00  0.00    +0.012 C 
ATOM     23  C   UNL     1       5.689  -3.656  21.772  0.00  0.00    +0.009 C 
ATOM     24  C   UNL     1       6.308  -5.953  20.993  0.00  0.00    +0.009 C 
ENDBRANCH   6  22
ENDBRANCH   2   6
ENDBRANCH   1   3
BRANCH   1  25
ATOM     25  C   UNL     1       8.653  -1.123  25.065  0.00  0.00    +0.055 C 
BRANCH  25  26
ATOM     26  C   UNL     1       7.220  -0.780  24.652  0.00  0.00    +0.137 C 
BRANCH  26  27
ATOM     27  O   UNL     1       6.349  -1.775  25.204  0.00  0.00    -0.390 OA
ATOM     28  H   UNL     1       6.037  -2.312  24.452  0.00  0.00    +0.210 HD
ENDBRANCH  26  27
BRANCH  26  29
ATOM     29  C   UNL     1       6.762   0.638  25.123  0.00  0.00    +0.109 C 
BRANCH  29  30
ATOM     30  N   UNL     1       6.250   1.405  23.987  0.00  0.00    -0.275 N 
ATOM     31  H   UNL     1       6.704   1.335  23.085  0.00  0.00    +0.152 HD
ATOM     32  C   UNL     1       5.090   2.119  24.020  0.00  0.00    +0.401 C 
ATOM     33  O   UNL     1       4.379   2.246  25.003  0.00  0.00    -0.226 OA
BRANCH  32  34
ATOM     34  O   UNL     1       4.888   2.701  22.820  0.00  0.00    -0.445 OA
BRANCH  34  35
ATOM     35  C   UNL     1       6.048   3.298  22.228  0.00  0.00    +0.278 C 
BRANCH  35  36
ATOM     36  C   UNL     1       6.027   4.736  22.603  0.00  0.00    +0.046 A 
ATOM     37  S   UNL     1       7.387   5.749  22.336  0.00  0.00    -0.077 S 
ATOM     38  C   UNL     1       6.522   7.060  23.031  0.00  0.00    +0.156 A 
ATOM     39  N   UNL     1       5.299   6.793  23.434  0.00  0.00    -0.255 NA
ATOM     40  C   UNL     1       5.015   5.467  23.190  0.00  0.00    +0.125 A 
ENDBRANCH  35  36
ENDBRANCH  34  35
ENDBRANCH  32  34
ENDBRANCH  29  30
BRANCH  29  41
ATOM     41  C   UNL     1       7.884   1.393  25.883  0.00  0.00    +0.060 C 
BRANCH  41  42
ATOM     42  C   UNL     1       7.587   2.798  26.371  0.00  0.00    -0.046 A 
ATOM     43  C   UNL     1       6.764   2.960  27.498  0.00  0.00    +0.004 A 
ATOM     44  C   UNL     1       6.382   4.231  27.929  0.00  0.00    +0.000 A 
ATOM     45  C   UNL     1       6.811   5.358  27.236  0.00  0.00    +0.000 A 
ATOM     46  C   UNL     1       7.621   5.212  26.112  0.00  0.00    +0.000 A 
ATOM     47  C   UNL     1       8.001   3.939  25.677  0.00  0.00    +0.004 A 
ENDBRANCH  41  42
ENDBRANCH  29  41
ENDBRANCH  26  29
ENDBRANCH  25  26
ENDBRANCH   1  25
BRANCH   1  48
ATOM     48  C   UNL     1      10.295  -1.659  23.212  0.00  0.00    +0.057 C 
BRANCH  48  49
ATOM     49  C   UNL     1      10.206  -0.158  23.030  0.00  0.00    -0.046 A 
ATOM     50  C   UNL     1       9.442   0.401  21.995  0.00  0.00    +0.004 A 
ATOM     51  C   UNL     1       9.312   1.780  21.857  0.00  0.00    +0.000 A 
ATOM     52  C   UNL     1       9.978   2.626  22.737  0.00  0.00    +0.000 A 
ATOM     53  C   UNL     1      10.760   2.092  23.758  0.00  0.00    +0.000 A 
ATOM     54  C   UNL     1      10.876   0.705  23.904  0.00  0.00    +0.004 A 
ENDBRANCH  48  49
ENDBRANCH   1  48
TORSDOF 19
ENDMDL
MODEL 4
REMARK VINA RESULT:      -5.4      2.868      6.150
REMARK  Name = 
REMARK  24 active torsions:
REMARK  status: ('A' for Active; 'I' for Inactive)
REMARK    1  A    between atoms: C_1  and  C_2
REMARK    2  A    between atoms: C_2  and  C_3
REMARK    3  A    between atoms: C_2  and  C_4
REMARK    4  A    between atoms: C_6  and  C_9
REMARK    5  A    between atoms: C_9  and  N_10
REMARK    6  A    between atoms: N_10  and  C_11
REMARK    7  A    between atoms: N_14  and  C_15
REMARK    8  A    between atoms: C_15  and  C_17
REMARK    9  A    between atoms: C_15  and  C_20
REMARK   10  A    between atoms: C_17  and  C_18
REMARK   11  A    between atoms: C_17  and  C_19
REMARK   12  A    between atoms: N_22  and  C_23
REMARK   13  A    between atoms: C_23  and  C_25
REMARK   14  A    between atoms: C_23  and  C_32
REMARK   15  A    between atoms: C_25  and  C_26
REMARK   16  A    between atoms: C_32  and  C_33
REMARK   17  A    between atoms: C_33  and  C_35
REMARK   18  A    between atoms: C_33  and  O_54
REMARK   19  A    between atoms: C_35  and  C_37
REMARK   20  A    between atoms: C_35  and  N_44
REMARK   21  A    between atoms: C_37  and  C_38
REMARK   22  A    between atoms: C_45  and  O_47
REMARK   23  A    between atoms: O_47  and  C_48
REMARK   24  A    between atoms: C_48  and  C_49
REMARK                            x       y       z     vdW  Elec       q    Type
REMARK                         _______ _______ _______ _____ _____    ______ ____
ROOT
ATOM      1  C   UNL     1       7.141   0.061  26.935  0.00  0.00    +0.080 C 
ENDROOT
BRANCH   1   3
ATOM      2  C   UNL     1       4.652   0.332  27.102  0.00  0.00    +0.234 C 
ATOM      3  N   UNL     1       5.862   0.049  27.677  0.00  0.00    -0.311 N 
ATOM      4  H   UNL     1       5.821  -0.505  28.520  0.00  0.00    +0.149 HD
ATOM      5  O   UNL     1       4.523   0.759  25.951  0.00  0.00    -0.274 OA
BRANCH   2   6
ATOM      6  C   UNL     1       3.415   0.088  27.988  0.00  0.00    +0.163 C 
BRANCH   6   9
ATOM      7  N   UNL     1       2.794  -3.564  27.467  0.00  0.00    -0.283 N 
ATOM      8  C   UNL     1       2.790  -2.210  27.145  0.00  0.00    +0.303 C 
ATOM      9  N   UNL     1       3.299  -1.372  28.098  0.00  0.00    -0.288 N 
ATOM     10  H   UNL     1       3.730  -1.760  28.928  0.00  0.00    +0.151 HD
ATOM     11  O   UNL     1       2.341  -1.774  26.084  0.00  0.00    -0.253 OA
ATOM     12  C   UNL     1       3.319  -4.116  28.709  0.00  0.00    +0.134 C 
BRANCH   7  13
ATOM     13  C   UNL     1       2.142  -4.523  26.562  0.00  0.00    +0.164 C 
BRANCH  13  17
ATOM     14  C   UNL     1       4.631  -5.102  23.942  0.00  0.00    +0.081 A 
ATOM     15  S   UNL     1       4.642  -6.775  24.358  0.00  0.00    -0.080 S 
ATOM     16  C   UNL     1       3.456  -6.487  25.555  0.00  0.00    +0.071 A 
ATOM     17  C   UNL     1       3.085  -5.156  25.565  0.00  0.00    +0.066 A 
ATOM     18  N   UNL     1       3.766  -4.369  24.621  0.00  0.00    -0.247 NA
BRANCH  14  20
ATOM     19  C   UNL     1       5.657  -3.077  22.830  0.00  0.00    +0.014 C 
ATOM     20  C   UNL     1       5.607  -4.602  22.892  0.00  0.00    +0.038 C 
ATOM     21  C   UNL     1       7.007  -5.175  23.119  0.00  0.00    +0.014 C 
ENDBRANCH  14  20
ENDBRANCH  13  17
ENDBRANCH   7  13
ENDBRANCH   6   9
BRANCH   6  22
ATOM     22  C   UNL     1       3.627   0.791  29.354  0.00  0.00    +0.012 C 
ATOM     23  C   UNL     1       2.698   0.222  30.437  0.00  0.00    +0.009 C 
ATOM     24  C   UNL     1       3.449   2.316  29.287  0.00  0.00    +0.009 C 
ENDBRANCH   6  22
ENDBRANCH   2   6
ENDBRANCH   1   3
BRANCH   1  25
ATOM     25  C   UNL     1       7.455   1.487  26.428  0.00  0.00    +0.055 C 
BRANCH  25  26
ATOM     26  C   UNL     1       7.882   1.570  24.960  0.00  0.00    +0.137 C 
BRANCH  26  27
ATOM     27  O   UNL     1       6.743   1.968  24.188  0.00  0.00    -0.390 OA
ATOM     28  H   UNL     1       7.088   2.493  23.442  0.00  0.00    +0.210 HD
ENDBRANCH  26  27
BRANCH  26  29
ATOM     29  C   UNL     1       9.058   2.570  24.713  0.00  0.00    +0.109 C 
BRANCH  29  30
ATOM     30  N   UNL     1       8.608   3.676  23.867  0.00  0.00    -0.275 N 
ATOM     31  H   UNL     1       8.351   3.503  22.904  0.00  0.00    +0.152 HD
ATOM     32  C   UNL     1       8.370   4.935  24.333  0.00  0.00    +0.401 C 
ATOM     33  O   UNL     1       8.554   5.296  25.483  0.00  0.00    -0.226 OA
BRANCH  32  34
ATOM     34  O   UNL     1       7.958   5.719  23.316  0.00  0.00    -0.445 OA
BRANCH  34  35
ATOM     35  C   UNL     1       7.039   5.104  22.405  0.00  0.00    +0.278 C 
BRANCH  35  36
ATOM     36  C   UNL     1       5.678   5.532  22.818  0.00  0.00    +0.046 A 
ATOM     37  S   UNL     1       4.368   4.422  22.869  0.00  0.00    -0.077 S 
ATOM     38  C   UNL     1       3.334   5.696  23.375  0.00  0.00    +0.156 A 
ATOM     39  N   UNL     1       3.899   6.875  23.514  0.00  0.00    -0.255 NA
ATOM     40  C   UNL     1       5.236   6.783  23.196  0.00  0.00    +0.125 A 
ENDBRANCH  35  36
ENDBRANCH  34  35
ENDBRANCH  32  34
ENDBRANCH  29  30
BRANCH  29  41
ATOM     41  C   UNL     1      10.315   1.866  24.139  0.00  0.00    +0.060 C 
BRANCH  41  42
ATOM     42  C   UNL     1      10.107   0.641  23.270  0.00  0.00    -0.046 A 
ATOM     43  C   UNL     1       9.538   0.807  21.996  0.00  0.00    +0.004 A 
ATOM     44  C   UNL     1       9.235  -0.296  21.197  0.00  0.00    +0.000 A 
ATOM     45  C   UNL     1       9.491  -1.582  21.661  0.00  0.00    +0.000 A 
ATOM     46  C   UNL     1      10.048  -1.763  22.926  0.00  0.00    +0.000 A 
ATOM     47  C   UNL     1      10.347  -0.658  23.729  0.00  0.00    +0.004 A 
ENDBRANCH  41  42
ENDBRANCH  29  41
ENDBRANCH  26  29
ENDBRANCH  25  26
ENDBRANCH   1  25
BRANCH   1  48
ATOM     48  C   UNL     1       7.199  -0.936  25.737  0.00  0.00    +0.057 C 
BRANCH  48  49
ATOM     49  C   UNL     1       7.398  -2.391  26.111  0.00  0.00    -0.046 A 
ATOM     50  C   UNL     1       8.638  -3.021  25.929  0.00  0.00    +0.004 A 
ATOM     51  C   UNL     1       8.843  -4.340  26.323  0.00  0.00    +0.000 A 
ATOM     52  C   UNL     1       7.792  -5.064  26.875  0.00  0.00    +0.000 A 
ATOM     53  C   UNL     1       6.546  -4.465  27.043  0.00  0.00    +0.000 A 
ATOM     54  C   UNL     1       6.349  -3.133  26.662  0.00  0.00    +0.004 A 
ENDBRANCH  48  49
ENDBRANCH   1  48
TORSDOF 19
ENDMDL
MODEL 5
REMARK VINA RESULT:      -5.4      3.490      6.468
REMARK  Name = 
REMARK  24 active torsions:
REMARK  status: ('A' for Active; 'I' for Inactive)
REMARK    1  A    between atoms: C_1  and  C_2
REMARK    2  A    between atoms: C_2  and  C_3
REMARK    3  A    between atoms: C_2  and  C_4
REMARK    4  A    between atoms: C_6  and  C_9
REMARK    5  A    between atoms: C_9  and  N_10
REMARK    6  A    between atoms: N_10  and  C_11
REMARK    7  A    between atoms: N_14  and  C_15
REMARK    8  A    between atoms: C_15  and  C_17
REMARK    9  A    between atoms: C_15  and  C_20
REMARK   10  A    between atoms: C_17  and  C_18
REMARK   11  A    between atoms: C_17  and  C_19
REMARK   12  A    between atoms: N_22  and  C_23
REMARK   13  A    between atoms: C_23  and  C_25
REMARK   14  A    between atoms: C_23  and  C_32
REMARK   15  A    between atoms: C_25  and  C_26
REMARK   16  A    between atoms: C_32  and  C_33
REMARK   17  A    between atoms: C_33  and  C_35
REMARK   18  A    between atoms: C_33  and  O_54
REMARK   19  A    between atoms: C_35  and  C_37
REMARK   20  A    between atoms: C_35  and  N_44
REMARK   21  A    between atoms: C_37  and  C_38
REMARK   22  A    between atoms: C_45  and  O_47
REMARK   23  A    between atoms: O_47  and  C_48
REMARK   24  A    between atoms: C_48  and  C_49
REMARK                            x       y       z     vdW  Elec       q    Type
REMARK                         _______ _______ _______ _____ _____    ______ ____
ROOT
ATOM      1  C   UNL     1       5.913   1.041  25.654  0.00  0.00    +0.080 C 
ENDROOT
BRANCH   1   3
ATOM      2  C   UNL     1       3.798   0.619  26.935  0.00  0.00    +0.234 C 
ATOM      3  N   UNL     1       5.162   0.568  26.836  0.00  0.00    -0.311 N 
ATOM      4  H   UNL     1       5.613  -0.115  27.428  0.00  0.00    +0.149 HD
ATOM      5  O   UNL     1       3.072   1.191  26.116  0.00  0.00    -0.274 OA
BRANCH   2   6
ATOM      6  C   UNL     1       3.186  -0.089  28.160  0.00  0.00    +0.163 C 
BRANCH   6   9
ATOM      7  N   UNL     1       4.013  -3.679  27.514  0.00  0.00    -0.283 N 
ATOM      8  C   UNL     1       3.314  -2.484  27.369  0.00  0.00    +0.303 C 
ATOM      9  N   UNL     1       3.749  -1.445  28.144  0.00  0.00    -0.288 N 
ATOM     10  H   UNL     1       4.588  -1.552  28.700  0.00  0.00    +0.151 HD
ATOM     11  O   UNL     1       2.349  -2.358  26.613  0.00  0.00    -0.253 OA
ATOM     12  C   UNL     1       5.158  -3.865  28.395  0.00  0.00    +0.134 C 
BRANCH   7  13
ATOM     13  C   UNL     1       3.529  -4.885  26.824  0.00  0.00    +0.164 C 
BRANCH  13  17
ATOM     14  C   UNL     1       5.693  -5.048  23.876  0.00  0.00    +0.081 A 
ATOM     15  S   UNL     1       4.377  -5.711  22.979  0.00  0.00    -0.080 S 
ATOM     16  C   UNL     1       3.376  -5.597  24.360  0.00  0.00    +0.071 A 
ATOM     17  C   UNL     1       4.066  -5.038  25.419  0.00  0.00    +0.066 A 
ATOM     18  N   UNL     1       5.401  -4.718  25.122  0.00  0.00    -0.247 NA
BRANCH  14  20
ATOM     19  C   UNL     1       8.198  -5.068  24.205  0.00  0.00    +0.014 C 
ATOM     20  C   UNL     1       7.050  -4.932  23.207  0.00  0.00    +0.038 C 
ATOM     21  C   UNL     1       7.200  -5.951  22.077  0.00  0.00    +0.014 C 
ENDBRANCH  14  20
ENDBRANCH  13  17
ENDBRANCH   7  13
ENDBRANCH   6   9
BRANCH   6  22
ATOM     22  C   UNL     1       3.551   0.711  29.438  0.00  0.00    +0.012 C 
ATOM     23  C   UNL     1       3.418   2.226  29.218  0.00  0.00    +0.009 C 
ATOM     24  C   UNL     1       4.959   0.401  29.969  0.00  0.00    +0.009 C 
ENDBRANCH   6  22
ENDBRANCH   2   6
ENDBRANCH   1   3
BRANCH   1  25
ATOM     25  C   UNL     1       5.370   2.411  25.186  0.00  0.00    +0.055 C 
BRANCH  25  26
ATOM     26  C   UNL     1       4.944   2.468  23.716  0.00  0.00    +0.137 C 
BRANCH  26  27
ATOM     27  O   UNL     1       3.518   2.588  23.673  0.00  0.00    -0.390 OA
ATOM     28  H   UNL     1       3.322   3.542  23.733  0.00  0.00    +0.210 HD
ENDBRANCH  26  27
BRANCH  26  29
ATOM     29  C   UNL     1       5.595   3.649  22.928  0.00  0.00    +0.109 C 
BRANCH  29  30
ATOM     30  N   UNL     1       4.556   4.479  22.316  0.00  0.00    -0.275 N 
ATOM     31  H   UNL     1       3.909   4.071  21.655  0.00  0.00    +0.152 HD
ATOM     32  C   UNL     1       4.300   5.765  22.689  0.00  0.00    +0.401 C 
ATOM     33  O   UNL     1       4.934   6.385  23.526  0.00  0.00    -0.226 OA
BRANCH  32  34
ATOM     34  O   UNL     1       3.282   6.252  21.950  0.00  0.00    -0.445 OA
BRANCH  34  35
ATOM     35  C   UNL     1       2.213   5.330  21.703  0.00  0.00    +0.278 C 
BRANCH  35  36
ATOM     36  C   UNL     1       2.001   5.306  20.233  0.00  0.00    +0.046 A 
ATOM     37  S   UNL     1       1.789   3.828  19.384  0.00  0.00    -0.077 S 
ATOM     38  C   UNL     1       1.656   4.713  17.918  0.00  0.00    +0.156 A 
ATOM     39  N   UNL     1       1.750   6.020  18.024  0.00  0.00    -0.255 NA
ATOM     40  C   UNL     1       1.947   6.360  19.345  0.00  0.00    +0.125 A 
ENDBRANCH  35  36
ENDBRANCH  34  35
ENDBRANCH  32  34
ENDBRANCH  29  30
BRANCH  29  41
ATOM     41  C   UNL     1       6.639   3.158  21.891  0.00  0.00    +0.060 C 
BRANCH  41  42
ATOM     42  C   UNL     1       7.991   2.706  22.407  0.00  0.00    -0.046 A 
ATOM     43  C   UNL     1       8.459   3.231  23.623  0.00  0.00    +0.004 A 
ATOM     44  C   UNL     1       9.736   2.923  24.092  0.00  0.00    +0.000 A 
ATOM     45  C   UNL     1      10.569   2.091  23.350  0.00  0.00    +0.000 A 
ATOM     46  C   UNL     1      10.121   1.570  22.137  0.00  0.00    +0.000 A 
ATOM     47  C   UNL     1       8.843   1.882  21.664  0.00  0.00    +0.004 A 
ENDBRANCH  41  42
ENDBRANCH  29  41
ENDBRANCH  26  29
ENDBRANCH  25  26
ENDBRANCH   1  25
BRANCH   1  48
ATOM     48  C   UNL     1       5.913   0.049  24.451  0.00  0.00    +0.057 C 
BRANCH  48  49
ATOM     49  C   UNL     1       7.259  -0.558  24.110  0.00  0.00    -0.046 A 
ATOM     50  C   UNL     1       8.325  -0.512  25.020  0.00  0.00    +0.004 A 
ATOM     51  C   UNL     1       9.546  -1.116  24.734  0.00  0.00    +0.000 A 
ATOM     52  C   UNL     1       9.730  -1.750  23.510  0.00  0.00    +0.000 A 
ATOM     53  C   UNL     1       8.692  -1.788  22.582  0.00  0.00    +0.000 A 
ATOM     54  C   UNL     1       7.461  -1.193  22.880  0.00  0.00    +0.004 A 
ENDBRANCH  48  49
ENDBRANCH   1  48
TORSDOF 19
ENDMDL
MODEL 6
REMARK VINA RESULT:      -5.3      1.627      2.303
REMARK  Name = 
REMARK  24 active torsions:
REMARK  status: ('A' for Active; 'I' for Inactive)
REMARK    1  A    between atoms: C_1  and  C_2
REMARK    2  A    between atoms: C_2  and  C_3
REMARK    3  A    between atoms: C_2  and  C_4
REMARK    4  A    between atoms: C_6  and  C_9
REMARK    5  A    between atoms: C_9  and  N_10
REMARK    6  A    between atoms: N_10  and  C_11
REMARK    7  A    between atoms: N_14  and  C_15
REMARK    8  A    between atoms: C_15  and  C_17
REMARK    9  A    between atoms: C_15  and  C_20
REMARK   10  A    between atoms: C_17  and  C_18
REMARK   11  A    between atoms: C_17  and  C_19
REMARK   12  A    between atoms: N_22  and  C_23
REMARK   13  A    between atoms: C_23  and  C_25
REMARK   14  A    between atoms: C_23  and  C_32
REMARK   15  A    between atoms: C_25  and  C_26
REMARK   16  A    between atoms: C_32  and  C_33
REMARK   17  A    between atoms: C_33  and  C_35
REMARK   18  A    between atoms: C_33  and  O_54
REMARK   19  A    between atoms: C_35  and  C_37
REMARK   20  A    between atoms: C_35  and  N_44
REMARK   21  A    between atoms: C_37  and  C_38
REMARK   22  A    between atoms: C_45  and  O_47
REMARK   23  A    between atoms: O_47  and  C_48
REMARK   24  A    between atoms: C_48  and  C_49
REMARK                            x       y       z     vdW  Elec       q    Type
REMARK                         _______ _______ _______ _____ _____    ______ ____
ROOT
ATOM      1  C   UNL     1       6.570   1.189  26.466  0.00  0.00    +0.080 C 
ENDROOT
BRANCH   1   3
ATOM      2  C   UNL     1       4.066   1.333  26.505  0.00  0.00    +0.234 C 
ATOM      3  N   UNL     1       5.263   1.202  27.156  0.00  0.00    -0.311 N 
ATOM      4  H   UNL     1       5.215   0.764  28.065  0.00  0.00    +0.149 HD
ATOM      5  O   UNL     1       3.964   1.593  25.302  0.00  0.00    -0.274 OA
BRANCH   2   6
ATOM      6  C   UNL     1       2.806   1.137  27.371  0.00  0.00    +0.163 C 
BRANCH   6   9
ATOM      7  N   UNL     1       2.530  -2.395  28.572  0.00  0.00    -0.283 N 
ATOM      8  C   UNL     1       2.157  -1.253  27.868  0.00  0.00    +0.303 C 
ATOM      9  N   UNL     1       2.979  -0.170  28.017  0.00  0.00    -0.288 N 
ATOM     10  H   UNL     1       3.844  -0.265  28.534  0.00  0.00    +0.151 HD
ATOM     11  O   UNL     1       1.143  -1.195  27.171  0.00  0.00    -0.253 OA
ATOM     12  C   UNL     1       3.721  -2.501  29.404  0.00  0.00    +0.134 C 
BRANCH   7  13
ATOM     13  C   UNL     1       1.633  -3.561  28.581  0.00  0.00    +0.164 C 
BRANCH  13  17
ATOM     14  C   UNL     1       1.832  -5.523  25.497  0.00  0.00    +0.081 A 
ATOM     15  S   UNL     1       3.151  -6.404  26.174  0.00  0.00    -0.080 S 
ATOM     16  C   UNL     1       3.019  -5.497  27.617  0.00  0.00    +0.071 A 
ATOM     17  C   UNL     1       1.973  -4.598  27.535  0.00  0.00    +0.066 A 
ATOM     18  N   UNL     1       1.290  -4.630  26.308  0.00  0.00    -0.247 NA
BRANCH  14  20
ATOM     19  C   UNL     1       0.445  -4.757  23.529  0.00  0.00    +0.014 C 
ATOM     20  C   UNL     1       1.428  -5.797  24.060  0.00  0.00    +0.038 C 
ATOM     21  C   UNL     1       2.652  -5.891  23.148  0.00  0.00    +0.014 C 
ENDBRANCH  14  20
ENDBRANCH  13  17
ENDBRANCH   7  13
ENDBRANCH   6   9
BRANCH   6  22
ATOM     22  C   UNL     1       2.701   2.311  28.380  0.00  0.00    +0.012 C 
ATOM     23  C   UNL     1       2.490   1.809  29.816  0.00  0.00    +0.009 C 
ATOM     24  C   UNL     1       1.594   3.317  28.030  0.00  0.00    +0.009 C 
ENDBRANCH   6  22
ENDBRANCH   2   6
ENDBRANCH   1   3
BRANCH   1  25
ATOM     25  C   UNL     1       7.560   0.261  27.206  0.00  0.00    +0.055 C 
BRANCH  25  26
ATOM     26  C   UNL     1       7.541  -1.199  26.746  0.00  0.00    +0.137 C 
BRANCH  26  27
ATOM     27  O   UNL     1       6.197  -1.681  26.854  0.00  0.00    -0.390 OA
ATOM     28  H   UNL     1       5.752  -1.106  27.505  0.00  0.00    +0.210 HD
ENDBRANCH  26  27
BRANCH  26  29
ATOM     29  C   UNL     1       8.053  -1.394  25.283  0.00  0.00    +0.109 C 
BRANCH  29  30
ATOM     30  N   UNL     1       7.826  -2.774  24.849  0.00  0.00    -0.275 N 
ATOM     31  H   UNL     1       7.402  -2.957  23.950  0.00  0.00    +0.152 HD
ATOM     32  C   UNL     1       8.286  -3.863  25.528  0.00  0.00    +0.401 C 
ATOM     33  O   UNL     1       8.884  -3.819  26.590  0.00  0.00    -0.226 OA
BRANCH  32  34
ATOM     34  O   UNL     1       7.926  -4.985  24.871  0.00  0.00    -0.445 OA
BRANCH  34  35
ATOM     35  C   UNL     1       6.518  -5.142  24.656  0.00  0.00    +0.278 C 
BRANCH  35  36
ATOM     36  C   UNL     1       6.304  -5.103  23.186  0.00  0.00    +0.046 A 
ATOM     37  S   UNL     1       6.713  -6.439  22.188  0.00  0.00    -0.077 S 
ATOM     38  C   UNL     1       6.189  -5.549  20.816  0.00  0.00    +0.156 A 
ATOM     39  N   UNL     1       5.728  -4.341  21.056  0.00  0.00    -0.255 NA
ATOM     40  C   UNL     1       5.793  -4.086  22.408  0.00  0.00    +0.125 A 
ENDBRANCH  35  36
ENDBRANCH  34  35
ENDBRANCH  32  34
ENDBRANCH  29  30
BRANCH  29  41
ATOM     41  C   UNL     1       9.535  -0.964  25.118  0.00  0.00    +0.060 C 
BRANCH  41  42
ATOM     42  C   UNL     1       9.858   0.073  24.060  0.00  0.00    -0.046 A 
ATOM     43  C   UNL     1      10.442   1.286  24.462  0.00  0.00    +0.004 A 
ATOM     44  C   UNL     1      10.669   2.310  23.542  0.00  0.00    +0.000 A 
ATOM     45  C   UNL     1      10.310   2.141  22.209  0.00  0.00    +0.000 A 
ATOM     46  C   UNL     1       9.722   0.946  21.798  0.00  0.00    +0.000 A 
ATOM     47  C   UNL     1       9.490  -0.079  22.719  0.00  0.00    +0.004 A 
ENDBRANCH  41  42
ENDBRANCH  29  41
ENDBRANCH  26  29
ENDBRANCH  25  26
ENDBRANCH   1  25
BRANCH   1  48
ATOM     48  C   UNL     1       7.218   2.597  26.288  0.00  0.00    +0.057 C 
BRANCH  48  49
ATOM     49  C   UNL     1       7.265   3.116  24.866  0.00  0.00    -0.046 A 
ATOM     50  C   UNL     1       6.719   2.375  23.807  0.00  0.00    +0.004 A 
ATOM     51  C   UNL     1       6.710   2.873  22.507  0.00  0.00    +0.000 A 
ATOM     52  C   UNL     1       7.283   4.111  22.240  0.00  0.00    +0.000 A 
ATOM     53  C   UNL     1       7.851   4.853  23.273  0.00  0.00    +0.000 A 
ATOM     54  C   UNL     1       7.844   4.357  24.581  0.00  0.00    +0.004 A 
ENDBRANCH  48  49
ENDBRANCH   1  48
TORSDOF 19
ENDMDL
MODEL 7
REMARK VINA RESULT:      -5.3      2.347      7.116
REMARK  Name = 
REMARK  24 active torsions:
REMARK  status: ('A' for Active; 'I' for Inactive)
REMARK    1  A    between atoms: C_1  and  C_2
REMARK    2  A    between atoms: C_2  and  C_3
REMARK    3  A    between atoms: C_2  and  C_4
REMARK    4  A    between atoms: C_6  and  C_9
REMARK    5  A    between atoms: C_9  and  N_10
REMARK    6  A    between atoms: N_10  and  C_11
REMARK    7  A    between atoms: N_14  and  C_15
REMARK    8  A    between atoms: C_15  and  C_17
REMARK    9  A    between atoms: C_15  and  C_20
REMARK   10  A    between atoms: C_17  and  C_18
REMARK   11  A    between atoms: C_17  and  C_19
REMARK   12  A    between atoms: N_22  and  C_23
REMARK   13  A    between atoms: C_23  and  C_25
REMARK   14  A    between atoms: C_23  and  C_32
REMARK   15  A    between atoms: C_25  and  C_26
REMARK   16  A    between atoms: C_32  and  C_33
REMARK   17  A    between atoms: C_33  and  C_35
REMARK   18  A    between atoms: C_33  and  O_54
REMARK   19  A    between atoms: C_35  and  C_37
REMARK   20  A    between atoms: C_35  and  N_44
REMARK   21  A    between atoms: C_37  and  C_38
REMARK   22  A    between atoms: C_45  and  O_47
REMARK   23  A    between atoms: O_47  and  C_48
REMARK   24  A    between atoms: C_48  and  C_49
REMARK                            x       y       z     vdW  Elec       q    Type
REMARK                         _______ _______ _______ _____ _____    ______ ____
ROOT
ATOM      1  C   UNL     1       5.871   1.091  26.015  0.00  0.00    +0.080 C 
ENDROOT
BRANCH   1   3
ATOM      2  C   UNL     1       7.577   2.917  25.795  0.00  0.00    +0.234 C 
ATOM      3  N   UNL     1       6.862   1.883  25.255  0.00  0.00    -0.311 N 
ATOM      4  H   UNL     1       7.277   1.449  24.443  0.00  0.00    +0.149 HD
ATOM      5  O   UNL     1       7.367   3.383  26.920  0.00  0.00    -0.274 OA
BRANCH   2   6
ATOM      6  C   UNL     1       8.693   3.499  24.906  0.00  0.00    +0.163 C 
BRANCH   6   9
ATOM      7  N   UNL     1       9.397   0.675  22.556  0.00  0.00    -0.283 N 
ATOM      8  C   UNL     1       9.446   1.380  23.755  0.00  0.00    +0.303 C 
ATOM      9  N   UNL     1       8.794   2.583  23.763  0.00  0.00    -0.288 N 
ATOM     10  H   UNL     1       8.243   2.859  22.960  0.00  0.00    +0.151 HD
ATOM     11  O   UNL     1      10.052   0.975  24.748  0.00  0.00    -0.253 OA
ATOM     12  C   UNL     1       8.689   1.121  21.363  0.00  0.00    +0.134 C 
BRANCH   7  13
ATOM     13  C   UNL     1      10.183  -0.560  22.414  0.00  0.00    +0.164 C 
BRANCH  13  17
ATOM     14  C   UNL     1       7.930  -3.403  22.907  0.00  0.00    +0.081 A 
ATOM     15  S   UNL     1       8.966  -3.972  24.163  0.00  0.00    -0.080 S 
ATOM     16  C   UNL     1       9.988  -2.621  23.937  0.00  0.00    +0.071 A 
ATOM     17  C   UNL     1       9.488  -1.790  22.952  0.00  0.00    +0.066 A 
ATOM     18  N   UNL     1       8.294  -2.249  22.372  0.00  0.00    -0.247 NA
BRANCH  14  20
ATOM     19  C   UNL     1       5.837  -3.534  21.498  0.00  0.00    +0.014 C 
ATOM     20  C   UNL     1       6.743  -4.253  22.495  0.00  0.00    +0.038 C 
ATOM     21  C   UNL     1       7.195  -5.601  21.932  0.00  0.00    +0.014 C 
ENDBRANCH  14  20
ENDBRANCH  13  17
ENDBRANCH   7  13
ENDBRANCH   6   9
BRANCH   6  22
ATOM     22  C   UNL     1       8.309   4.946  24.499  0.00  0.00    +0.012 C 
ATOM     23  C   UNL     1       7.921   5.036  23.015  0.00  0.00    +0.009 C 
ATOM     24  C   UNL     1       9.412   5.974  24.794  0.00  0.00    +0.009 C 
ENDBRANCH   6  22
ENDBRANCH   2   6
ENDBRANCH   1   3
BRANCH   1  25
ATOM     25  C   UNL     1       5.681  -0.299  25.365  0.00  0.00    +0.055 C 
BRANCH  25  26
ATOM     26  C   UNL     1       6.763  -1.326  25.710  0.00  0.00    +0.137 C 
BRANCH  26  27
ATOM     27  O   UNL     1       7.893  -0.619  26.234  0.00  0.00    -0.390 OA
ATOM     28  H   UNL     1       7.536   0.059  26.838  0.00  0.00    +0.210 HD
ENDBRANCH  26  27
BRANCH  26  29
ATOM     29  C   UNL     1       6.290  -2.399  26.742  0.00  0.00    +0.109 C 
BRANCH  29  30
ATOM     30  N   UNL     1       6.018  -3.667  26.062  0.00  0.00    -0.275 N 
ATOM     31  H   UNL     1       5.621  -3.665  25.132  0.00  0.00    +0.152 HD
ATOM     32  C   UNL     1       6.404  -4.881  26.547  0.00  0.00    +0.401 C 
ATOM     33  O   UNL     1       6.964  -5.056  27.616  0.00  0.00    -0.226 OA
BRANCH  32  34
ATOM     34  O   UNL     1       6.020  -5.848  25.689  0.00  0.00    -0.445 OA
BRANCH  34  35
ATOM     35  C   UNL     1       4.827  -6.552  26.056  0.00  0.00    +0.278 C 
BRANCH  35  36
ATOM     36  C   UNL     1       3.893  -6.437  24.906  0.00  0.00    +0.046 A 
ATOM     37  S   UNL     1       2.698  -7.634  24.602  0.00  0.00    -0.077 S 
ATOM     38  C   UNL     1       2.191  -6.747  23.222  0.00  0.00    +0.156 A 
ATOM     39  N   UNL     1       2.841  -5.629  22.985  0.00  0.00    -0.255 NA
ATOM     40  C   UNL     1       3.812  -5.451  23.945  0.00  0.00    +0.125 A 
ENDBRANCH  35  36
ENDBRANCH  34  35
ENDBRANCH  32  34
ENDBRANCH  29  30
BRANCH  29  41
ATOM     41  C   UNL     1       5.078  -1.913  27.581  0.00  0.00    +0.060 C 
BRANCH  41  42
ATOM     42  C   UNL     1       3.800  -2.726  27.516  0.00  0.00    -0.046 A 
ATOM     43  C   UNL     1       3.000  -2.633  26.366  0.00  0.00    +0.004 A 
ATOM     44  C   UNL     1       1.768  -3.284  26.296  0.00  0.00    +0.000 A 
ATOM     45  C   UNL     1       1.313  -4.031  27.378  0.00  0.00    +0.000 A 
ATOM     46  C   UNL     1       2.093  -4.125  28.530  0.00  0.00    +0.000 A 
ATOM     47  C   UNL     1       3.326  -3.470  28.601  0.00  0.00    +0.004 A 
ENDBRANCH  41  42
ENDBRANCH  29  41
ENDBRANCH  26  29
ENDBRANCH  25  26
ENDBRANCH   1  25
BRANCH   1  48
ATOM     48  C   UNL     1       4.481   1.780  26.173  0.00  0.00    +0.057 C 
BRANCH  48  49
ATOM     49  C   UNL     1       3.639   1.287  27.331  0.00  0.00    -0.046 A 
ATOM     50  C   UNL     1       2.326   0.835  27.129  0.00  0.00    +0.004 A 
ATOM     51  C   UNL     1       1.567   0.328  28.181  0.00  0.00    +0.000 A 
ATOM     52  C   UNL     1       2.101   0.299  29.464  0.00  0.00    +0.000 A 
ATOM     53  C   UNL     1       3.395   0.764  29.690  0.00  0.00    +0.000 A 
ATOM     54  C   UNL     1       4.161   1.258  28.628  0.00  0.00    +0.004 A 
ENDBRANCH  48  49
ENDBRANCH   1  48
TORSDOF 19
ENDMDL
MODEL 8
REMARK VINA RESULT:      -5.3      3.047      8.342
REMARK  Name = 
REMARK  24 active torsions:
REMARK  status: ('A' for Active; 'I' for Inactive)
REMARK    1  A    between atoms: C_1  and  C_2
REMARK    2  A    between atoms: C_2  and  C_3
REMARK    3  A    between atoms: C_2  and  C_4
REMARK    4  A    between atoms: C_6  and  C_9
REMARK    5  A    between atoms: C_9  and  N_10
REMARK    6  A    between atoms: N_10  and  C_11
REMARK    7  A    between atoms: N_14  and  C_15
REMARK    8  A    between atoms: C_15  and  C_17
REMARK    9  A    between atoms: C_15  and  C_20
REMARK   10  A    between atoms: C_17  and  C_18
REMARK   11  A    between atoms: C_17  and  C_19
REMARK   12  A    between atoms: N_22  and  C_23
REMARK   13  A    between atoms: C_23  and  C_25
REMARK   14  A    between atoms: C_23  and  C_32
REMARK   15  A    between atoms: C_25  and  C_26
REMARK   16  A    between atoms: C_32  and  C_33
REMARK   17  A    between atoms: C_33  and  C_35
REMARK   18  A    between atoms: C_33  and  O_54
REMARK   19  A    between atoms: C_35  and  C_37
REMARK   20  A    between atoms: C_35  and  N_44
REMARK   21  A    between atoms: C_37  and  C_38
REMARK   22  A    between atoms: C_45  and  O_47
REMARK   23  A    between atoms: O_47  and  C_48
REMARK   24  A    between atoms: C_48  and  C_49
REMARK                            x       y       z     vdW  Elec       q    Type
REMARK                         _______ _______ _______ _____ _____    ______ ____
ROOT
ATOM      1  C   UNL     1       4.022  -2.326  26.480  0.00  0.00    +0.080 C 
ENDROOT
BRANCH   1   3
ATOM      2  C   UNL     1       4.331  -0.309  27.939  0.00  0.00    +0.234 C 
ATOM      3  N   UNL     1       3.827  -0.899  26.811  0.00  0.00    -0.311 N 
ATOM      4  H   UNL     1       3.626  -0.270  26.047  0.00  0.00    +0.149 HD
ATOM      5  O   UNL     1       4.873  -0.934  28.856  0.00  0.00    -0.274 OA
BRANCH   2   6
ATOM      6  C   UNL     1       4.183   1.223  28.019  0.00  0.00    +0.163 C 
BRANCH   6   9
ATOM      7  N   UNL     1       5.454   2.118  24.616  0.00  0.00    -0.283 N 
ATOM      8  C   UNL     1       5.518   1.603  25.908  0.00  0.00    +0.303 C 
ATOM      9  N   UNL     1       4.369   1.702  26.643  0.00  0.00    -0.288 N 
ATOM     10  H   UNL     1       3.523   2.044  26.206  0.00  0.00    +0.151 HD
ATOM     11  O   UNL     1       6.540   1.108  26.384  0.00  0.00    -0.253 OA
ATOM     12  C   UNL     1       4.263   2.709  24.020  0.00  0.00    +0.134 C 
BRANCH   7  13
ATOM     13  C   UNL     1       6.679   2.179  23.803  0.00  0.00    +0.164 C 
BRANCH  13  17
ATOM     14  C   UNL     1       8.442   5.386  23.739  0.00  0.00    +0.081 A 
ATOM     15  S   UNL     1       7.574   5.805  22.309  0.00  0.00    -0.080 S 
ATOM     16  C   UNL     1       6.740   4.315  22.376  0.00  0.00    +0.071 A 
ATOM     17  C   UNL     1       7.128   3.587  23.485  0.00  0.00    +0.066 A 
ATOM     18  N   UNL     1       8.106   4.221  24.268  0.00  0.00    -0.247 NA
BRANCH  14  20
ATOM     19  C   UNL     1       9.440   6.532  25.759  0.00  0.00    +0.014 C 
ATOM     20  C   UNL     1       9.517   6.330  24.247  0.00  0.00    +0.038 C 
ATOM     21  C   UNL     1      10.912   5.851  23.842  0.00  0.00    +0.014 C 
ENDBRANCH  14  20
ENDBRANCH  13  17
ENDBRANCH   7  13
ENDBRANCH   6   9
BRANCH   6  22
ATOM     22  C   UNL     1       2.788   1.564  28.604  0.00  0.00    +0.012 C 
ATOM     23  C   UNL     1       2.310   2.955  28.160  0.00  0.00    +0.009 C 
ATOM     24  C   UNL     1       2.734   1.479  30.137  0.00  0.00    +0.009 C 
ENDBRANCH   6  22
ENDBRANCH   2   6
ENDBRANCH   1   3
BRANCH   1  25
ATOM     25  C   UNL     1       5.339  -2.520  25.693  0.00  0.00    +0.055 C 
BRANCH  25  26
ATOM     26  C   UNL     1       6.531  -2.981  26.534  0.00  0.00    +0.137 C 
BRANCH  26  27
ATOM     27  O   UNL     1       6.022  -3.623  27.709  0.00  0.00    -0.390 OA
ATOM     28  H   UNL     1       5.541  -2.937  28.209  0.00  0.00    +0.210 HD
ENDBRANCH  26  27
BRANCH  26  29
ATOM     29  C   UNL     1       7.485  -3.958  25.774  0.00  0.00    +0.109 C 
BRANCH  29  30
ATOM     30  N   UNL     1       8.334  -3.210  24.844  0.00  0.00    -0.275 N 
ATOM     31  H   UNL     1       8.048  -2.294  24.525  0.00  0.00    +0.152 HD
ATOM     32  C   UNL     1       9.584  -3.610  24.475  0.00  0.00    +0.401 C 
ATOM     33  O   UNL     1      10.113  -4.650  24.828  0.00  0.00    -0.226 OA
BRANCH  32  34
ATOM     34  O   UNL     1      10.109  -2.706  23.623  0.00  0.00    -0.445 OA
BRANCH  34  35
ATOM     35  C   UNL     1       9.164  -2.050  22.769  0.00  0.00    +0.278 C 
BRANCH  35  36
ATOM     36  C   UNL     1       9.564  -0.620  22.708  0.00  0.00    +0.046 A 
ATOM     37  S   UNL     1      10.265   0.170  24.062  0.00  0.00    -0.077 S 
ATOM     38  C   UNL     1      10.350   1.620  23.146  0.00  0.00    +0.156 A 
ATOM     39  N   UNL     1       9.905   1.547  21.911  0.00  0.00    -0.255 NA
ATOM     40  C   UNL     1       9.456   0.269  21.660  0.00  0.00    +0.125 A 
ENDBRANCH  35  36
ENDBRANCH  34  35
ENDBRANCH  32  34
ENDBRANCH  29  30
BRANCH  29  41
ATOM     41  C   UNL     1       6.711  -5.103  25.069  0.00  0.00    +0.060 C 
BRANCH  41  42
ATOM     42  C   UNL     1       6.471  -4.983  23.577  0.00  0.00    -0.046 A 
ATOM     43  C   UNL     1       6.954  -5.996  22.733  0.00  0.00    +0.004 A 
ATOM     44  C   UNL     1       6.845  -5.886  21.346  0.00  0.00    +0.000 A 
ATOM     45  C   UNL     1       6.258  -4.758  20.782  0.00  0.00    +0.000 A 
ATOM     46  C   UNL     1       5.782  -3.740  21.607  0.00  0.00    +0.000 A 
ATOM     47  C   UNL     1       5.895  -3.848  22.996  0.00  0.00    +0.004 A 
ENDBRANCH  41  42
ENDBRANCH  29  41
ENDBRANCH  26  29
ENDBRANCH  25  26
ENDBRANCH   1  25
BRANCH   1  48
ATOM     48  C   UNL     1       2.846  -2.969  25.683  0.00  0.00    +0.057 C 
BRANCH  48  49
ATOM     49  C   UNL     1       3.028  -4.428  25.318  0.00  0.00    -0.046 A 
ATOM     50  C   UNL     1       3.371  -5.379  26.291  0.00  0.00    +0.004 A 
ATOM     51  C   UNL     1       3.485  -6.729  25.973  0.00  0.00    +0.000 A 
ATOM     52  C   UNL     1       3.292  -7.146  24.661  0.00  0.00    +0.000 A 
ATOM     53  C   UNL     1       2.973  -6.215  23.675  0.00  0.00    +0.000 A 
ATOM     54  C   UNL     1       2.843  -4.860  24.001  0.00  0.00    +0.004 A 
ENDBRANCH  48  49
ENDBRANCH   1  48
TORSDOF 19
ENDMDL
MODEL 9
REMARK VINA RESULT:      -5.2      2.118      3.188
REMARK  Name = 
REMARK  24 active torsions:
REMARK  status: ('A' for Active; 'I' for Inactive)
REMARK    1  A    between atoms: C_1  and  C_2
REMARK    2  A    between atoms: C_2  and  C_3
REMARK    3  A    between atoms: C_2  and  C_4
REMARK    4  A    between atoms: C_6  and  C_9
REMARK    5  A    between atoms: C_9  and  N_10
REMARK    6  A    between atoms: N_10  and  C_11
REMARK    7  A    between atoms: N_14  and  C_15
REMARK    8  A    between atoms: C_15  and  C_17
REMARK    9  A    between atoms: C_15  and  C_20
REMARK   10  A    between atoms: C_17  and  C_18
REMARK   11  A    between atoms: C_17  and  C_19
REMARK   12  A    between atoms: N_22  and  C_23
REMARK   13  A    between atoms: C_23  and  C_25
REMARK   14  A    between atoms: C_23  and  C_32
REMARK   15  A    between atoms: C_25  and  C_26
REMARK   16  A    between atoms: C_32  and  C_33
REMARK   17  A    between atoms: C_33  and  C_35
REMARK   18  A    between atoms: C_33  and  O_54
REMARK   19  A    between atoms: C_35  and  C_37
REMARK   20  A    between atoms: C_35  and  N_44
REMARK   21  A    between atoms: C_37  and  C_38
REMARK   22  A    between atoms: C_45  and  O_47
REMARK   23  A    between atoms: O_47  and  C_48
REMARK   24  A    between atoms: C_48  and  C_49
REMARK                            x       y       z     vdW  Elec       q    Type
REMARK                         _______ _______ _______ _____ _____    ______ ____
ROOT
ATOM      1  C   UNL     1       6.534   2.474  26.561  0.00  0.00    +0.080 C 
ENDROOT
BRANCH   1   3
ATOM      2  C   UNL     1       4.117   2.059  26.034  0.00  0.00    +0.234 C 
ATOM      3  N   UNL     1       5.086   2.651  26.798  0.00  0.00    -0.311 N 
ATOM      4  H   UNL     1       4.799   2.919  27.728  0.00  0.00    +0.149 HD
ATOM      5  O   UNL     1       4.350   1.438  24.992  0.00  0.00    -0.274 OA
BRANCH   2   6
ATOM      6  C   UNL     1       2.671   2.210  26.547  0.00  0.00    +0.163 C 
BRANCH   6   9
ATOM      7  N   UNL     1       2.171  -0.581  28.986  0.00  0.00    -0.283 N 
ATOM      8  C   UNL     1       2.149   0.048  27.745  0.00  0.00    +0.303 C 
ATOM      9  N   UNL     1       2.588   1.343  27.729  0.00  0.00    -0.288 N 
ATOM     10  H   UNL     1       2.985   1.748  28.568  0.00  0.00    +0.151 HD
ATOM     11  O   UNL     1       1.743  -0.501  26.720  0.00  0.00    -0.253 OA
ATOM     12  C   UNL     1       2.646   0.036  30.218  0.00  0.00    +0.134 C 
BRANCH   7  13
ATOM     13  C   UNL     1       1.590  -1.926  29.122  0.00  0.00    +0.164 C 
BRANCH  13  17
ATOM     14  C   UNL     1       3.352  -4.850  27.803  0.00  0.00    +0.081 A 
ATOM     15  S   UNL     1       4.699  -4.459  28.806  0.00  0.00    -0.080 S 
ATOM     16  C   UNL     1       3.846  -3.117  29.432  0.00  0.00    +0.071 A 
ATOM     17  C   UNL     1       2.580  -3.043  28.883  0.00  0.00    +0.066 A 
ATOM     18  N   UNL     1       2.305  -4.056  27.949  0.00  0.00    -0.247 NA
BRANCH  14  20
ATOM     19  C   UNL     1       4.785  -6.775  27.008  0.00  0.00    +0.014 C 
ATOM     20  C   UNL     1       3.475  -6.010  26.832  0.00  0.00    +0.038 C 
ATOM     21  C   UNL     1       2.282  -6.960  26.949  0.00  0.00    +0.014 C 
ENDBRANCH  14  20
ENDBRANCH  13  17
ENDBRANCH   7  13
ENDBRANCH   6   9
BRANCH   6  22
ATOM     22  C   UNL     1       2.403   3.705  26.861  0.00  0.00    +0.012 C 
ATOM     23  C   UNL     1       1.123   3.890  27.691  0.00  0.00    +0.009 C 
ATOM     24  C   UNL     1       2.320   4.585  25.604  0.00  0.00    +0.009 C 
ENDBRANCH   6  22
ENDBRANCH   2   6
ENDBRANCH   1   3
BRANCH   1  25
ATOM     25  C   UNL     1       7.169   1.647  27.703  0.00  0.00    +0.055 C 
BRANCH  25  26
ATOM     26  C   UNL     1       6.954   0.135  27.601  0.00  0.00    +0.137 C 
BRANCH  26  27
ATOM     27  O   UNL     1       5.598  -0.145  27.970  0.00  0.00    -0.390 OA
ATOM     28  H   UNL     1       5.629  -0.487  28.884  0.00  0.00    +0.210 HD
ENDBRANCH  26  27
BRANCH  26  29
ATOM     29  C   UNL     1       7.238  -0.436  26.174  0.00  0.00    +0.109 C 
BRANCH  29  30
ATOM     30  N   UNL     1       6.845  -1.845  26.109  0.00  0.00    -0.275 N 
ATOM     31  H   UNL     1       7.213  -2.503  26.783  0.00  0.00    +0.152 HD
ATOM     32  C   UNL     1       5.884  -2.322  25.269  0.00  0.00    +0.401 C 
ATOM     33  O   UNL     1       5.284  -1.651  24.446  0.00  0.00    -0.226 OA
BRANCH  32  34
ATOM     34  O   UNL     1       5.746  -3.651  25.455  0.00  0.00    -0.445 OA
BRANCH  34  35
ATOM     35  C   UNL     1       6.898  -4.436  25.128  0.00  0.00    +0.278 C 
BRANCH  35  36
ATOM     36  C   UNL     1       6.685  -4.955  23.752  0.00  0.00    +0.046 A 
ATOM     37  S   UNL     1       5.146  -5.519  23.238  0.00  0.00    -0.077 S 
ATOM     38  C   UNL     1       5.818  -5.891  21.702  0.00  0.00    +0.156 A 
ATOM     39  N   UNL     1       7.095  -5.616  21.551  0.00  0.00    -0.255 NA
ATOM     40  C   UNL     1       7.591  -5.082  22.720  0.00  0.00    +0.125 A 
ENDBRANCH  35  36
ENDBRANCH  34  35
ENDBRANCH  32  34
ENDBRANCH  29  30
BRANCH  29  41
ATOM     41  C   UNL     1       8.710  -0.217  25.737  0.00  0.00    +0.060 C 
BRANCH  41  42
ATOM     42  C   UNL     1       8.965   0.645  24.516  0.00  0.00    -0.046 A 
ATOM     43  C   UNL     1       8.161   0.459  23.379  0.00  0.00    +0.004 A 
ATOM     44  C   UNL     1       8.417   1.156  22.198  0.00  0.00    +0.000 A 
ATOM     45  C   UNL     1       9.486   2.045  22.133  0.00  0.00    +0.000 A 
ATOM     46  C   UNL     1      10.297   2.233  23.250  0.00  0.00    +0.000 A 
ATOM     47  C   UNL     1      10.044   1.531  24.432  0.00  0.00    +0.004 A 
ENDBRANCH  41  42
ENDBRANCH  29  41
ENDBRANCH  26  29
ENDBRANCH  25  26
ENDBRANCH   1  25
BRANCH   1  48
ATOM     48  C   UNL     1       7.326   3.807  26.388  0.00  0.00    +0.057 C 
BRANCH  48  49
ATOM     49  C   UNL     1       7.451   4.309  24.964  0.00  0.00    -0.046 A 
ATOM     50  C   UNL     1       6.557   3.889  23.968  0.00  0.00    +0.004 A 
ATOM     51  C   UNL     1       6.633   4.390  22.672  0.00  0.00    +0.000 A 
ATOM     52  C   UNL     1       7.634   5.297  22.342  0.00  0.00    +0.000 A 
ATOM     53  C   UNL     1       8.546   5.709  23.310  0.00  0.00    +0.000 A 
ATOM     54  C   UNL     1       8.457   5.216  24.617  0.00  0.00    +0.004 A 
ENDBRANCH  48  49
ENDBRANCH   1  48
TORSDOF 19
ENDMDL
