MODEL 1
REMARK VINA RESULT:      -5.8      0.000      0.000
REMARK  Name = 
REMARK  3 active torsions:
REMARK  status: ('A' for Active; 'I' for Inactive)
REMARK    1  A    between atoms: C_3  and  N_10
REMARK    2  A    between atoms: C_6  and  C_8
REMARK    3  A    between atoms: C_8  and  O_9
REMARK                            x       y       z     vdW  Elec       q    Type
REMARK                         _______ _______ _______ _____ _____    ______ ____
ROOT
ATOM      1  N   UNL     1       8.227  -3.179  23.054  0.00  0.00    -0.273 N 
ATOM      2  C   UNL     1       8.280  -4.421  23.697  0.00  0.00    +0.352 A 
ATOM      3  O   UNL     1       9.183  -4.684  24.490  0.00  0.00    -0.244 OA
ATOM      4  N   UNL     1       7.301  -5.346  23.417  0.00  0.00    -0.178 NA
ATOM      5  C   UNL     1       6.330  -5.035  22.617  0.00  0.00    +0.123 A 
ATOM      6  N   UNL     1       5.406  -6.008  22.351  0.00  0.00    -0.343 N 
ATOM      7  H   UNL     1       5.467  -6.793  22.988  0.00  0.00    +0.144 HD
ATOM      8  H   UNL     1       4.460  -5.720  22.137  0.00  0.00    +0.144 HD
ATOM      9  C   UNL     1       6.183  -3.701  22.002  0.00  0.00    +0.061 A 
ATOM     10  C   UNL     1       7.161  -2.835  22.255  0.00  0.00    +0.096 A 
ENDROOT
BRANCH   1  14
ATOM     11  C   UNL     1      10.026  -0.098  23.873  0.00  0.00    +0.038 C 
ATOM     12  C   UNL     1      10.163  -0.285  22.366  0.00  0.00    +0.146 C 
ATOM     13  O   UNL     1       9.757  -1.634  22.071  0.00  0.00    -0.351 OA
ATOM     14  C   UNL     1       9.322  -2.258  23.298  0.00  0.00    +0.224 C 
ATOM     15  C   UNL     1       8.974  -1.118  24.242  0.00  0.00    +0.057 C 
BRANCH  12  16
ATOM     16  C   UNL     1       9.297   0.680  21.550  0.00  0.00    +0.187 C 
BRANCH  16  17
ATOM     17  O   UNL     1       9.835   1.995  21.546  0.00  0.00    -0.392 OA
ATOM     18  H   UNL     1       9.094   2.612  21.413  0.00  0.00    +0.210 HD
ENDBRANCH  16  17
ENDBRANCH  12  16
ENDBRANCH   1  14
TORSDOF 3
ENDMDL
MODEL 2
REMARK VINA RESULT:      -5.8      2.542      5.845
REMARK  Name = 
REMARK  3 active torsions:
REMARK  status: ('A' for Active; 'I' for Inactive)
REMARK    1  A    between atoms: C_3  and  N_10
REMARK    2  A    between atoms: C_6  and  C_8
REMARK    3  A    between atoms: C_8  and  O_9
REMARK                            x       y       z     vdW  Elec       q    Type
REMARK                         _______ _______ _______ _____ _____    ______ ____
ROOT
ATOM      1  N   UNL     1       9.404  -1.470  23.661  0.00  0.00    -0.273 N 
ATOM      2  C   UNL     1       9.561  -0.752  22.470  0.00  0.00    +0.352 A 
ATOM      3  O   UNL     1       9.295  -1.264  21.384  0.00  0.00    -0.244 OA
ATOM      4  N   UNL     1      10.026   0.540  22.542  0.00  0.00    -0.178 NA
ATOM      5  C   UNL     1      10.254   1.081  23.698  0.00  0.00    +0.123 A 
ATOM      6  N   UNL     1      10.748   2.357  23.703  0.00  0.00    -0.343 N 
ATOM      7  H   UNL     1      10.668   2.813  22.801  0.00  0.00    +0.144 HD
ATOM      8  H   UNL     1      10.523   2.951  24.489  0.00  0.00    +0.144 HD
ATOM      9  C   UNL     1      10.002   0.391  24.978  0.00  0.00    +0.061 A 
ATOM     10  C   UNL     1       9.590  -0.870  24.885  0.00  0.00    +0.096 A 
ENDROOT
BRANCH   1  14
ATOM     11  C   UNL     1       7.622  -4.606  24.287  0.00  0.00    +0.038 C 
ATOM     12  C   UNL     1       9.013  -4.778  24.888  0.00  0.00    +0.146 C 
ATOM     13  O   UNL     1       9.828  -3.708  24.374  0.00  0.00    -0.351 OA
ATOM     14  C   UNL     1       9.000  -2.861  23.549  0.00  0.00    +0.224 C 
ATOM     15  C   UNL     1       7.568  -3.127  23.987  0.00  0.00    +0.057 C 
BRANCH  12  16
ATOM     16  C   UNL     1       9.029  -4.720  26.418  0.00  0.00    +0.187 C 
BRANCH  16  17
ATOM     17  O   UNL     1       8.269  -5.773  26.994  0.00  0.00    -0.392 OA
ATOM     18  H   UNL     1       8.368  -6.552  26.419  0.00  0.00    +0.210 HD
ENDBRANCH  16  17
ENDBRANCH  12  16
ENDBRANCH   1  14
TORSDOF 3
ENDMDL
MODEL 3
REMARK VINA RESULT:      -5.7      3.736      5.249
REMARK  Name = 
REMARK  3 active torsions:
REMARK  status: ('A' for Active; 'I' for Inactive)
REMARK    1  A    between atoms: C_3  and  N_10
REMARK    2  A    between atoms: C_6  and  C_8
REMARK    3  A    between atoms: C_8  and  O_9
REMARK                            x       y       z     vdW  Elec       q    Type
REMARK                         _______ _______ _______ _____ _____    ______ ____
ROOT
ATOM      1  N   UNL     1       6.635  -5.226  25.686  0.00  0.00    -0.273 N 
ATOM      2  C   UNL     1       7.365  -5.235  26.880  0.00  0.00    +0.352 A 
ATOM      3  O   UNL     1       8.389  -4.563  27.000  0.00  0.00    -0.244 OA
ATOM      4  N   UNL     1       6.915  -6.020  27.916  0.00  0.00    -0.178 NA
ATOM      5  C   UNL     1       5.809  -6.683  27.790  0.00  0.00    +0.123 A 
ATOM      6  N   UNL     1       5.431  -7.472  28.842  0.00  0.00    -0.343 N 
ATOM      7  H   UNL     1       5.950  -7.272  29.689  0.00  0.00    +0.144 HD
ATOM      8  H   UNL     1       4.443  -7.629  28.989  0.00  0.00    +0.144 HD
ATOM      9  C   UNL     1       4.958  -6.617  26.586  0.00  0.00    +0.061 A 
ATOM     10  C   UNL     1       5.431  -5.884  25.581  0.00  0.00    +0.096 A 
ENDROOT
BRANCH   1  14
ATOM     11  C   UNL     1       6.814  -3.294  22.582  0.00  0.00    +0.038 C 
ATOM     12  C   UNL     1       7.374  -4.674  22.258  0.00  0.00    +0.146 C 
ATOM     13  O   UNL     1       7.619  -5.334  23.515  0.00  0.00    -0.351 OA
ATOM     14  C   UNL     1       7.183  -4.462  24.579  0.00  0.00    +0.224 C 
ATOM     15  C   UNL     1       6.196  -3.495  23.945  0.00  0.00    +0.057 C 
BRANCH  12  16
ATOM     16  C   UNL     1       6.424  -5.539  21.425  0.00  0.00    +0.187 C 
BRANCH  16  17
ATOM     17  O   UNL     1       6.081  -6.743  22.097  0.00  0.00    -0.392 OA
ATOM     18  H   UNL     1       6.702  -7.431  21.798  0.00  0.00    +0.210 HD
ENDBRANCH  16  17
ENDBRANCH  12  16
ENDBRANCH   1  14
TORSDOF 3
ENDMDL
MODEL 4
REMARK VINA RESULT:      -5.6      2.794      5.265
REMARK  Name = 
REMARK  3 active torsions:
REMARK  status: ('A' for Active; 'I' for Inactive)
REMARK    1  A    between atoms: C_3  and  N_10
REMARK    2  A    between atoms: C_6  and  C_8
REMARK    3  A    between atoms: C_8  and  O_9
REMARK                            x       y       z     vdW  Elec       q    Type
REMARK                         _______ _______ _______ _____ _____    ______ ____
ROOT
ATOM      1  N   UNL     1       9.151  -1.191  23.612  0.00  0.00    -0.273 N 
ATOM      2  C   UNL     1       9.681  -0.081  24.280  0.00  0.00    +0.352 A 
ATOM      3  O   UNL     1       9.854  -0.099  25.498  0.00  0.00    -0.244 OA
ATOM      4  N   UNL     1       9.999   1.036  23.543  0.00  0.00    -0.178 NA
ATOM      5  C   UNL     1       9.857   1.021  22.255  0.00  0.00    +0.123 A 
ATOM      6  N   UNL     1      10.157   2.173  21.580  0.00  0.00    -0.343 N 
ATOM      7  H   UNL     1      10.671   2.838  22.148  0.00  0.00    +0.144 HD
ATOM      8  H   UNL     1      10.492   2.095  20.629  0.00  0.00    +0.144 HD
ATOM      9  C   UNL     1       9.400  -0.165  21.504  0.00  0.00    +0.061 A 
ATOM     10  C   UNL     1       9.061  -1.221  22.239  0.00  0.00    +0.096 A 
ENDROOT
BRANCH   1  14
ATOM     11  C   UNL     1       8.820  -4.627  24.829  0.00  0.00    +0.038 C 
ATOM     12  C   UNL     1       7.495  -4.282  24.158  0.00  0.00    +0.146 C 
ATOM     13  O   UNL     1       7.479  -2.855  23.969  0.00  0.00    -0.351 OA
ATOM     14  C   UNL     1       8.739  -2.320  24.426  0.00  0.00    +0.224 C 
ATOM     15  C   UNL     1       9.715  -3.486  24.407  0.00  0.00    +0.057 C 
BRANCH  12  16
ATOM     16  C   UNL     1       7.303  -4.962  22.799  0.00  0.00    +0.187 C 
BRANCH  16  17
ATOM     17  O   UNL     1       6.820  -4.054  21.819  0.00  0.00    -0.392 OA
ATOM     18  H   UNL     1       7.513  -3.388  21.672  0.00  0.00    +0.210 HD
ENDBRANCH  16  17
ENDBRANCH  12  16
ENDBRANCH   1  14
TORSDOF 3
ENDMDL
MODEL 5
REMARK VINA RESULT:      -5.5      2.330      3.034
REMARK  Name = 
REMARK  3 active torsions:
REMARK  status: ('A' for Active; 'I' for Inactive)
REMARK    1  A    between atoms: C_3  and  N_10
REMARK    2  A    between atoms: C_6  and  C_8
REMARK    3  A    between atoms: C_8  and  O_9
REMARK                            x       y       z     vdW  Elec       q    Type
REMARK                         _______ _______ _______ _____ _____    ______ ____
ROOT
ATOM      1  N   UNL     1       8.433  -2.712  24.000  0.00  0.00    -0.273 N 
ATOM      2  C   UNL     1       7.171  -3.148  24.419  0.00  0.00    +0.352 A 
ATOM      3  O   UNL     1       6.146  -2.608  24.006  0.00  0.00    -0.244 OA
ATOM      4  N   UNL     1       7.103  -4.193  25.311  0.00  0.00    -0.178 NA
ATOM      5  C   UNL     1       8.191  -4.783  25.699  0.00  0.00    +0.123 A 
ATOM      6  N   UNL     1       8.061  -5.793  26.612  0.00  0.00    -0.343 N 
ATOM      7  H   UNL     1       7.104  -6.111  26.713  0.00  0.00    +0.144 HD
ATOM      8  H   UNL     1       8.746  -6.536  26.600  0.00  0.00    +0.144 HD
ATOM      9  C   UNL     1       9.531  -4.420  25.198  0.00  0.00    +0.061 A 
ATOM     10  C   UNL     1       9.577  -3.382  24.367  0.00  0.00    +0.096 A 
ENDROOT
BRANCH   1  14
ATOM     11  C   UNL     1       9.756  -0.064  21.846  0.00  0.00    +0.038 C 
ATOM     12  C   UNL     1       9.392   0.603  23.168  0.00  0.00    +0.146 C 
ATOM     13  O   UNL     1       8.578  -0.332  23.900  0.00  0.00    -0.351 OA
ATOM     14  C   UNL     1       8.478  -1.550  23.131  0.00  0.00    +0.224 C 
ATOM     15  C   UNL     1       9.661  -1.535  22.176  0.00  0.00    +0.057 C 
BRANCH  12  16
ATOM     16  C   UNL     1      10.609   0.971  24.022  0.00  0.00    +0.187 C 
BRANCH  16  17
ATOM     17  O   UNL     1      10.531   0.405  25.323  0.00  0.00    -0.392 OA
ATOM     18  H   UNL     1      11.211  -0.288  25.381  0.00  0.00    +0.210 HD
ENDBRANCH  16  17
ENDBRANCH  12  16
ENDBRANCH   1  14
TORSDOF 3
ENDMDL
MODEL 6
REMARK VINA RESULT:      -5.3      3.961      6.617
REMARK  Name = 
REMARK  3 active torsions:
REMARK  status: ('A' for Active; 'I' for Inactive)
REMARK    1  A    between atoms: C_3  and  N_10
REMARK    2  A    between atoms: C_6  and  C_8
REMARK    3  A    between atoms: C_8  and  O_9
REMARK                            x       y       z     vdW  Elec       q    Type
REMARK                         _______ _______ _______ _____ _____    ______ ____
ROOT
ATOM      1  N   UNL     1       6.384  -5.191  24.258  0.00  0.00    -0.273 N 
ATOM      2  C   UNL     1       7.518  -5.054  23.450  0.00  0.00    +0.352 A 
ATOM      3  O   UNL     1       7.412  -4.851  22.241  0.00  0.00    -0.244 OA
ATOM      4  N   UNL     1       8.757  -5.156  24.038  0.00  0.00    -0.178 NA
ATOM      5  C   UNL     1       8.851  -5.321  25.320  0.00  0.00    +0.123 A 
ATOM      6  N   UNL     1      10.109  -5.450  25.842  0.00  0.00    -0.343 N 
ATOM      7  H   UNL     1      10.836  -5.179  25.188  0.00  0.00    +0.144 HD
ATOM      8  H   UNL     1      10.267  -5.135  26.789  0.00  0.00    +0.144 HD
ATOM      9  C   UNL     1       7.681  -5.366  26.218  0.00  0.00    +0.061 A 
ATOM     10  C   UNL     1       6.492  -5.303  25.625  0.00  0.00    +0.096 A 
ENDROOT
BRANCH   1  14
ATOM     11  C   UNL     1       2.764  -4.959  23.766  0.00  0.00    +0.038 C 
ATOM     12  C   UNL     1       3.123  -6.432  23.607  0.00  0.00    +0.146 C 
ATOM     13  O   UNL     1       4.554  -6.504  23.468  0.00  0.00    -0.351 OA
ATOM     14  C   UNL     1       5.092  -5.170  23.597  0.00  0.00    +0.224 C 
ATOM     15  C   UNL     1       4.032  -4.365  24.332  0.00  0.00    +0.057 C 
BRANCH  12  16
ATOM     16  C   UNL     1       2.699  -7.296  24.799  0.00  0.00    +0.187 C 
BRANCH  16  17
ATOM     17  O   UNL     1       3.812  -7.940  25.405  0.00  0.00    -0.392 OA
ATOM     18  H   UNL     1       4.450  -7.248  25.652  0.00  0.00    +0.210 HD
ENDBRANCH  16  17
ENDBRANCH  12  16
ENDBRANCH   1  14
TORSDOF 3
ENDMDL
MODEL 7
REMARK VINA RESULT:      -5.3      2.823      3.419
REMARK  Name = 
REMARK  3 active torsions:
REMARK  status: ('A' for Active; 'I' for Inactive)
REMARK    1  A    between atoms: C_3  and  N_10
REMARK    2  A    between atoms: C_6  and  C_8
REMARK    3  A    between atoms: C_8  and  O_9
REMARK                            x       y       z     vdW  Elec       q    Type
REMARK                         _______ _______ _______ _____ _____    ______ ____
ROOT
ATOM      1  N   UNL     1       9.703  -0.901  24.395  0.00  0.00    -0.273 N 
ATOM      2  C   UNL     1       9.834  -2.239  24.006  0.00  0.00    +0.352 A 
ATOM      3  O   UNL     1      10.482  -2.546  23.006  0.00  0.00    -0.244 OA
ATOM      4  N   UNL     1       9.216  -3.205  24.765  0.00  0.00    -0.178 NA
ATOM      5  C   UNL     1       8.578  -2.869  25.842  0.00  0.00    +0.123 A 
ATOM      6  N   UNL     1       7.955  -3.870  26.536  0.00  0.00    -0.343 N 
ATOM      7  H   UNL     1       8.252  -4.794  26.245  0.00  0.00    +0.144 HD
ATOM      8  H   UNL     1       7.853  -3.763  27.536  0.00  0.00    +0.144 HD
ATOM      9  C   UNL     1       8.506  -1.482  26.341  0.00  0.00    +0.061 A 
ATOM     10  C   UNL     1       9.078  -0.559  25.572  0.00  0.00    +0.096 A 
ENDROOT
BRANCH   1  14
ATOM     11  C   UNL     1      10.478   2.360  22.922  0.00  0.00    +0.038 C 
ATOM     12  C   UNL     1       9.556   1.653  21.935  0.00  0.00    +0.146 C 
ATOM     13  O   UNL     1       9.505   0.268  22.324  0.00  0.00    -0.351 OA
ATOM     14  C   UNL     1      10.289   0.103  23.524  0.00  0.00    +0.224 C 
ATOM     15  C   UNL     1      10.385   1.485  24.150  0.00  0.00    +0.057 C 
BRANCH  12  16
ATOM     16  C   UNL     1       8.130   2.215  21.921  0.00  0.00    +0.187 C 
BRANCH  16  17
ATOM     17  O   UNL     1       7.172   1.228  22.278  0.00  0.00    -0.392 OA
ATOM     18  H   UNL     1       6.553   1.140  21.533  0.00  0.00    +0.210 HD
ENDBRANCH  16  17
ENDBRANCH  12  16
ENDBRANCH   1  14
TORSDOF 3
ENDMDL
MODEL 8
REMARK VINA RESULT:      -5.3      2.976      3.634
REMARK  Name = 
REMARK  3 active torsions:
REMARK  status: ('A' for Active; 'I' for Inactive)
REMARK    1  A    between atoms: C_3  and  N_10
REMARK    2  A    between atoms: C_6  and  C_8
REMARK    3  A    between atoms: C_8  and  O_9
REMARK                            x       y       z     vdW  Elec       q    Type
REMARK                         _______ _______ _______ _____ _____    ______ ____
ROOT
ATOM      1  N   UNL     1       9.074  -1.951  24.820  0.00  0.00    -0.273 N 
ATOM      2  C   UNL     1       9.776  -2.952  24.138  0.00  0.00    +0.352 A 
ATOM      3  O   UNL     1      10.444  -2.686  23.140  0.00  0.00    -0.244 OA
ATOM      4  N   UNL     1       9.695  -4.242  24.606  0.00  0.00    -0.178 NA
ATOM      5  C   UNL     1       9.027  -4.496  25.687  0.00  0.00    +0.123 A 
ATOM      6  N   UNL     1       8.955  -5.804  26.084  0.00  0.00    -0.343 N 
ATOM      7  H   UNL     1       9.623  -6.397  25.604  0.00  0.00    +0.144 HD
ATOM      8  H   UNL     1       8.864  -5.997  27.072  0.00  0.00    +0.144 HD
ATOM      9  C   UNL     1       8.361  -3.453  26.491  0.00  0.00    +0.061 A 
ATOM     10  C   UNL     1       8.418  -2.218  26.000  0.00  0.00    +0.096 A 
ENDROOT
BRANCH   1  14
ATOM     11  C   UNL     1       9.479   1.678  24.553  0.00  0.00    +0.038 C 
ATOM     12  C   UNL     1       7.978   1.414  24.545  0.00  0.00    +0.146 C 
ATOM     13  O   UNL     1       7.800   0.003  24.318  0.00  0.00    -0.351 OA
ATOM     14  C   UNL     1       9.103  -0.615  24.251  0.00  0.00    +0.224 C 
ATOM     15  C   UNL     1      10.052   0.340  24.957  0.00  0.00    +0.057 C 
BRANCH  12  16
ATOM     16  C   UNL     1       7.284   1.794  25.857  0.00  0.00    +0.187 C 
BRANCH  16  17
ATOM     17  O   UNL     1       7.807   2.997  26.400  0.00  0.00    -0.392 OA
ATOM     18  H   UNL     1       8.371   3.404  25.720  0.00  0.00    +0.210 HD
ENDBRANCH  16  17
ENDBRANCH  12  16
ENDBRANCH   1  14
TORSDOF 3
ENDMDL
MODEL 9
REMARK VINA RESULT:      -5.2      2.567      5.307
REMARK  Name = 
REMARK  3 active torsions:
REMARK  status: ('A' for Active; 'I' for Inactive)
REMARK    1  A    between atoms: C_3  and  N_10
REMARK    2  A    between atoms: C_6  and  C_8
REMARK    3  A    between atoms: C_8  and  O_9
REMARK                            x       y       z     vdW  Elec       q    Type
REMARK                         _______ _______ _______ _____ _____    ______ ____
ROOT
ATOM      1  N   UNL     1       8.105  -3.388  23.373  0.00  0.00    -0.273 N 
ATOM      2  C   UNL     1       9.300  -3.177  24.070  0.00  0.00    +0.352 A 
ATOM      3  O   UNL     1       9.943  -4.123  24.523  0.00  0.00    -0.244 OA
ATOM      4  N   UNL     1       9.736  -1.884  24.245  0.00  0.00    -0.178 NA
ATOM      5  C   UNL     1       9.072  -0.903  23.720  0.00  0.00    +0.123 A 
ATOM      6  N   UNL     1       9.537   0.362  23.957  0.00  0.00    -0.343 N 
ATOM      7  H   UNL     1      10.478   0.371  24.334  0.00  0.00    +0.144 HD
ATOM      8  H   UNL     1       9.363   1.072  23.259  0.00  0.00    +0.144 HD
ATOM      9  C   UNL     1       7.866  -1.093  22.891  0.00  0.00    +0.061 A 
ATOM     10  C   UNL     1       7.439  -2.347  22.767  0.00  0.00    +0.096 A 
ENDROOT
BRANCH   1  14
ATOM     11  C   UNL     1       6.286  -6.333  22.181  0.00  0.00    +0.038 C 
ATOM     12  C   UNL     1       5.579  -5.880  23.453  0.00  0.00    +0.146 C 
ATOM     13  O   UNL     1       6.454  -4.945  24.111  0.00  0.00    -0.351 OA
ATOM     14  C   UNL     1       7.621  -4.754  23.284  0.00  0.00    +0.224 C 
ATOM     15  C   UNL     1       7.209  -5.175  21.882  0.00  0.00    +0.057 C 
BRANCH  12  16
ATOM     16  C   UNL     1       4.232  -5.197  23.193  0.00  0.00    +0.187 C 
BRANCH  16  17
ATOM     17  O   UNL     1       4.209  -3.870  23.699  0.00  0.00    -0.392 OA
ATOM     18  H   UNL     1       3.717  -3.323  23.062  0.00  0.00    +0.210 HD
ENDBRANCH  16  17
ENDBRANCH  12  16
ENDBRANCH   1  14
TORSDOF 3
ENDMDL
