MODEL 1
REMARK VINA RESULT:      -7.0      0.000      0.000
REMARK  Name = 
REMARK  13 active torsions:
REMARK  status: ('A' for Active; 'I' for Inactive)
REMARK    1  A    between atoms: C_1  and  C_2
REMARK    2  A    between atoms: C_2  and  C_3
REMARK    3  A    between atoms: C_2  and  C_4
REMARK    4  A    between atoms: C_4  and  C_5
REMARK    5  A    between atoms: C_4  and  C_6
REMARK    6  A    between atoms: C_4  and  N_8
REMARK    7  A    between atoms: C_6  and  O_7
REMARK    8  A    between atoms: C_10  and  C_30
REMARK    9  A    between atoms: C_16  and  O_28
REMARK   10  A    between atoms: C_17  and  C_19
REMARK   11  A    between atoms: C_19  and  C_20
REMARK   12  A    between atoms: O_28  and  C_29
REMARK   13  A    between atoms: C_30  and  O_32
REMARK                            x       y       z     vdW  Elec       q    Type
REMARK                         _______ _______ _______ _____ _____    ______ ____
ROOT
ATOM      1  N   UNL     1       4.769  -4.088  26.314  0.00  0.00    -0.337 N 
ATOM      2  C   UNL     1       6.092  -3.765  25.891  0.00  0.00    +0.057 A 
ATOM      3  C   UNL     1       6.987  -2.920  26.547  0.00  0.00    +0.072 A 
ATOM      4  C   UNL     1       8.195  -2.448  25.979  0.00  0.00    +0.126 A 
ATOM      5  C   UNL     1       8.633  -2.937  24.750  0.00  0.00    -0.001 A 
ATOM      6  C   UNL     1       7.864  -3.945  24.169  0.00  0.00    +0.021 A 
ATOM      7  C   UNL     1       6.623  -4.326  24.711  0.00  0.00    +0.047 A 
ATOM      8  C   UNL     1       5.894  -5.379  23.987  0.00  0.00    +0.203 A 
ATOM      9  O   UNL     1       6.347  -5.896  22.963  0.00  0.00    -0.286 OA
ATOM     10  C   UNL     1       4.610  -5.812  24.525  0.00  0.00    +0.122 A 
ATOM     11  C   UNL     1       4.156  -5.142  25.599  0.00  0.00    +0.105 A 
ENDROOT
BRANCH   1  12
ATOM     12  C   UNL     1       4.046  -3.406  27.533  0.00  0.00    +0.068 C 
ATOM     13  C   UNL     1       2.515  -3.610  27.411  0.00  0.00    +0.037 C 
BRANCH  12  15
ATOM     14  C   UNL     1       3.662  -3.537  30.136  0.00  0.00    +0.009 C 
ATOM     15  C   UNL     1       4.655  -3.795  28.970  0.00  0.00    +0.011 C 
ATOM     16  C   UNL     1       5.181  -5.212  29.219  0.00  0.00    +0.009 C 
ENDBRANCH  12  15
BRANCH  12  17
ATOM     17  C   UNL     1       4.173  -1.810  27.433  0.00  0.00    +0.184 C 
BRANCH  17  18
ATOM     18  O   UNL     1       3.594  -1.232  26.263  0.00  0.00    -0.393 OA
ATOM     19  H   UNL     1       3.327  -0.317  26.448  0.00  0.00    +0.209 HD
ENDBRANCH  17  18
ENDBRANCH  12  17
ENDBRANCH   1  12
BRANCH   4  20
ATOM     20  O   UNL     1       8.885  -1.591  26.794  0.00  0.00    -0.495 OA
ATOM     21  C   UNL     1       8.230  -0.371  27.122  0.00  0.00    +0.277 C 
ENDBRANCH   4  20
BRANCH  10  22
ATOM     22  C   UNL     1       3.834  -6.927  23.939  0.00  0.00    +0.342 C 
ATOM     23  O   UNL     1       3.544  -7.946  24.551  0.00  0.00    -0.245 OA
BRANCH  22  24
ATOM     24  O   UNL     1       3.471  -6.745  22.648  0.00  0.00    -0.477 OA
ATOM     25  H   UNL     1       3.505  -7.567  22.100  0.00  0.00    +0.295 HD
ENDBRANCH  22  24
ENDBRANCH  10  22
BRANCH   5  26
ATOM     26  C   UNL     1       9.874  -2.497  24.013  0.00  0.00    +0.077 C 
BRANCH  26  27
ATOM     27  C   UNL     1       9.759  -1.222  23.195  0.00  0.00    -0.006 A 
ATOM     28  C   UNL     1       9.227  -1.164  21.896  0.00  0.00    +0.007 A 
ATOM     29  C   UNL     1       9.199   0.044  21.183  0.00  0.00    +0.002 A 
ATOM     30  C   UNL     1       9.711   1.208  21.753  0.00  0.00    +0.023 A 
ATOM     31  C   UNL     1      10.255   1.165  23.034  0.00  0.00    +0.076 A 
ATOM     32 CL   UNL     1      10.892   2.603  23.735  0.00  0.00    -0.081 Cl
ATOM     33  C   UNL     1      10.282  -0.039  23.742  0.00  0.00    +0.145 A 
ATOM     34  F   UNL     1      10.806  -0.074  24.977  0.00  0.00    -0.204 F 
ENDBRANCH  26  27
ENDBRANCH   5  26
TORSDOF 9
ENDMDL
MODEL 2
REMARK VINA RESULT:      -7.0      3.853      7.899
REMARK  Name = 
REMARK  13 active torsions:
REMARK  status: ('A' for Active; 'I' for Inactive)
REMARK    1  A    between atoms: C_1  and  C_2
REMARK    2  A    between atoms: C_2  and  C_3
REMARK    3  A    between atoms: C_2  and  C_4
REMARK    4  A    between atoms: C_4  and  C_5
REMARK    5  A    between atoms: C_4  and  C_6
REMARK    6  A    between atoms: C_4  and  N_8
REMARK    7  A    between atoms: C_6  and  O_7
REMARK    8  A    between atoms: C_10  and  C_30
REMARK    9  A    between atoms: C_16  and  O_28
REMARK   10  A    between atoms: C_17  and  C_19
REMARK   11  A    between atoms: C_19  and  C_20
REMARK   12  A    between atoms: O_28  and  C_29
REMARK   13  A    between atoms: C_30  and  O_32
REMARK                            x       y       z     vdW  Elec       q    Type
REMARK                         _______ _______ _______ _____ _____    ______ ____
ROOT
ATOM      1  N   UNL     1       8.326   2.103  24.904  0.00  0.00    -0.337 N 
ATOM      2  C   UNL     1       8.490   0.717  25.195  0.00  0.00    +0.057 A 
ATOM      3  C   UNL     1       9.268  -0.193  24.481  0.00  0.00    +0.072 A 
ATOM      4  C   UNL     1       9.219  -1.596  24.666  0.00  0.00    +0.126 A 
ATOM      5  C   UNL     1       8.472  -2.144  25.707  0.00  0.00    -0.001 A 
ATOM      6  C   UNL     1       7.853  -1.243  26.573  0.00  0.00    +0.021 A 
ATOM      7  C   UNL     1       7.843   0.140  26.309  0.00  0.00    +0.047 A 
ATOM      8  C   UNL     1       7.130   0.981  27.282  0.00  0.00    +0.203 A 
ATOM      9  O   UNL     1       6.574   0.500  28.273  0.00  0.00    -0.286 OA
ATOM     10  C   UNL     1       7.110   2.421  27.052  0.00  0.00    +0.122 A 
ATOM     11  C   UNL     1       7.673   2.851  25.910  0.00  0.00    +0.105 A 
ENDROOT
BRANCH   1  12
ATOM     12  C   UNL     1       8.890   2.800  23.611  0.00  0.00    +0.068 C 
ATOM     13  C   UNL     1      10.414   2.538  23.501  0.00  0.00    +0.037 C 
BRANCH  12  15
ATOM     14  C   UNL     1       8.757   1.418  21.371  0.00  0.00    +0.009 C 
ATOM     15  C   UNL     1       8.063   2.480  22.269  0.00  0.00    +0.011 C 
ATOM     16  C   UNL     1       6.607   2.013  22.361  0.00  0.00    +0.009 C 
ENDBRANCH  12  15
BRANCH  12  17
ATOM     17  C   UNL     1       8.843   4.395  23.772  0.00  0.00    +0.184 C 
BRANCH  17  18
ATOM     18  O   UNL     1       8.412   5.105  22.610  0.00  0.00    -0.393 OA
ATOM     19  H   UNL     1       7.823   5.830  22.870  0.00  0.00    +0.209 HD
ENDBRANCH  17  18
ENDBRANCH  12  17
ENDBRANCH   1  12
BRANCH   4  20
ATOM     20  O   UNL     1      10.038  -2.289  23.814  0.00  0.00    -0.495 OA
ATOM     21  C   UNL     1      10.358  -1.644  22.587  0.00  0.00    +0.277 C 
ENDBRANCH   4  20
BRANCH  10  22
ATOM     22  C   UNL     1       6.508   3.374  28.011  0.00  0.00    +0.342 C 
ATOM     23  O   UNL     1       7.138   4.259  28.572  0.00  0.00    -0.245 OA
BRANCH  22  24
ATOM     24  O   UNL     1       5.187   3.187  28.240  0.00  0.00    -0.477 OA
ATOM     25  H   UNL     1       4.969   2.319  28.658  0.00  0.00    +0.295 HD
ENDBRANCH  22  24
ENDBRANCH  10  22
BRANCH   5  26
ATOM     26  C   UNL     1       8.301  -3.615  25.996  0.00  0.00    +0.077 C 
BRANCH  26  27
ATOM     27  C   UNL     1       7.092  -4.290  25.373  0.00  0.00    -0.006 A 
ATOM     28  C   UNL     1       5.851  -4.435  26.016  0.00  0.00    +0.007 A 
ATOM     29  C   UNL     1       4.794  -5.115  25.395  0.00  0.00    +0.002 A 
ATOM     30  C   UNL     1       4.963  -5.671  24.128  0.00  0.00    +0.023 A 
ATOM     31  C   UNL     1       6.192  -5.550  23.483  0.00  0.00    +0.076 A 
ATOM     32 CL   UNL     1       6.402  -6.242  21.921  0.00  0.00    -0.081 Cl
ATOM     33  C   UNL     1       7.243  -4.872  24.104  0.00  0.00    +0.145 A 
ATOM     34  F   UNL     1       8.424  -4.756  23.476  0.00  0.00    -0.204 F 
ENDBRANCH  26  27
ENDBRANCH   5  26
TORSDOF 9
ENDMDL
MODEL 3
REMARK VINA RESULT:      -6.9      4.165      7.843
REMARK  Name = 
REMARK  13 active torsions:
REMARK  status: ('A' for Active; 'I' for Inactive)
REMARK    1  A    between atoms: C_1  and  C_2
REMARK    2  A    between atoms: C_2  and  C_3
REMARK    3  A    between atoms: C_2  and  C_4
REMARK    4  A    between atoms: C_4  and  C_5
REMARK    5  A    between atoms: C_4  and  C_6
REMARK    6  A    between atoms: C_4  and  N_8
REMARK    7  A    between atoms: C_6  and  O_7
REMARK    8  A    between atoms: C_10  and  C_30
REMARK    9  A    between atoms: C_16  and  O_28
REMARK   10  A    between atoms: C_17  and  C_19
REMARK   11  A    between atoms: C_19  and  C_20
REMARK   12  A    between atoms: O_28  and  C_29
REMARK   13  A    between atoms: C_30  and  O_32
REMARK                            x       y       z     vdW  Elec       q    Type
REMARK                         _______ _______ _______ _____ _____    ______ ____
ROOT
ATOM      1  N   UNL     1       8.446   2.013  24.916  0.00  0.00    -0.337 N 
ATOM      2  C   UNL     1       8.513   0.604  25.129  0.00  0.00    +0.057 A 
ATOM      3  C   UNL     1       9.275  -0.308  24.399  0.00  0.00    +0.072 A 
ATOM      4  C   UNL     1       9.135  -1.714  24.494  0.00  0.00    +0.126 A 
ATOM      5  C   UNL     1       8.303  -2.275  25.460  0.00  0.00    -0.001 A 
ATOM      6  C   UNL     1       7.691  -1.391  26.348  0.00  0.00    +0.021 A 
ATOM      7  C   UNL     1       7.775   0.003  26.170  0.00  0.00    +0.047 A 
ATOM      8  C   UNL     1       7.060   0.827  27.157  0.00  0.00    +0.203 A 
ATOM      9  O   UNL     1       6.424   0.324  28.086  0.00  0.00    -0.286 OA
ATOM     10  C   UNL     1       7.135   2.277  27.015  0.00  0.00    +0.122 A 
ATOM     11  C   UNL     1       7.784   2.738  25.933  0.00  0.00    +0.105 A 
ENDROOT
BRANCH   1  12
ATOM     12  C   UNL     1       9.118   2.749  23.699  0.00  0.00    +0.068 C 
ATOM     13  C   UNL     1      10.620   2.374  23.630  0.00  0.00    +0.037 C 
BRANCH  12  15
ATOM     14  C   UNL     1       8.905   1.452  21.415  0.00  0.00    +0.009 C 
ATOM     15  C   UNL     1       8.330   2.588  22.306  0.00  0.00    +0.011 C 
ATOM     16  C   UNL     1       6.817   2.347  22.308  0.00  0.00    +0.009 C 
ENDBRANCH  12  15
BRANCH  12  17
ATOM     17  C   UNL     1       9.186   4.328  23.971  0.00  0.00    +0.184 C 
BRANCH  17  18
ATOM     18  O   UNL     1      10.287   4.998  23.355  0.00  0.00    -0.393 OA
ATOM     19  H   UNL     1      10.071   5.200  22.431  0.00  0.00    +0.209 HD
ENDBRANCH  17  18
ENDBRANCH  12  17
ENDBRANCH   1  12
BRANCH   4  20
ATOM     20  O   UNL     1       9.958  -2.404  23.644  0.00  0.00    -0.495 OA
ATOM     21  C   UNL     1      10.563  -1.646  22.602  0.00  0.00    +0.277 C 
ENDBRANCH   4  20
BRANCH  10  22
ATOM     22  C   UNL     1       6.538   3.207  28.000  0.00  0.00    +0.342 C 
ATOM     23  O   UNL     1       7.188   4.010  28.654  0.00  0.00    -0.245 OA
BRANCH  22  24
ATOM     24  O   UNL     1       5.196   3.095  28.140  0.00  0.00    -0.477 OA
ATOM     25  H   UNL     1       4.677   3.675  27.532  0.00  0.00    +0.295 HD
ENDBRANCH  22  24
ENDBRANCH  10  22
BRANCH   5  26
ATOM     26  C   UNL     1       8.032  -3.748  25.648  0.00  0.00    +0.077 C 
BRANCH  26  27
ATOM     27  C   UNL     1       7.302  -4.451  24.517  0.00  0.00    -0.006 A 
ATOM     28  C   UNL     1       7.942  -5.132  23.468  0.00  0.00    +0.007 A 
ATOM     29  C   UNL     1       7.200  -5.716  22.431  0.00  0.00    +0.002 A 
ATOM     30  C   UNL     1       5.810  -5.617  22.419  0.00  0.00    +0.023 A 
ATOM     31  C   UNL     1       5.160  -4.932  23.443  0.00  0.00    +0.076 A 
ATOM     32 CL   UNL     1       3.444  -4.806  23.426  0.00  0.00    -0.081 Cl
ATOM     33  C   UNL     1       5.902  -4.352  24.475  0.00  0.00    +0.145 A 
ATOM     34  F   UNL     1       5.270  -3.695  25.461  0.00  0.00    -0.204 F 
ENDBRANCH  26  27
ENDBRANCH   5  26
TORSDOF 9
ENDMDL
MODEL 4
REMARK VINA RESULT:      -6.8      0.880      1.509
REMARK  Name = 
REMARK  13 active torsions:
REMARK  status: ('A' for Active; 'I' for Inactive)
REMARK    1  A    between atoms: C_1  and  C_2
REMARK    2  A    between atoms: C_2  and  C_3
REMARK    3  A    between atoms: C_2  and  C_4
REMARK    4  A    between atoms: C_4  and  C_5
REMARK    5  A    between atoms: C_4  and  C_6
REMARK    6  A    between atoms: C_4  and  N_8
REMARK    7  A    between atoms: C_6  and  O_7
REMARK    8  A    between atoms: C_10  and  C_30
REMARK    9  A    between atoms: C_16  and  O_28
REMARK   10  A    between atoms: C_17  and  C_19
REMARK   11  A    between atoms: C_19  and  C_20
REMARK   12  A    between atoms: O_28  and  C_29
REMARK   13  A    between atoms: C_30  and  O_32
REMARK                            x       y       z     vdW  Elec       q    Type
REMARK                         _______ _______ _______ _____ _____    ______ ____
ROOT
ATOM      1  N   UNL     1       4.897  -4.149  26.462  0.00  0.00    -0.337 N 
ATOM      2  C   UNL     1       6.201  -3.820  25.989  0.00  0.00    +0.057 A 
ATOM      3  C   UNL     1       7.127  -2.991  26.622  0.00  0.00    +0.072 A 
ATOM      4  C   UNL     1       8.310  -2.510  26.011  0.00  0.00    +0.126 A 
ATOM      5  C   UNL     1       8.693  -2.975  24.755  0.00  0.00    -0.001 A 
ATOM      6  C   UNL     1       7.897  -3.969  24.187  0.00  0.00    +0.021 A 
ATOM      7  C   UNL     1       6.679  -4.358  24.775  0.00  0.00    +0.047 A 
ATOM      8  C   UNL     1       5.916  -5.395  24.062  0.00  0.00    +0.203 A 
ATOM      9  O   UNL     1       6.323  -5.893  23.010  0.00  0.00    -0.286 OA
ATOM     10  C   UNL     1       4.655  -5.836  24.648  0.00  0.00    +0.122 A 
ATOM     11  C   UNL     1       4.251  -5.187  25.752  0.00  0.00    +0.105 A 
ENDROOT
BRANCH   1  12
ATOM     12  C   UNL     1       4.230  -3.489  27.724  0.00  0.00    +0.068 C 
ATOM     13  C   UNL     1       4.616  -4.288  28.995  0.00  0.00    +0.037 C 
BRANCH  12  15
ATOM     14  C   UNL     1       3.728  -1.101  26.732  0.00  0.00    +0.009 C 
ATOM     15  C   UNL     1       4.459  -1.901  27.844  0.00  0.00    +0.011 C 
ATOM     16  C   UNL     1       4.097  -1.174  29.143  0.00  0.00    +0.009 C 
ENDBRANCH  12  15
BRANCH  12  17
ATOM     17  C   UNL     1       2.639  -3.690  27.683  0.00  0.00    +0.184 C 
BRANCH  17  18
ATOM     18  O   UNL     1       2.120  -4.593  28.660  0.00  0.00    -0.393 OA
ATOM     19  H   UNL     1       2.760  -4.697  29.381  0.00  0.00    +0.209 HD
ENDBRANCH  17  18
ENDBRANCH  12  17
ENDBRANCH   1  12
BRANCH   4  20
ATOM     20  O   UNL     1       9.038  -1.671  26.813  0.00  0.00    -0.495 OA
ATOM     21  C   UNL     1       8.398  -0.460  27.200  0.00  0.00    +0.277 C 
ENDBRANCH   4  20
BRANCH  10  22
ATOM     22  C   UNL     1       3.851  -6.938  24.074  0.00  0.00    +0.342 C 
ATOM     23  O   UNL     1       3.590  -7.970  24.674  0.00  0.00    -0.245 OA
BRANCH  22  24
ATOM     24  O   UNL     1       3.427  -6.725  22.805  0.00  0.00    -0.477 OA
ATOM     25  H   UNL     1       2.730  -7.356  22.502  0.00  0.00    +0.295 HD
ENDBRANCH  22  24
ENDBRANCH  10  22
BRANCH   5  26
ATOM     26  C   UNL     1       9.903  -2.523  23.974  0.00  0.00    +0.077 C 
BRANCH  26  27
ATOM     27  C   UNL     1       9.747  -1.247  23.165  0.00  0.00    -0.006 A 
ATOM     28  C   UNL     1       9.193  -1.193  21.875  0.00  0.00    +0.007 A 
ATOM     29  C   UNL     1       9.127   0.018  21.170  0.00  0.00    +0.002 A 
ATOM     30  C   UNL     1       9.624   1.189  21.737  0.00  0.00    +0.023 A 
ATOM     31  C   UNL     1      10.191   1.151  23.009  0.00  0.00    +0.076 A 
ATOM     32 CL   UNL     1      10.810   2.598  23.707  0.00  0.00    -0.081 Cl
ATOM     33  C   UNL     1      10.255  -0.056  23.709  0.00  0.00    +0.145 A 
ATOM     34  F   UNL     1      10.800  -0.086  24.935  0.00  0.00    -0.204 F 
ENDBRANCH  26  27
ENDBRANCH   5  26
TORSDOF 9
ENDMDL
MODEL 5
REMARK VINA RESULT:      -6.7      4.157      8.024
REMARK  Name = 
REMARK  13 active torsions:
REMARK  status: ('A' for Active; 'I' for Inactive)
REMARK    1  A    between atoms: C_1  and  C_2
REMARK    2  A    between atoms: C_2  and  C_3
REMARK    3  A    between atoms: C_2  and  C_4
REMARK    4  A    between atoms: C_4  and  C_5
REMARK    5  A    between atoms: C_4  and  C_6
REMARK    6  A    between atoms: C_4  and  N_8
REMARK    7  A    between atoms: C_6  and  O_7
REMARK    8  A    between atoms: C_10  and  C_30
REMARK    9  A    between atoms: C_16  and  O_28
REMARK   10  A    between atoms: C_17  and  C_19
REMARK   11  A    between atoms: C_19  and  C_20
REMARK   12  A    between atoms: O_28  and  C_29
REMARK   13  A    between atoms: C_30  and  O_32
REMARK                            x       y       z     vdW  Elec       q    Type
REMARK                         _______ _______ _______ _____ _____    ______ ____
ROOT
ATOM      1  N   UNL     1       8.016   1.904  24.775  0.00  0.00    -0.337 N 
ATOM      2  C   UNL     1       8.365   0.545  25.034  0.00  0.00    +0.057 A 
ATOM      3  C   UNL     1       9.116  -0.289  24.207  0.00  0.00    +0.072 A 
ATOM      4  C   UNL     1       9.241  -1.687  24.393  0.00  0.00    +0.126 A 
ATOM      5  C   UNL     1       8.721  -2.295  25.533  0.00  0.00    -0.001 A 
ATOM      6  C   UNL     1       8.151  -1.452  26.486  0.00  0.00    +0.021 A 
ATOM      7  C   UNL     1       7.957  -0.081  26.231  0.00  0.00    +0.047 A 
ATOM      8  C   UNL     1       7.316   0.694  27.304  0.00  0.00    +0.203 A 
ATOM      9  O   UNL     1       6.969   0.171  28.366  0.00  0.00    -0.286 OA
ATOM     10  C   UNL     1       7.112   2.122  27.084  0.00  0.00    +0.122 A 
ATOM     11  C   UNL     1       7.449   2.593  25.871  0.00  0.00    +0.105 A 
ENDROOT
BRANCH   1  12
ATOM     12  C   UNL     1       8.303   2.638  23.414  0.00  0.00    +0.068 C 
ATOM     13  C   UNL     1       7.625   1.867  22.253  0.00  0.00    +0.037 C 
BRANCH  12  15
ATOM     14  C   UNL     1       9.260   5.077  23.691  0.00  0.00    +0.009 C 
ATOM     15  C   UNL     1       7.993   4.216  23.432  0.00  0.00    +0.011 C 
ATOM     16  C   UNL     1       7.320   4.876  22.224  0.00  0.00    +0.009 C 
ENDBRANCH  12  15
BRANCH  12  17
ATOM     17  C   UNL     1       9.855   2.511  23.029  0.00  0.00    +0.184 C 
BRANCH  17  18
ATOM     18  O   UNL     1      10.113   2.236  21.651  0.00  0.00    -0.393 OA
ATOM     19  H   UNL     1      10.983   2.588  21.405  0.00  0.00    +0.209 HD
ENDBRANCH  17  18
ENDBRANCH  12  17
ENDBRANCH   1  12
BRANCH   4  20
ATOM     20  O   UNL     1       9.989  -2.303  23.425  0.00  0.00    -0.495 OA
ATOM     21  C   UNL     1      10.401  -1.486  22.335  0.00  0.00    +0.277 C 
ENDBRANCH   4  20
BRANCH  10  22
ATOM     22  C   UNL     1       6.567   3.020  28.126  0.00  0.00    +0.342 C 
ATOM     23  O   UNL     1       7.172   3.983  28.574  0.00  0.00    -0.245 OA
BRANCH  22  24
ATOM     24  O   UNL     1       5.332   2.687  28.568  0.00  0.00    -0.477 OA
ATOM     25  H   UNL     1       4.853   2.048  27.986  0.00  0.00    +0.295 HD
ENDBRANCH  22  24
ENDBRANCH  10  22
BRANCH   5  26
ATOM     26  C   UNL     1       8.750  -3.773  25.841  0.00  0.00    +0.077 C 
BRANCH  26  27
ATOM     27  C   UNL     1       7.519  -4.569  25.444  0.00  0.00    -0.006 A 
ATOM     28  C   UNL     1       6.968  -4.578  24.151  0.00  0.00    +0.007 A 
ATOM     29  C   UNL     1       5.799  -5.301  23.872  0.00  0.00    +0.002 A 
ATOM     30  C   UNL     1       5.156  -6.015  24.882  0.00  0.00    +0.023 A 
ATOM     31  C   UNL     1       5.680  -6.004  26.172  0.00  0.00    +0.076 A 
ATOM     32 CL   UNL     1       4.882  -6.881  27.421  0.00  0.00    -0.081 Cl
ATOM     33  C   UNL     1       6.845  -5.283  26.448  0.00  0.00    +0.145 A 
ATOM     34  F   UNL     1       7.346  -5.278  27.692  0.00  0.00    -0.204 F 
ENDBRANCH  26  27
ENDBRANCH   5  26
TORSDOF 9
ENDMDL
MODEL 6
REMARK VINA RESULT:      -6.6      3.844      7.308
REMARK  Name = 
REMARK  13 active torsions:
REMARK  status: ('A' for Active; 'I' for Inactive)
REMARK    1  A    between atoms: C_1  and  C_2
REMARK    2  A    between atoms: C_2  and  C_3
REMARK    3  A    between atoms: C_2  and  C_4
REMARK    4  A    between atoms: C_4  and  C_5
REMARK    5  A    between atoms: C_4  and  C_6
REMARK    6  A    between atoms: C_4  and  N_8
REMARK    7  A    between atoms: C_6  and  O_7
REMARK    8  A    between atoms: C_10  and  C_30
REMARK    9  A    between atoms: C_16  and  O_28
REMARK   10  A    between atoms: C_17  and  C_19
REMARK   11  A    between atoms: C_19  and  C_20
REMARK   12  A    between atoms: O_28  and  C_29
REMARK   13  A    between atoms: C_30  and  O_32
REMARK                            x       y       z     vdW  Elec       q    Type
REMARK                         _______ _______ _______ _____ _____    ______ ____
ROOT
ATOM      1  N   UNL     1       7.704   1.831  25.627  0.00  0.00    -0.337 N 
ATOM      2  C   UNL     1       7.610   0.409  25.574  0.00  0.00    +0.057 A 
ATOM      3  C   UNL     1       6.632  -0.379  26.181  0.00  0.00    +0.072 A 
ATOM      4  C   UNL     1       6.707  -1.788  26.297  0.00  0.00    +0.126 A 
ATOM      5  C   UNL     1       7.725  -2.493  25.658  0.00  0.00    -0.001 A 
ATOM      6  C   UNL     1       8.597  -1.750  24.863  0.00  0.00    +0.021 A 
ATOM      7  C   UNL     1       8.554  -0.343  24.844  0.00  0.00    +0.047 A 
ATOM      8  C   UNL     1       9.547   0.324  23.989  0.00  0.00    +0.203 A 
ATOM      9  O   UNL     1      10.369  -0.314  23.327  0.00  0.00    -0.286 OA
ATOM     10  C   UNL     1       9.525   1.782  23.930  0.00  0.00    +0.122 A 
ATOM     11  C   UNL     1       8.648   2.398  24.740  0.00  0.00    +0.105 A 
ENDROOT
BRANCH   1  12
ATOM     12  C   UNL     1       6.786   2.738  26.526  0.00  0.00    +0.068 C 
ATOM     13  C   UNL     1       7.374   4.170  26.593  0.00  0.00    +0.037 C 
BRANCH  12  15
ATOM     14  C   UNL     1       4.389   3.777  26.870  0.00  0.00    +0.009 C 
ATOM     15  C   UNL     1       5.222   2.681  26.151  0.00  0.00    +0.011 C 
ATOM     16  C   UNL     1       4.784   2.764  24.685  0.00  0.00    +0.009 C 
ENDBRANCH  12  15
BRANCH  12  17
ATOM     17  C   UNL     1       6.875   2.275  28.059  0.00  0.00    +0.184 C 
BRANCH  17  18
ATOM     18  O   UNL     1       7.572   3.176  28.920  0.00  0.00    -0.393 OA
ATOM     19  H   UNL     1       8.112   3.783  28.391  0.00  0.00    +0.209 HD
ENDBRANCH  17  18
ENDBRANCH  12  17
ENDBRANCH   1  12
BRANCH   4  20
ATOM     20  O   UNL     1       5.654  -2.338  26.977  0.00  0.00    -0.495 OA
ATOM     21  C   UNL     1       4.379  -2.234  26.352  0.00  0.00    +0.277 C 
ENDBRANCH   4  20
BRANCH  10  22
ATOM     22  C   UNL     1      10.409   2.558  23.033  0.00  0.00    +0.342 C 
ATOM     23  O   UNL     1      11.200   3.404  23.426  0.00  0.00    -0.245 OA
BRANCH  22  24
ATOM     24  O   UNL     1      10.270   2.271  21.717  0.00  0.00    -0.477 OA
ATOM     25  H   UNL     1      10.337   3.058  21.123  0.00  0.00    +0.295 HD
ENDBRANCH  22  24
ENDBRANCH  10  22
BRANCH   5  26
ATOM     26  C   UNL     1       7.947  -3.985  25.726  0.00  0.00    +0.077 C 
BRANCH  26  27
ATOM     27  C   UNL     1       6.882  -4.856  25.083  0.00  0.00    -0.006 A 
ATOM     28  C   UNL     1       5.924  -5.592  25.801  0.00  0.00    +0.007 A 
ATOM     29  C   UNL     1       5.003  -6.414  25.137  0.00  0.00    +0.002 A 
ATOM     30  C   UNL     1       5.032  -6.525  23.748  0.00  0.00    +0.023 A 
ATOM     31  C   UNL     1       5.985  -5.814  23.022  0.00  0.00    +0.076 A 
ATOM     32 CL   UNL     1       6.023  -5.955  21.307  0.00  0.00    -0.081 Cl
ATOM     33  C   UNL     1       6.901  -4.995  23.685  0.00  0.00    +0.145 A 
ATOM     34  F   UNL     1       7.816  -4.312  22.980  0.00  0.00    -0.204 F 
ENDBRANCH  26  27
ENDBRANCH   5  26
TORSDOF 9
ENDMDL
MODEL 7
REMARK VINA RESULT:      -6.5      1.705      4.259
REMARK  Name = 
REMARK  13 active torsions:
REMARK  status: ('A' for Active; 'I' for Inactive)
REMARK    1  A    between atoms: C_1  and  C_2
REMARK    2  A    between atoms: C_2  and  C_3
REMARK    3  A    between atoms: C_2  and  C_4
REMARK    4  A    between atoms: C_4  and  C_5
REMARK    5  A    between atoms: C_4  and  C_6
REMARK    6  A    between atoms: C_4  and  N_8
REMARK    7  A    between atoms: C_6  and  O_7
REMARK    8  A    between atoms: C_10  and  C_30
REMARK    9  A    between atoms: C_16  and  O_28
REMARK   10  A    between atoms: C_17  and  C_19
REMARK   11  A    between atoms: C_19  and  C_20
REMARK   12  A    between atoms: O_28  and  C_29
REMARK   13  A    between atoms: C_30  and  O_32
REMARK                            x       y       z     vdW  Elec       q    Type
REMARK                         _______ _______ _______ _____ _____    ______ ____
ROOT
ATOM      1  N   UNL     1       4.837  -4.208  26.899  0.00  0.00    -0.337 N 
ATOM      2  C   UNL     1       5.942  -3.846  26.073  0.00  0.00    +0.057 A 
ATOM      3  C   UNL     1       6.526  -4.631  25.080  0.00  0.00    +0.072 A 
ATOM      4  C   UNL     1       7.756  -4.327  24.448  0.00  0.00    +0.126 A 
ATOM      5  C   UNL     1       8.392  -3.112  24.693  0.00  0.00    -0.001 A 
ATOM      6  C   UNL     1       7.721  -2.212  25.520  0.00  0.00    +0.021 A 
ATOM      7  C   UNL     1       6.548  -2.578  26.205  0.00  0.00    +0.047 A 
ATOM      8  C   UNL     1       5.953  -1.549  27.071  0.00  0.00    +0.203 A 
ATOM      9  O   UNL     1       6.456  -0.428  27.188  0.00  0.00    -0.286 OA
ATOM     10  C   UNL     1       4.728  -1.886  27.788  0.00  0.00    +0.122 A 
ATOM     11  C   UNL     1       4.293  -3.151  27.664  0.00  0.00    +0.105 A 
ENDROOT
BRANCH   1  12
ATOM     12  C   UNL     1       4.192  -5.642  26.920  0.00  0.00    +0.068 C 
ATOM     13  C   UNL     1       3.377  -5.828  28.225  0.00  0.00    +0.037 C 
BRANCH  12  15
ATOM     14  C   UNL     1       3.684  -7.482  25.103  0.00  0.00    +0.009 C 
ATOM     15  C   UNL     1       3.392  -6.032  25.579  0.00  0.00    +0.011 C 
ATOM     16  C   UNL     1       1.866  -5.913  25.538  0.00  0.00    +0.009 C 
ENDBRANCH  12  15
BRANCH  12  17
ATOM     17  C   UNL     1       5.328  -6.762  27.081  0.00  0.00    +0.184 C 
BRANCH  17  18
ATOM     18  O   UNL     1       5.292  -7.484  28.312  0.00  0.00    -0.393 OA
ATOM     19  H   UNL     1       6.111  -7.993  28.417  0.00  0.00    +0.209 HD
ENDBRANCH  17  18
ENDBRANCH  12  17
ENDBRANCH   1  12
BRANCH   4  20
ATOM     20  O   UNL     1       8.153  -5.272  23.540  0.00  0.00    -0.495 OA
ATOM     21  C   UNL     1       7.232  -5.565  22.495  0.00  0.00    +0.277 C 
ENDBRANCH   4  20
BRANCH  10  22
ATOM     22  C   UNL     1       3.988  -0.902  28.610  0.00  0.00    +0.342 C 
ATOM     23  O   UNL     1       3.637  -1.110  29.762  0.00  0.00    -0.245 OA
BRANCH  22  24
ATOM     24  O   UNL     1       3.708   0.263  27.980  0.00  0.00    -0.477 OA
ATOM     25  H   UNL     1       2.939   0.752  28.360  0.00  0.00    +0.295 HD
ENDBRANCH  22  24
ENDBRANCH  10  22
BRANCH   5  26
ATOM     26  C   UNL     1       9.718  -2.675  24.121  0.00  0.00    +0.077 C 
BRANCH  26  27
ATOM     27  C   UNL     1       9.708  -1.410  23.280  0.00  0.00    -0.006 A 
ATOM     28  C   UNL     1       9.329  -1.365  21.928  0.00  0.00    +0.007 A 
ATOM     29  C   UNL     1       9.393  -0.166  21.203  0.00  0.00    +0.002 A 
ATOM     30  C   UNL     1       9.848   1.002  21.813  0.00  0.00    +0.023 A 
ATOM     31  C   UNL     1      10.242   0.971  23.148  0.00  0.00    +0.076 A 
ATOM     32 CL   UNL     1      10.808   2.412  23.901  0.00  0.00    -0.081 Cl
ATOM     33  C   UNL     1      10.177  -0.224  23.869  0.00  0.00    +0.145 A 
ATOM     34  F   UNL     1      10.556  -0.248  25.156  0.00  0.00    -0.204 F 
ENDBRANCH  26  27
ENDBRANCH   5  26
TORSDOF 9
ENDMDL
MODEL 8
REMARK VINA RESULT:      -6.4      3.990      7.899
REMARK  Name = 
REMARK  13 active torsions:
REMARK  status: ('A' for Active; 'I' for Inactive)
REMARK    1  A    between atoms: C_1  and  C_2
REMARK    2  A    between atoms: C_2  and  C_3
REMARK    3  A    between atoms: C_2  and  C_4
REMARK    4  A    between atoms: C_4  and  C_5
REMARK    5  A    between atoms: C_4  and  C_6
REMARK    6  A    between atoms: C_4  and  N_8
REMARK    7  A    between atoms: C_6  and  O_7
REMARK    8  A    between atoms: C_10  and  C_30
REMARK    9  A    between atoms: C_16  and  O_28
REMARK   10  A    between atoms: C_17  and  C_19
REMARK   11  A    between atoms: C_19  and  C_20
REMARK   12  A    between atoms: O_28  and  C_29
REMARK   13  A    between atoms: C_30  and  O_32
REMARK                            x       y       z     vdW  Elec       q    Type
REMARK                         _______ _______ _______ _____ _____    ______ ____
ROOT
ATOM      1  N   UNL     1       8.124   0.466  24.383  0.00  0.00    -0.337 N 
ATOM      2  C   UNL     1       7.876  -0.915  24.636  0.00  0.00    +0.057 A 
ATOM      3  C   UNL     1       8.798  -1.956  24.529  0.00  0.00    +0.072 A 
ATOM      4  C   UNL     1       8.454  -3.329  24.564  0.00  0.00    +0.126 A 
ATOM      5  C   UNL     1       7.151  -3.720  24.864  0.00  0.00    -0.001 A 
ATOM      6  C   UNL     1       6.252  -2.705  25.188  0.00  0.00    +0.021 A 
ATOM      7  C   UNL     1       6.599  -1.347  25.053  0.00  0.00    +0.047 A 
ATOM      8  C   UNL     1       5.552  -0.373  25.398  0.00  0.00    +0.203 A 
ATOM      9  O   UNL     1       4.435  -0.728  25.782  0.00  0.00    -0.286 OA
ATOM     10  C   UNL     1       5.877   1.044  25.285  0.00  0.00    +0.122 A 
ATOM     11  C   UNL     1       7.089   1.341  24.786  0.00  0.00    +0.105 A 
ENDROOT
BRANCH   1  12
ATOM     12  C   UNL     1       9.468   1.019  23.781  0.00  0.00    +0.068 C 
ATOM     13  C   UNL     1      10.671   0.394  24.532  0.00  0.00    +0.037 C 
BRANCH  12  15
ATOM     14  C   UNL     1       9.940  -0.493  21.676  0.00  0.00    +0.009 C 
ATOM     15  C   UNL     1       9.566   0.929  22.178  0.00  0.00    +0.011 C 
ATOM     16  C   UNL     1       8.369   1.339  21.315  0.00  0.00    +0.009 C 
ENDBRANCH  12  15
BRANCH  12  17
ATOM     17  C   UNL     1       9.636   2.575  24.132  0.00  0.00    +0.184 C 
BRANCH  17  18
ATOM     18  O   UNL     1      10.335   3.342  23.151  0.00  0.00    -0.393 OA
ATOM     19  H   UNL     1      10.110   3.020  22.264  0.00  0.00    +0.209 HD
ENDBRANCH  17  18
ENDBRANCH  12  17
ENDBRANCH   1  12
BRANCH   4  20
ATOM     20  O   UNL     1       9.524  -4.166  24.389  0.00  0.00    -0.495 OA
ATOM     21  C   UNL     1       9.940  -4.901  25.534  0.00  0.00    +0.277 C 
ENDBRANCH   4  20
BRANCH  10  22
ATOM     22  C   UNL     1       4.940   2.113  25.695  0.00  0.00    +0.342 C 
ATOM     23  O   UNL     1       5.171   2.909  26.594  0.00  0.00    -0.245 OA
BRANCH  22  24
ATOM     24  O   UNL     1       3.778   2.142  25.001  0.00  0.00    -0.477 OA
ATOM     25  H   UNL     1       3.339   3.027  24.984  0.00  0.00    +0.295 HD
ENDBRANCH  22  24
ENDBRANCH  10  22
BRANCH   5  26
ATOM     26  C   UNL     1       6.639  -5.139  24.898  0.00  0.00    +0.077 C 
BRANCH  26  27
ATOM     27  C   UNL     1       6.028  -5.606  26.208  0.00  0.00    -0.006 A 
ATOM     28  C   UNL     1       6.727  -5.670  27.426  0.00  0.00    +0.007 A 
ATOM     29  C   UNL     1       6.108  -6.158  28.586  0.00  0.00    +0.002 A 
ATOM     30  C   UNL     1       4.787  -6.603  28.544  0.00  0.00    +0.023 A 
ATOM     31  C   UNL     1       4.085  -6.561  27.342  0.00  0.00    +0.076 A 
ATOM     32 CL   UNL     1       2.456  -7.114  27.290  0.00  0.00    -0.081 Cl
ATOM     33  C   UNL     1       4.704  -6.073  26.188  0.00  0.00    +0.145 A 
ATOM     34  F   UNL     1       4.022  -6.033  25.033  0.00  0.00    -0.204 F 
ENDBRANCH  26  27
ENDBRANCH   5  26
TORSDOF 9
ENDMDL
MODEL 9
REMARK VINA RESULT:      -6.3      2.287      3.264
REMARK  Name = 
REMARK  13 active torsions:
REMARK  status: ('A' for Active; 'I' for Inactive)
REMARK    1  A    between atoms: C_1  and  C_2
REMARK    2  A    between atoms: C_2  and  C_3
REMARK    3  A    between atoms: C_2  and  C_4
REMARK    4  A    between atoms: C_4  and  C_5
REMARK    5  A    between atoms: C_4  and  C_6
REMARK    6  A    between atoms: C_4  and  N_8
REMARK    7  A    between atoms: C_6  and  O_7
REMARK    8  A    between atoms: C_10  and  C_30
REMARK    9  A    between atoms: C_16  and  O_28
REMARK   10  A    between atoms: C_17  and  C_19
REMARK   11  A    between atoms: C_19  and  C_20
REMARK   12  A    between atoms: O_28  and  C_29
REMARK   13  A    between atoms: C_30  and  O_32
REMARK                            x       y       z     vdW  Elec       q    Type
REMARK                         _______ _______ _______ _____ _____    ______ ____
ROOT
ATOM      1  N   UNL     1       6.400  -4.195  25.415  0.00  0.00    -0.337 N 
ATOM      2  C   UNL     1       7.263  -3.062  25.344  0.00  0.00    +0.057 A 
ATOM      3  C   UNL     1       7.723  -2.303  26.420  0.00  0.00    +0.072 A 
ATOM      4  C   UNL     1       8.384  -1.058  26.288  0.00  0.00    +0.126 A 
ATOM      5  C   UNL     1       8.749  -0.584  25.029  0.00  0.00    -0.001 A 
ATOM      6  C   UNL     1       8.492  -1.425  23.947  0.00  0.00    +0.021 A 
ATOM      7  C   UNL     1       7.751  -2.612  24.099  0.00  0.00    +0.047 A 
ATOM      8  C   UNL     1       7.522  -3.395  22.875  0.00  0.00    +0.203 A 
ATOM      9  O   UNL     1       7.955  -3.031  21.779  0.00  0.00    -0.286 OA
ATOM     10  C   UNL     1       6.771  -4.640  22.994  0.00  0.00    +0.122 A 
ATOM     11  C   UNL     1       6.270  -4.921  24.209  0.00  0.00    +0.105 A 
ENDROOT
BRANCH   1  12
ATOM     12  C   UNL     1       5.697  -4.681  26.735  0.00  0.00    +0.068 C 
ATOM     13  C   UNL     1       6.746  -5.322  27.678  0.00  0.00    +0.037 C 
BRANCH  12  15
ATOM     14  C   UNL     1       3.535  -3.183  26.570  0.00  0.00    +0.009 C 
ATOM     15  C   UNL     1       4.763  -3.574  27.437  0.00  0.00    +0.011 C 
ATOM     16  C   UNL     1       4.183  -3.837  28.830  0.00  0.00    +0.009 C 
ENDBRANCH  12  15
BRANCH  12  17
ATOM     17  C   UNL     1       4.730  -5.923  26.428  0.00  0.00    +0.184 C 
BRANCH  17  18
ATOM     18  O   UNL     1       5.089  -7.141  27.079  0.00  0.00    -0.393 OA
ATOM     19  H   UNL     1       5.418  -7.778  26.425  0.00  0.00    +0.209 HD
ENDBRANCH  17  18
ENDBRANCH  12  17
ENDBRANCH   1  12
BRANCH   4  20
ATOM     20  O   UNL     1       8.698  -0.476  27.487  0.00  0.00    -0.495 OA
ATOM     21  C   UNL     1       7.674   0.304  28.093  0.00  0.00    +0.277 C 
ENDBRANCH   4  20
BRANCH  10  22
ATOM     22  C   UNL     1       6.561  -5.557  21.852  0.00  0.00    +0.342 C 
ATOM     23  O   UNL     1       6.820  -6.752  21.886  0.00  0.00    -0.245 OA
BRANCH  22  24
ATOM     24  O   UNL     1       6.066  -4.968  20.738  0.00  0.00    -0.477 OA
ATOM     25  H   UNL     1       6.650  -4.267  20.359  0.00  0.00    +0.295 HD
ENDBRANCH  22  24
ENDBRANCH  10  22
BRANCH   5  26
ATOM     26  C   UNL     1       9.420   0.736  24.740  0.00  0.00    +0.077 C 
BRANCH  26  27
ATOM     27  C   UNL     1       8.615   1.742  23.937  0.00  0.00    -0.006 A 
ATOM     28  C   UNL     1       8.584   1.787  22.532  0.00  0.00    +0.007 A 
ATOM     29  C   UNL     1       7.855   2.778  21.860  0.00  0.00    +0.002 A 
ATOM     30  C   UNL     1       7.156   3.746  22.579  0.00  0.00    +0.023 A 
ATOM     31  C   UNL     1       7.189   3.726  23.971  0.00  0.00    +0.076 A 
ATOM     32 CL   UNL     1       6.330   4.925  24.858  0.00  0.00    -0.081 Cl
ATOM     33  C   UNL     1       7.916   2.737  24.639  0.00  0.00    +0.145 A 
ATOM     34  F   UNL     1       7.942   2.722  25.980  0.00  0.00    -0.204 F 
ENDBRANCH  26  27
ENDBRANCH   5  26
TORSDOF 9
ENDMDL
