MODEL 1
REMARK VINA RESULT:      -7.0      0.000      0.000
REMARK  Name = 
REMARK  11 active torsions:
REMARK  status: ('A' for Active; 'I' for Inactive)
REMARK    1  A    between atoms: C_1  and  C_2
REMARK    2  A    between atoms: C_2  and  C_3
REMARK    3  A    between atoms: C_2  and  C_4
REMARK    4  A    between atoms: C_2  and  C_5
REMARK    5  A    between atoms: C_7  and  N_28
REMARK    6  A    between atoms: C_9  and  C_13
REMARK    7  A    between atoms: C_10  and  O_11
REMARK    8  A    between atoms: O_11  and  C_12
REMARK    9  A    between atoms: C_20  and  N_23
REMARK   10  A    between atoms: N_23  and  S_24
REMARK   11  A    between atoms: S_24  and  C_27
REMARK                            x       y       z     vdW  Elec       q    Type
REMARK                         _______ _______ _______ _____ _____    ______ ____
ROOT
ATOM      1  C   UNL     1       2.915  -5.964  28.042  0.00  0.00    +0.002 A 
ATOM      2  C   UNL     1       4.122  -5.277  27.742  0.00  0.00    +0.132 A 
ATOM      3  C   UNL     1       4.446  -4.934  26.382  0.00  0.00    +0.026 A 
ATOM      4  C   UNL     1       3.586  -5.390  25.341  0.00  0.00    +0.035 A 
ATOM      5  C   UNL     1       2.473  -6.183  25.577  0.00  0.00    +0.039 A 
ATOM      6  C   UNL     1       2.142  -6.378  26.918  0.00  0.00    +0.031 A 
ENDROOT
BRANCH   3   7
ATOM      7  C   UNL     1       5.637  -4.121  25.970  0.00  0.00    -0.014 A 
ATOM      8  C   UNL     1       6.280  -3.237  26.848  0.00  0.00    +0.009 A 
ATOM      9  C   UNL     1       7.368  -2.451  26.442  0.00  0.00    +0.009 A 
ATOM     10  C   UNL     1       7.783  -2.444  25.116  0.00  0.00    -0.016 A 
ATOM     11  C   UNL     1       8.808  -1.587  24.676  0.00  0.00    +0.033 A 
ATOM     12  C   UNL     1       9.135  -1.509  23.326  0.00  0.00    +0.048 A 
ATOM     13  C   UNL     1       8.442  -2.272  22.395  0.00  0.00    +0.025 A 
ATOM     14  C   UNL     1       7.452  -3.159  22.822  0.00  0.00    +0.010 A 
ATOM     15  C   UNL     1       7.118  -3.258  24.181  0.00  0.00    -0.017 A 
ATOM     16  C   UNL     1       6.104  -4.119  24.636  0.00  0.00    +0.017 A 
BRANCH  12  17
ATOM     17  N   UNL     1      10.109  -0.565  22.891  0.00  0.00    -0.221 N 
ATOM     18  H   UNL     1      10.570  -0.797  22.008  0.00  0.00    +0.173 HD
BRANCH  17  19
ATOM     19  S   UNL     1       9.622   1.057  22.839  0.00  0.00    +0.040 S 
ATOM     20  C   UNL     1      10.532   1.748  24.201  0.00  0.00    +0.218 C 
ATOM     21  O   UNL     1       8.206   1.173  23.102  0.00  0.00    -0.155 OA
ATOM     22  O   UNL     1      10.204   1.580  21.621  0.00  0.00    -0.155 OA
ENDBRANCH  17  19
ENDBRANCH  12  17
ENDBRANCH   3   7
BRANCH   5  23
ATOM     23  N   UNL     1       1.730  -6.841  24.528  0.00  0.00    -0.255 N 
ATOM     24  C   UNL     1       2.021  -8.143  24.102  0.00  0.00    +0.313 C 
ATOM     25  O   UNL     1       2.678  -8.985  24.709  0.00  0.00    -0.252 OA
ATOM     26  N   UNL     1       1.518  -8.492  22.870  0.00  0.00    -0.240 N 
ATOM     27  H   UNL     1       1.743  -9.428  22.565  0.00  0.00    +0.159 HD
ATOM     28  C   UNL     1       0.915  -7.683  21.948  0.00  0.00    +0.222 C 
ATOM     29  O   UNL     1       0.591  -8.099  20.839  0.00  0.00    -0.275 OA
ATOM     30  C   UNL     1       0.758  -6.249  22.350  0.00  0.00    +0.115 C 
ATOM     31  C   UNL     1       0.622  -6.163  23.859  0.00  0.00    +0.124 C 
ENDBRANCH   5  23
BRANCH   1  33
ATOM     32  C   UNL     1       0.795  -6.767  29.342  0.00  0.00    +0.015 C 
ATOM     33  C   UNL     1       2.271  -6.255  29.435  0.00  0.00    -0.009 C 
ATOM     34  C   UNL     1       2.928  -7.340  30.309  0.00  0.00    +0.015 C 
ATOM     35  C   UNL     1       2.256  -4.912  30.210  0.00  0.00    +0.015 C 
ENDBRANCH   1  33
BRANCH   2  36
ATOM     36  O   UNL     1       5.163  -5.192  28.641  0.00  0.00    -0.494 OA
ATOM     37  C   UNL     1       6.007  -6.320  28.829  0.00  0.00    +0.277 C 
ENDBRANCH   2  36
TORSDOF 6
ENDMDL
MODEL 2
REMARK VINA RESULT:      -6.9      4.041      9.767
REMARK  Name = 
REMARK  11 active torsions:
REMARK  status: ('A' for Active; 'I' for Inactive)
REMARK    1  A    between atoms: C_1  and  C_2
REMARK    2  A    between atoms: C_2  and  C_3
REMARK    3  A    between atoms: C_2  and  C_4
REMARK    4  A    between atoms: C_2  and  C_5
REMARK    5  A    between atoms: C_7  and  N_28
REMARK    6  A    between atoms: C_9  and  C_13
REMARK    7  A    between atoms: C_10  and  O_11
REMARK    8  A    between atoms: O_11  and  C_12
REMARK    9  A    between atoms: C_20  and  N_23
REMARK   10  A    between atoms: N_23  and  S_24
REMARK   11  A    between atoms: S_24  and  C_27
REMARK                            x       y       z     vdW  Elec       q    Type
REMARK                         _______ _______ _______ _____ _____    ______ ____
ROOT
ATOM      1  C   UNL     1       8.708   0.821  24.119  0.00  0.00    +0.002 A 
ATOM      2  C   UNL     1       8.239  -0.479  23.785  0.00  0.00    +0.132 A 
ATOM      3  C   UNL     1       7.009  -0.976  24.344  0.00  0.00    +0.026 A 
ATOM      4  C   UNL     1       6.332  -0.182  25.314  0.00  0.00    +0.035 A 
ATOM      5  C   UNL     1       6.827   1.029  25.775  0.00  0.00    +0.039 A 
ATOM      6  C   UNL     1       7.952   1.515  25.110  0.00  0.00    +0.031 A 
ENDROOT
BRANCH   3   7
ATOM      7  C   UNL     1       6.375  -2.284  23.976  0.00  0.00    -0.014 A 
ATOM      8  C   UNL     1       5.947  -2.569  22.672  0.00  0.00    +0.009 A 
ATOM      9  C   UNL     1       5.319  -3.779  22.346  0.00  0.00    +0.009 A 
ATOM     10  C   UNL     1       5.002  -4.703  23.334  0.00  0.00    -0.016 A 
ATOM     11  C   UNL     1       4.285  -5.875  23.034  0.00  0.00    +0.033 A 
ATOM     12  C   UNL     1       3.876  -6.734  24.050  0.00  0.00    +0.048 A 
ATOM     13  C   UNL     1       4.164  -6.434  25.375  0.00  0.00    +0.025 A 
ATOM     14  C   UNL     1       4.914  -5.298  25.684  0.00  0.00    +0.010 A 
ATOM     15  C   UNL     1       5.343  -4.427  24.670  0.00  0.00    -0.017 A 
ATOM     16  C   UNL     1       6.071  -3.259  24.954  0.00  0.00    +0.017 A 
BRANCH  12  17
ATOM     17  N   UNL     1       3.069  -7.864  23.734  0.00  0.00    -0.221 N 
ATOM     18  H   UNL     1       3.393  -8.750  24.129  0.00  0.00    +0.173 HD
BRANCH  17  19
ATOM     19  S   UNL     1       1.407  -7.715  24.030  0.00  0.00    +0.040 S 
ATOM     20  C   UNL     1       0.719  -8.643  22.679  0.00  0.00    +0.218 C 
ATOM     21  O   UNL     1       0.992  -6.335  23.923  0.00  0.00    -0.155 OA
ATOM     22  O   UNL     1       1.176  -8.476  25.240  0.00  0.00    -0.155 OA
ENDBRANCH  17  19
ENDBRANCH  12  17
ENDBRANCH   3   7
BRANCH   5  23
ATOM     23  N   UNL     1       6.281   1.728  26.914  0.00  0.00    -0.255 N 
ATOM     24  C   UNL     1       6.608   1.388  28.233  0.00  0.00    +0.313 C 
ATOM     25  O   UNL     1       7.569   0.719  28.603  0.00  0.00    -0.252 OA
ATOM     26  N   UNL     1       5.744   1.853  29.198  0.00  0.00    -0.240 N 
ATOM     27  H   UNL     1       5.980   1.593  30.145  0.00  0.00    +0.159 HD
ATOM     28  C   UNL     1       4.533   2.460  29.020  0.00  0.00    +0.222 C 
ATOM     29  O   UNL     1       3.809   2.746  29.970  0.00  0.00    -0.275 OA
ATOM     30  C   UNL     1       4.117   2.670  27.597  0.00  0.00    +0.115 C 
ATOM     31  C   UNL     1       5.353   2.841  26.734  0.00  0.00    +0.124 C 
ENDBRANCH   5  23
BRANCH   1  33
ATOM     32  C   UNL     1       9.988   1.473  21.937  0.00  0.00    +0.015 C 
ATOM     33  C   UNL     1       9.885   1.631  23.491  0.00  0.00    -0.009 C 
ATOM     34  C   UNL     1       9.859   3.163  23.652  0.00  0.00    +0.015 C 
ATOM     35  C   UNL     1      11.193   1.073  24.109  0.00  0.00    +0.015 C 
ENDBRANCH   1  33
BRANCH   2  36
ATOM     36  O   UNL     1       9.052  -1.425  23.199  0.00  0.00    -0.494 OA
ATOM     37  C   UNL     1       9.816  -2.289  24.031  0.00  0.00    +0.277 C 
ENDBRANCH   2  36
TORSDOF 6
ENDMDL
MODEL 3
REMARK VINA RESULT:      -6.8      4.157      9.944
REMARK  Name = 
REMARK  11 active torsions:
REMARK  status: ('A' for Active; 'I' for Inactive)
REMARK    1  A    between atoms: C_1  and  C_2
REMARK    2  A    between atoms: C_2  and  C_3
REMARK    3  A    between atoms: C_2  and  C_4
REMARK    4  A    between atoms: C_2  and  C_5
REMARK    5  A    between atoms: C_7  and  N_28
REMARK    6  A    between atoms: C_9  and  C_13
REMARK    7  A    between atoms: C_10  and  O_11
REMARK    8  A    between atoms: O_11  and  C_12
REMARK    9  A    between atoms: C_20  and  N_23
REMARK   10  A    between atoms: N_23  and  S_24
REMARK   11  A    between atoms: S_24  and  C_27
REMARK                            x       y       z     vdW  Elec       q    Type
REMARK                         _______ _______ _______ _____ _____    ______ ____
ROOT
ATOM      1  C   UNL     1       8.513   0.942  23.937  0.00  0.00    +0.002 A 
ATOM      2  C   UNL     1       8.104  -0.408  23.772  0.00  0.00    +0.132 A 
ATOM      3  C   UNL     1       6.739  -0.792  24.018  0.00  0.00    +0.026 A 
ATOM      4  C   UNL     1       5.839   0.187  24.530  0.00  0.00    +0.035 A 
ATOM      5  C   UNL     1       6.229   1.481  24.840  0.00  0.00    +0.039 A 
ATOM      6  C   UNL     1       7.528   1.827  24.465  0.00  0.00    +0.031 A 
ENDROOT
BRANCH   3   7
ATOM      7  C   UNL     1       6.182  -2.162  23.772  0.00  0.00    -0.014 A 
ATOM      8  C   UNL     1       5.862  -2.621  22.486  0.00  0.00    +0.009 A 
ATOM      9  C   UNL     1       5.304  -3.888  22.269  0.00  0.00    +0.009 A 
ATOM     10  C   UNL     1       4.951  -4.702  23.340  0.00  0.00    -0.016 A 
ATOM     11  C   UNL     1       4.302  -5.932  23.139  0.00  0.00    +0.033 A 
ATOM     12  C   UNL     1       3.853  -6.681  24.222  0.00  0.00    +0.048 A 
ATOM     13  C   UNL     1       4.032  -6.212  25.517  0.00  0.00    +0.025 A 
ATOM     14  C   UNL     1       4.714  -5.014  25.733  0.00  0.00    +0.010 A 
ATOM     15  C   UNL     1       5.184  -4.252  24.652  0.00  0.00    -0.017 A 
ATOM     16  C   UNL     1       5.845  -3.026  24.839  0.00  0.00    +0.017 A 
BRANCH  12  17
ATOM     17  N   UNL     1       3.113  -7.876  23.994  0.00  0.00    -0.221 N 
ATOM     18  H   UNL     1       3.318  -8.642  24.641  0.00  0.00    +0.173 HD
BRANCH  17  19
ATOM     19  S   UNL     1       1.431  -7.714  23.863  0.00  0.00    +0.040 S 
ATOM     20  C   UNL     1       1.189  -7.909  22.112  0.00  0.00    +0.218 C 
ATOM     21  O   UNL     1       1.015  -6.389  24.258  0.00  0.00    -0.155 OA
ATOM     22  O   UNL     1       0.893  -8.893  24.507  0.00  0.00    -0.155 OA
ENDBRANCH  17  19
ENDBRANCH  12  17
ENDBRANCH   3   7
BRANCH   5  23
ATOM     23  N   UNL     1       5.397   2.408  25.570  0.00  0.00    -0.255 N 
ATOM     24  C   UNL     1       4.270   3.015  25.003  0.00  0.00    +0.313 C 
ATOM     25  O   UNL     1       3.666   2.650  23.997  0.00  0.00    -0.252 OA
ATOM     26  N   UNL     1       3.812   4.141  25.649  0.00  0.00    -0.240 N 
ATOM     27  H   UNL     1       3.006   4.579  25.226  0.00  0.00    +0.159 HD
ATOM     28  C   UNL     1       4.410   4.826  26.668  0.00  0.00    +0.222 C 
ATOM     29  O   UNL     1       3.943   5.877  27.099  0.00  0.00    -0.275 OA
ATOM     30  C   UNL     1       5.706   4.258  27.158  0.00  0.00    +0.115 C 
ATOM     31  C   UNL     1       5.702   2.754  26.956  0.00  0.00    +0.124 C 
ENDBRANCH   5  23
BRANCH   1  33
ATOM     32  C   UNL     1       9.930   3.138  23.896  0.00  0.00    +0.015 C 
ATOM     33  C   UNL     1       9.866   1.614  23.541  0.00  0.00    -0.009 C 
ATOM     34  C   UNL     1      11.147   1.080  24.210  0.00  0.00    +0.015 C 
ATOM     35  C   UNL     1       9.998   1.483  22.002  0.00  0.00    +0.015 C 
ENDBRANCH   1  33
BRANCH   2  36
ATOM     36  O   UNL     1       9.009  -1.445  23.691  0.00  0.00    -0.494 OA
ATOM     37  C   UNL     1       9.437  -1.889  22.411  0.00  0.00    +0.277 C 
ENDBRANCH   2  36
TORSDOF 6
ENDMDL
MODEL 4
REMARK VINA RESULT:      -6.7      3.733      6.285
REMARK  Name = 
REMARK  11 active torsions:
REMARK  status: ('A' for Active; 'I' for Inactive)
REMARK    1  A    between atoms: C_1  and  C_2
REMARK    2  A    between atoms: C_2  and  C_3
REMARK    3  A    between atoms: C_2  and  C_4
REMARK    4  A    between atoms: C_2  and  C_5
REMARK    5  A    between atoms: C_7  and  N_28
REMARK    6  A    between atoms: C_9  and  C_13
REMARK    7  A    between atoms: C_10  and  O_11
REMARK    8  A    between atoms: O_11  and  C_12
REMARK    9  A    between atoms: C_20  and  N_23
REMARK   10  A    between atoms: N_23  and  S_24
REMARK   11  A    between atoms: S_24  and  C_27
REMARK                            x       y       z     vdW  Elec       q    Type
REMARK                         _______ _______ _______ _____ _____    ______ ____
ROOT
ATOM      1  C   UNL     1       6.548  -4.690  23.819  0.00  0.00    +0.002 A 
ATOM      2  C   UNL     1       7.187  -3.461  23.500  0.00  0.00    +0.132 A 
ATOM      3  C   UNL     1       7.568  -2.544  24.542  0.00  0.00    +0.026 A 
ATOM      4  C   UNL     1       7.196  -2.847  25.884  0.00  0.00    +0.035 A 
ATOM      5  C   UNL     1       6.449  -3.965  26.225  0.00  0.00    +0.039 A 
ATOM      6  C   UNL     1       6.218  -4.876  25.194  0.00  0.00    +0.031 A 
ENDROOT
BRANCH   3   7
ATOM      7  C   UNL     1       8.338  -1.277  24.322  0.00  0.00    -0.014 A 
ATOM      8  C   UNL     1       9.648  -1.105  24.790  0.00  0.00    +0.009 A 
ATOM      9  C   UNL     1      10.346   0.097  24.614  0.00  0.00    +0.009 A 
ATOM     10  C   UNL     1       9.722   1.206  24.056  0.00  0.00    -0.016 A 
ATOM     11  C   UNL     1      10.379   2.445  23.964  0.00  0.00    +0.033 A 
ATOM     12  C   UNL     1       9.704   3.573  23.508  0.00  0.00    +0.048 A 
ATOM     13  C   UNL     1       8.365   3.486  23.148  0.00  0.00    +0.025 A 
ATOM     14  C   UNL     1       7.712   2.254  23.192  0.00  0.00    +0.010 A 
ATOM     15  C   UNL     1       8.382   1.104  23.640  0.00  0.00    -0.017 A 
ATOM     16  C   UNL     1       7.741  -0.143  23.725  0.00  0.00    +0.017 A 
BRANCH  12  17
ATOM     17  N   UNL     1      10.360   4.837  23.514  0.00  0.00    -0.221 N 
ATOM     18  H   UNL     1      10.468   5.271  22.594  0.00  0.00    +0.173 HD
BRANCH  17  19
ATOM     19  S   UNL     1       9.760   5.997  24.593  0.00  0.00    +0.040 S 
ATOM     20  C   UNL     1      11.261   6.740  25.190  0.00  0.00    +0.218 C 
ATOM     21  O   UNL     1       9.070   5.363  25.693  0.00  0.00    -0.155 OA
ATOM     22  O   UNL     1       9.097   6.975  23.756  0.00  0.00    -0.155 OA
ENDBRANCH  17  19
ENDBRANCH  12  17
ENDBRANCH   3   7
BRANCH   5  23
ATOM     23  N   UNL     1       5.871  -4.165  27.533  0.00  0.00    -0.255 N 
ATOM     24  C   UNL     1       6.204  -5.256  28.345  0.00  0.00    +0.313 C 
ATOM     25  O   UNL     1       7.189  -5.982  28.234  0.00  0.00    -0.252 OA
ATOM     26  N   UNL     1       5.317  -5.535  29.360  0.00  0.00    -0.240 N 
ATOM     27  H   UNL     1       5.559  -6.331  29.933  0.00  0.00    +0.159 HD
ATOM     28  C   UNL     1       4.084  -4.987  29.572  0.00  0.00    +0.222 C 
ATOM     29  O   UNL     1       3.345  -5.389  30.467  0.00  0.00    -0.275 OA
ATOM     30  C   UNL     1       3.667  -3.932  28.595  0.00  0.00    +0.115 C 
ATOM     31  C   UNL     1       4.900  -3.217  28.073  0.00  0.00    +0.124 C 
ENDBRANCH   5  23
BRANCH   1  33
ATOM     32  C   UNL     1       5.537  -7.091  23.634  0.00  0.00    +0.015 C 
ATOM     33  C   UNL     1       6.234  -5.904  22.890  0.00  0.00    -0.009 C 
ATOM     34  C   UNL     1       5.275  -5.665  21.708  0.00  0.00    +0.015 C 
ATOM     35  C   UNL     1       7.594  -6.419  22.351  0.00  0.00    +0.015 C 
ENDBRANCH   1  33
BRANCH   2  36
ATOM     36  O   UNL     1       7.186  -2.943  22.223  0.00  0.00    -0.494 OA
ATOM     37  C   UNL     1       5.961  -2.484  21.665  0.00  0.00    +0.277 C 
ENDBRANCH   2  36
TORSDOF 6
ENDMDL
MODEL 5
REMARK VINA RESULT:      -6.7      3.797      5.977
REMARK  Name = 
REMARK  11 active torsions:
REMARK  status: ('A' for Active; 'I' for Inactive)
REMARK    1  A    between atoms: C_1  and  C_2
REMARK    2  A    between atoms: C_2  and  C_3
REMARK    3  A    between atoms: C_2  and  C_4
REMARK    4  A    between atoms: C_2  and  C_5
REMARK    5  A    between atoms: C_7  and  N_28
REMARK    6  A    between atoms: C_9  and  C_13
REMARK    7  A    between atoms: C_10  and  O_11
REMARK    8  A    between atoms: O_11  and  C_12
REMARK    9  A    between atoms: C_20  and  N_23
REMARK   10  A    between atoms: N_23  and  S_24
REMARK   11  A    between atoms: S_24  and  C_27
REMARK                            x       y       z     vdW  Elec       q    Type
REMARK                         _______ _______ _______ _____ _____    ______ ____
ROOT
ATOM      1  C   UNL     1       5.117  -4.425  24.599  0.00  0.00    +0.002 A 
ATOM      2  C   UNL     1       6.061  -3.440  24.201  0.00  0.00    +0.132 A 
ATOM      3  C   UNL     1       6.279  -2.270  25.010  0.00  0.00    +0.026 A 
ATOM      4  C   UNL     1       5.456  -2.072  26.157  0.00  0.00    +0.035 A 
ATOM      5  C   UNL     1       4.428  -2.936  26.505  0.00  0.00    +0.039 A 
ATOM      6  C   UNL     1       4.346  -4.111  25.757  0.00  0.00    +0.031 A 
ENDROOT
BRANCH   3   7
ATOM      7  C   UNL     1       7.322  -1.228  24.737  0.00  0.00    -0.014 A 
ATOM      8  C   UNL     1       8.547  -1.198  25.417  0.00  0.00    +0.009 A 
ATOM      9  C   UNL     1       9.500  -0.197  25.183  0.00  0.00    +0.009 A 
ATOM     10  C   UNL     1       9.217   0.869  24.337  0.00  0.00    -0.016 A 
ATOM     11  C   UNL     1      10.125   1.930  24.171  0.00  0.00    +0.033 A 
ATOM     12  C   UNL     1       9.781   3.044  23.411  0.00  0.00    +0.048 A 
ATOM     13  C   UNL     1       8.527   3.123  22.818  0.00  0.00    +0.025 A 
ATOM     14  C   UNL     1       7.633   2.058  22.938  0.00  0.00    +0.010 A 
ATOM     15  C   UNL     1       7.969   0.923  23.691  0.00  0.00    -0.017 A 
ATOM     16  C   UNL     1       7.076  -0.150  23.856  0.00  0.00    +0.017 A 
BRANCH  12  17
ATOM     17  N   UNL     1      10.677   4.148  23.335  0.00  0.00    -0.221 N 
ATOM     18  H   UNL     1      11.022   4.360  22.395  0.00  0.00    +0.173 HD
BRANCH  17  19
ATOM     19  S   UNL     1      10.166   5.591  24.063  0.00  0.00    +0.040 S 
ATOM     20  C   UNL     1      11.718   6.352  24.476  0.00  0.00    +0.218 C 
ATOM     21  O   UNL     1       9.429   5.317  25.275  0.00  0.00    -0.155 OA
ATOM     22  O   UNL     1       9.580   6.362  22.987  0.00  0.00    -0.155 OA
ENDBRANCH  17  19
ENDBRANCH  12  17
ENDBRANCH   3   7
BRANCH   5  23
ATOM     23  N   UNL     1       3.444  -2.634  27.518  0.00  0.00    -0.255 N 
ATOM     24  C   UNL     1       2.233  -1.996  27.224  0.00  0.00    +0.313 C 
ATOM     25  O   UNL     1       1.707  -1.889  26.118  0.00  0.00    -0.252 OA
ATOM     26  N   UNL     1       1.585  -1.427  28.296  0.00  0.00    -0.240 N 
ATOM     27  H   UNL     1       0.718  -0.959  28.073  0.00  0.00    +0.159 HD
ATOM     28  C   UNL     1       2.050  -1.268  29.571  0.00  0.00    +0.222 C 
ATOM     29  O   UNL     1       1.407  -0.657  30.420  0.00  0.00    -0.275 OA
ATOM     30  C   UNL     1       3.421  -1.810  29.832  0.00  0.00    +0.115 C 
ATOM     31  C   UNL     1       3.677  -2.991  28.915  0.00  0.00    +0.124 C 
ENDBRANCH   5  23
BRANCH   1  33
ATOM     32  C   UNL     1       3.623  -5.902  23.046  0.00  0.00    +0.015 C 
ATOM     33  C   UNL     1       4.865  -5.843  23.997  0.00  0.00    -0.009 C 
ATOM     34  C   UNL     1       5.971  -6.446  23.110  0.00  0.00    +0.015 C 
ATOM     35  C   UNL     1       4.590  -6.794  25.191  0.00  0.00    +0.015 C 
ENDBRANCH   1  33
BRANCH   2  36
ATOM     36  O   UNL     1       6.561  -3.378  22.918  0.00  0.00    -0.494 OA
ATOM     37  C   UNL     1       5.699  -2.983  21.859  0.00  0.00    +0.277 C 
ENDBRANCH   2  36
TORSDOF 6
ENDMDL
MODEL 6
REMARK VINA RESULT:      -6.6      4.044     10.001
REMARK  Name = 
REMARK  11 active torsions:
REMARK  status: ('A' for Active; 'I' for Inactive)
REMARK    1  A    between atoms: C_1  and  C_2
REMARK    2  A    between atoms: C_2  and  C_3
REMARK    3  A    between atoms: C_2  and  C_4
REMARK    4  A    between atoms: C_2  and  C_5
REMARK    5  A    between atoms: C_7  and  N_28
REMARK    6  A    between atoms: C_9  and  C_13
REMARK    7  A    between atoms: C_10  and  O_11
REMARK    8  A    between atoms: O_11  and  C_12
REMARK    9  A    between atoms: C_20  and  N_23
REMARK   10  A    between atoms: N_23  and  S_24
REMARK   11  A    between atoms: S_24  and  C_27
REMARK                            x       y       z     vdW  Elec       q    Type
REMARK                         _______ _______ _______ _____ _____    ______ ____
ROOT
ATOM      1  C   UNL     1       8.446   0.502  23.718  0.00  0.00    +0.002 A 
ATOM      2  C   UNL     1       7.800  -0.692  24.139  0.00  0.00    +0.132 A 
ATOM      3  C   UNL     1       6.395  -0.690  24.450  0.00  0.00    +0.026 A 
ATOM      4  C   UNL     1       5.695   0.551  24.429  0.00  0.00    +0.035 A 
ATOM      5  C   UNL     1       6.316   1.762  24.161  0.00  0.00    +0.039 A 
ATOM      6  C   UNL     1       7.645   1.682  23.747  0.00  0.00    +0.031 A 
ENDROOT
BRANCH   3   7
ATOM      7  C   UNL     1       5.598  -1.912  24.798  0.00  0.00    -0.014 A 
ATOM      8  C   UNL     1       4.755  -1.962  25.917  0.00  0.00    +0.009 A 
ATOM      9  C   UNL     1       4.045  -3.122  26.257  0.00  0.00    +0.009 A 
ATOM     10  C   UNL     1       4.234  -4.304  25.551  0.00  0.00    -0.016 A 
ATOM     11  C   UNL     1       3.603  -5.498  25.942  0.00  0.00    +0.033 A 
ATOM     12  C   UNL     1       3.891  -6.696  25.296  0.00  0.00    +0.048 A 
ATOM     13  C   UNL     1       4.817  -6.725  24.260  0.00  0.00    +0.025 A 
ATOM     14  C   UNL     1       5.417  -5.540  23.832  0.00  0.00    +0.010 A 
ATOM     15  C   UNL     1       5.130  -4.322  24.466  0.00  0.00    -0.017 A 
ATOM     16  C   UNL     1       5.744  -3.119  24.077  0.00  0.00    +0.017 A 
BRANCH  12  17
ATOM     17  N   UNL     1       3.314  -7.908  25.770  0.00  0.00    -0.221 N 
ATOM     18  H   UNL     1       3.120  -7.930  26.775  0.00  0.00    +0.173 HD
BRANCH  17  19
ATOM     19  S   UNL     1       1.947  -8.472  24.943  0.00  0.00    +0.040 S 
ATOM     20  C   UNL     1       0.631  -7.867  25.974  0.00  0.00    +0.218 C 
ATOM     21  O   UNL     1       1.919  -9.916  24.930  0.00  0.00    -0.155 OA
ATOM     22  O   UNL     1       1.917  -7.710  23.712  0.00  0.00    -0.155 OA
ENDBRANCH  17  19
ENDBRANCH  12  17
ENDBRANCH   3   7
BRANCH   5  23
ATOM     23  N   UNL     1       5.679   3.043  24.362  0.00  0.00    -0.255 N 
ATOM     24  C   UNL     1       5.068   3.751  23.320  0.00  0.00    +0.313 C 
ATOM     25  O   UNL     1       4.716   3.301  22.232  0.00  0.00    -0.252 OA
ATOM     26  N   UNL     1       4.857   5.090  23.555  0.00  0.00    -0.240 N 
ATOM     27  H   UNL     1       4.427   5.596  22.793  0.00  0.00    +0.159 HD
ATOM     28  C   UNL     1       5.312   5.842  24.601  0.00  0.00    +0.222 C 
ATOM     29  O   UNL     1       5.133   7.056  24.649  0.00  0.00    -0.275 OA
ATOM     30  C   UNL     1       6.109   5.102  25.631  0.00  0.00    +0.115 C 
ATOM     31  C   UNL     1       5.642   3.659  25.685  0.00  0.00    +0.124 C 
ENDBRANCH   5  23
BRANCH   1  33
ATOM     32  C   UNL     1      10.370  -0.517  22.273  0.00  0.00    +0.015 C 
ATOM     33  C   UNL     1       9.886   0.690  23.145  0.00  0.00    -0.009 C 
ATOM     34  C   UNL     1      10.123   1.880  22.196  0.00  0.00    +0.015 C 
ATOM     35  C   UNL     1      10.840   0.805  24.361  0.00  0.00    +0.015 C 
ENDBRANCH   1  33
BRANCH   2  36
ATOM     36  O   UNL     1       8.504  -1.794  24.572  0.00  0.00    -0.494 OA
ATOM     37  C   UNL     1       8.861  -1.889  25.945  0.00  0.00    +0.277 C 
ENDBRANCH   2  36
TORSDOF 6
ENDMDL
MODEL 7
REMARK VINA RESULT:      -6.6      4.407     10.913
REMARK  Name = 
REMARK  11 active torsions:
REMARK  status: ('A' for Active; 'I' for Inactive)
REMARK    1  A    between atoms: C_1  and  C_2
REMARK    2  A    between atoms: C_2  and  C_3
REMARK    3  A    between atoms: C_2  and  C_4
REMARK    4  A    between atoms: C_2  and  C_5
REMARK    5  A    between atoms: C_7  and  N_28
REMARK    6  A    between atoms: C_9  and  C_13
REMARK    7  A    between atoms: C_10  and  O_11
REMARK    8  A    between atoms: O_11  and  C_12
REMARK    9  A    between atoms: C_20  and  N_23
REMARK   10  A    between atoms: N_23  and  S_24
REMARK   11  A    between atoms: S_24  and  C_27
REMARK                            x       y       z     vdW  Elec       q    Type
REMARK                         _______ _______ _______ _____ _____    ______ ____
ROOT
ATOM      1  C   UNL     1       6.490   4.730  25.629  0.00  0.00    +0.002 A 
ATOM      2  C   UNL     1       6.114   3.361  25.699  0.00  0.00    +0.132 A 
ATOM      3  C   UNL     1       7.058   2.328  25.360  0.00  0.00    +0.026 A 
ATOM      4  C   UNL     1       8.335   2.711  24.856  0.00  0.00    +0.035 A 
ATOM      5  C   UNL     1       8.693   4.033  24.638  0.00  0.00    +0.039 A 
ATOM      6  C   UNL     1       7.788   4.989  25.099  0.00  0.00    +0.031 A 
ENDROOT
BRANCH   3   7
ATOM      7  C   UNL     1       6.798   0.858  25.502  0.00  0.00    -0.014 A 
ATOM      8  C   UNL     1       7.033   0.167  26.700  0.00  0.00    +0.009 A 
ATOM      9  C   UNL     1       6.824  -1.214  26.811  0.00  0.00    +0.009 A 
ATOM     10  C   UNL     1       6.475  -1.972  25.699  0.00  0.00    -0.016 A 
ATOM     11  C   UNL     1       6.359  -3.371  25.776  0.00  0.00    +0.033 A 
ATOM     12  C   UNL     1       6.120  -4.125  24.631  0.00  0.00    +0.048 A 
ATOM     13  C   UNL     1       6.005  -3.501  23.396  0.00  0.00    +0.025 A 
ATOM     14  C   UNL     1       6.073  -2.110  23.311  0.00  0.00    +0.010 A 
ATOM     15  C   UNL     1       6.302  -1.333  24.458  0.00  0.00    -0.017 A 
ATOM     16  C   UNL     1       6.408   0.067  24.397  0.00  0.00    +0.017 A 
BRANCH  12  17
ATOM     17  N   UNL     1       6.103  -5.547  24.716  0.00  0.00    -0.221 N 
ATOM     18  H   UNL     1       6.844  -5.954  25.293  0.00  0.00    +0.173 HD
BRANCH  17  19
ATOM     19  S   UNL     1       4.628  -6.262  25.146  0.00  0.00    +0.040 S 
ATOM     20  C   UNL     1       4.907  -6.658  26.856  0.00  0.00    +0.218 C 
ATOM     21  O   UNL     1       4.417  -7.482  24.401  0.00  0.00    -0.155 OA
ATOM     22  O   UNL     1       3.665  -5.182  25.104  0.00  0.00    -0.155 OA
ENDBRANCH  17  19
ENDBRANCH  12  17
ENDBRANCH   3   7
BRANCH   5  23
ATOM     23  N   UNL     1       9.881   4.425  23.917  0.00  0.00    -0.255 N 
ATOM     24  C   UNL     1      10.693   3.502  23.245  0.00  0.00    +0.313 C 
ATOM     25  O   UNL     1      10.387   2.360  22.912  0.00  0.00    -0.252 OA
ATOM     26  N   UNL     1      11.964   3.936  22.946  0.00  0.00    -0.240 N 
ATOM     27  H   UNL     1      12.547   3.260  22.473  0.00  0.00    +0.159 HD
ATOM     28  C   UNL     1      12.581   5.082  23.362  0.00  0.00    +0.222 C 
ATOM     29  O   UNL     1      13.759   5.312  23.101  0.00  0.00    -0.275 OA
ATOM     30  C   UNL     1      11.754   5.987  24.222  0.00  0.00    +0.115 C 
ATOM     31  C   UNL     1      10.290   5.826  23.856  0.00  0.00    +0.124 C 
ENDBRANCH   5  23
BRANCH   1  33
ATOM     32  C   UNL     1       4.660   6.519  25.103  0.00  0.00    +0.015 C 
ATOM     33  C   UNL     1       5.714   5.987  26.132  0.00  0.00    -0.009 C 
ATOM     34  C   UNL     1       4.862   5.835  27.406  0.00  0.00    +0.015 C 
ATOM     35  C   UNL     1       6.766   7.106  26.349  0.00  0.00    +0.015 C 
ENDBRANCH   1  33
BRANCH   2  36
ATOM     36  O   UNL     1       4.797   2.963  25.770  0.00  0.00    -0.494 OA
ATOM     37  C   UNL     1       4.007   2.977  24.588  0.00  0.00    +0.277 C 
ENDBRANCH   2  36
TORSDOF 6
ENDMDL
MODEL 8
REMARK VINA RESULT:      -6.4      3.442      5.948
REMARK  Name = 
REMARK  11 active torsions:
REMARK  status: ('A' for Active; 'I' for Inactive)
REMARK    1  A    between atoms: C_1  and  C_2
REMARK    2  A    between atoms: C_2  and  C_3
REMARK    3  A    between atoms: C_2  and  C_4
REMARK    4  A    between atoms: C_2  and  C_5
REMARK    5  A    between atoms: C_7  and  N_28
REMARK    6  A    between atoms: C_9  and  C_13
REMARK    7  A    between atoms: C_10  and  O_11
REMARK    8  A    between atoms: O_11  and  C_12
REMARK    9  A    between atoms: C_20  and  N_23
REMARK   10  A    between atoms: N_23  and  S_24
REMARK   11  A    between atoms: S_24  and  C_27
REMARK                            x       y       z     vdW  Elec       q    Type
REMARK                         _______ _______ _______ _____ _____    ______ ____
ROOT
ATOM      1  C   UNL     1       6.108  -4.607  24.225  0.00  0.00    +0.002 A 
ATOM      2  C   UNL     1       6.369  -3.210  24.218  0.00  0.00    +0.132 A 
ATOM      3  C   UNL     1       6.453  -2.478  25.454  0.00  0.00    +0.026 A 
ATOM      4  C   UNL     1       6.167  -3.162  26.671  0.00  0.00    +0.035 A 
ATOM      5  C   UNL     1       5.771  -4.490  26.714  0.00  0.00    +0.039 A 
ATOM      6  C   UNL     1       5.827  -5.177  25.501  0.00  0.00    +0.031 A 
ENDROOT
BRANCH   3   7
ATOM      7  C   UNL     1       6.827  -1.030  25.562  0.00  0.00    -0.014 A 
ATOM      8  C   UNL     1       5.970  -0.075  26.126  0.00  0.00    +0.009 A 
ATOM      9  C   UNL     1       6.312   1.283  26.187  0.00  0.00    +0.009 A 
ATOM     10  C   UNL     1       7.478   1.750  25.591  0.00  0.00    -0.016 A 
ATOM     11  C   UNL     1       7.783   3.122  25.559  0.00  0.00    +0.033 A 
ATOM     12  C   UNL     1       8.894   3.584  24.860  0.00  0.00    +0.048 A 
ATOM     13  C   UNL     1       9.709   2.690  24.176  0.00  0.00    +0.025 A 
ATOM     14  C   UNL     1       9.444   1.322  24.236  0.00  0.00    +0.010 A 
ATOM     15  C   UNL     1       8.333   0.838  24.945  0.00  0.00    -0.017 A 
ATOM     16  C   UNL     1       8.023  -0.532  24.996  0.00  0.00    +0.017 A 
BRANCH  12  17
ATOM     17  N   UNL     1       9.131   4.984  24.760  0.00  0.00    -0.221 N 
ATOM     18  H   UNL     1      10.117   5.254  24.722  0.00  0.00    +0.173 HD
BRANCH  17  19
ATOM     19  S   UNL     1       8.297   5.808  23.537  0.00  0.00    +0.040 S 
ATOM     20  C   UNL     1       7.130   6.762  24.480  0.00  0.00    +0.218 C 
ATOM     21  O   UNL     1       7.583   4.880  22.692  0.00  0.00    -0.155 OA
ATOM     22  O   UNL     1       9.264   6.733  22.985  0.00  0.00    -0.155 OA
ENDBRANCH  17  19
ENDBRANCH  12  17
ENDBRANCH   3   7
BRANCH   5  23
ATOM     23  N   UNL     1       5.256  -5.128  27.903  0.00  0.00    -0.255 N 
ATOM     24  C   UNL     1       5.957  -6.133  28.581  0.00  0.00    +0.313 C 
ATOM     25  O   UNL     1       7.154  -6.391  28.480  0.00  0.00    -0.252 OA
ATOM     26  N   UNL     1       5.206  -6.908  29.436  0.00  0.00    -0.240 N 
ATOM     27  H   UNL     1       5.717  -7.638  29.911  0.00  0.00    +0.159 HD
ATOM     28  C   UNL     1       3.848  -6.924  29.582  0.00  0.00    +0.222 C 
ATOM     29  O   UNL     1       3.288  -7.733  30.317  0.00  0.00    -0.275 OA
ATOM     30  C   UNL     1       3.094  -5.954  28.726  0.00  0.00    +0.115 C 
ATOM     31  C   UNL     1       3.963  -4.739  28.459  0.00  0.00    +0.124 C 
ENDBRANCH   5  23
BRANCH   1  33
ATOM     32  C   UNL     1       5.468  -5.109  21.742  0.00  0.00    +0.015 C 
ATOM     33  C   UNL     1       6.172  -5.624  23.042  0.00  0.00    -0.009 C 
ATOM     34  C   UNL     1       7.565  -6.014  22.514  0.00  0.00    +0.015 C 
ATOM     35  C   UNL     1       5.424  -6.900  23.508  0.00  0.00    +0.015 C 
ENDBRANCH   1  33
BRANCH   2  36
ATOM     36  O   UNL     1       6.235  -2.444  23.080  0.00  0.00    -0.494 OA
ATOM     37  C   UNL     1       7.365  -2.256  22.238  0.00  0.00    +0.277 C 
ENDBRANCH   2  36
TORSDOF 6
ENDMDL
MODEL 9
REMARK VINA RESULT:      -6.3      1.579      2.043
REMARK  Name = 
REMARK  11 active torsions:
REMARK  status: ('A' for Active; 'I' for Inactive)
REMARK    1  A    between atoms: C_1  and  C_2
REMARK    2  A    between atoms: C_2  and  C_3
REMARK    3  A    between atoms: C_2  and  C_4
REMARK    4  A    between atoms: C_2  and  C_5
REMARK    5  A    between atoms: C_7  and  N_28
REMARK    6  A    between atoms: C_9  and  C_13
REMARK    7  A    between atoms: C_10  and  O_11
REMARK    8  A    between atoms: O_11  and  C_12
REMARK    9  A    between atoms: C_20  and  N_23
REMARK   10  A    between atoms: N_23  and  S_24
REMARK   11  A    between atoms: S_24  and  C_27
REMARK                            x       y       z     vdW  Elec       q    Type
REMARK                         _______ _______ _______ _____ _____    ______ ____
ROOT
ATOM      1  C   UNL     1       2.764  -6.133  28.212  0.00  0.00    +0.002 A 
ATOM      2  C   UNL     1       3.765  -5.125  28.215  0.00  0.00    +0.132 A 
ATOM      3  C   UNL     1       4.258  -4.583  26.976  0.00  0.00    +0.026 A 
ATOM      4  C   UNL     1       3.799  -5.153  25.753  0.00  0.00    +0.035 A 
ATOM      5  C   UNL     1       2.930  -6.233  25.705  0.00  0.00    +0.039 A 
ATOM      6  C   UNL     1       2.393  -6.633  26.928  0.00  0.00    +0.031 A 
ENDROOT
BRANCH   3   7
ATOM      7  C   UNL     1       5.231  -3.447  26.871  0.00  0.00    -0.014 A 
ATOM      8  C   UNL     1       4.905  -2.142  27.269  0.00  0.00    +0.009 A 
ATOM      9  C   UNL     1       5.807  -1.079  27.130  0.00  0.00    +0.009 A 
ATOM     10  C   UNL     1       7.028  -1.261  26.492  0.00  0.00    -0.016 A 
ATOM     11  C   UNL     1       7.899  -0.182  26.259  0.00  0.00    +0.033 A 
ATOM     12  C   UNL     1       9.064  -0.360  25.519  0.00  0.00    +0.048 A 
ATOM     13  C   UNL     1       9.373  -1.607  24.992  0.00  0.00    +0.025 A 
ATOM     14  C   UNL     1       8.540  -2.697  25.253  0.00  0.00    +0.010 A 
ATOM     15  C   UNL     1       7.367  -2.537  26.006  0.00  0.00    -0.017 A 
ATOM     16  C   UNL     1       6.494  -3.610  26.257  0.00  0.00    +0.017 A 
BRANCH  12  17
ATOM     17  N   UNL     1       9.882   0.765  25.213  0.00  0.00    -0.221 N 
ATOM     18  H   UNL     1      10.874   0.555  25.082  0.00  0.00    +0.173 HD
BRANCH  17  19
ATOM     19  S   UNL     1       9.365   1.754  23.937  0.00  0.00    +0.040 S 
ATOM     20  C   UNL     1       8.685   3.143  24.814  0.00  0.00    +0.218 C 
ATOM     21  O   UNL     1       8.318   1.106  23.182  0.00  0.00    -0.155 OA
ATOM     22  O   UNL     1      10.584   2.202  23.298  0.00  0.00    -0.155 OA
ENDBRANCH  17  19
ENDBRANCH  12  17
ENDBRANCH   3   7
BRANCH   5  23
ATOM     23  N   UNL     1       2.640  -6.966  24.494  0.00  0.00    -0.255 N 
ATOM     24  C   UNL     1       2.627  -6.359  23.233  0.00  0.00    +0.313 C 
ATOM     25  O   UNL     1       3.129  -5.279  22.931  0.00  0.00    -0.252 OA
ATOM     26  N   UNL     1       1.968  -7.055  22.245  0.00  0.00    -0.240 N 
ATOM     27  H   UNL     1       1.953  -6.604  21.341  0.00  0.00    +0.159 HD
ATOM     28  C   UNL     1       1.195  -8.173  22.378  0.00  0.00    +0.222 C 
ATOM     29  O   UNL     1       0.581  -8.649  21.427  0.00  0.00    -0.275 OA
ATOM     30  C   UNL     1       1.082  -8.720  23.767  0.00  0.00    +0.115 C 
ATOM     31  C   UNL     1       2.347  -8.396  24.539  0.00  0.00    +0.124 C 
ENDBRANCH   5  23
BRANCH   1  33
ATOM     32  C   UNL     1       2.845  -7.419  30.485  0.00  0.00    +0.015 C 
ATOM     33  C   UNL     1       1.950  -6.713  29.411  0.00  0.00    -0.009 C 
ATOM     34  C   UNL     1       1.148  -5.719  30.272  0.00  0.00    +0.015 C 
ATOM     35  C   UNL     1       0.987  -7.778  28.826  0.00  0.00    +0.015 C 
ENDBRANCH   1  33
BRANCH   2  36
ATOM     36  O   UNL     1       4.526  -4.848  29.330  0.00  0.00    -0.494 OA
ATOM     37  C   UNL     1       4.040  -3.912  30.282  0.00  0.00    +0.277 C 
ENDBRANCH   2  36
TORSDOF 6
ENDMDL
