MODEL 1
REMARK VINA RESULT:      -6.4      0.000      0.000
REMARK  Name = 
REMARK  8 active torsions:
REMARK  status: ('A' for Active; 'I' for Inactive)
REMARK    1  A    between atoms: C_1  and  C_2
REMARK    2  A    between atoms: C_2  and  C_3
REMARK    3  A    between atoms: C_2  and  N_4
REMARK    4  A    between atoms: N_13  and  C1*_14
REMARK    5  A    between atoms: C2*_15  and  O2*_22
REMARK    6  A    between atoms: C3*_16  and  O3*_21
REMARK    7  A    between atoms: C4*_17  and  C5*_19
REMARK    8  A    between atoms: C5*_19  and  O5*_20
REMARK                            x       y       z     vdW  Elec       q    Type
REMARK                         _______ _______ _______ _____ _____    ______ ____
ROOT
ATOM      1  N   UNL     1       7.006  -4.546  26.006  0.00  0.00    -0.312 N 
ATOM      2  H   UNL     1       6.328  -5.116  25.515  0.00  0.00    +0.149 HD
ATOM      3  C   UNL     1       7.590  -3.481  25.404  0.00  0.00    +0.199 A 
ATOM      4  N   UNL     1       7.424  -3.203  24.057  0.00  0.00    -0.283 N 
ATOM      5  C   UNL     1       8.061  -2.008  23.795  0.00  0.00    +0.074 A 
ATOM      6  C   UNL     1       8.668  -1.678  25.003  0.00  0.00    +0.092 A 
ATOM      7  C   UNL     1       9.456  -0.524  25.104  0.00  0.00    +0.051 A 
ATOM      8  C   UNL     1       9.590   0.303  23.985  0.00  0.00    +0.061 A 
ATOM      9 CL   UNL     1      10.558   1.725  24.162  0.00  0.00    -0.082 Cl
ATOM     10  C   UNL     1       8.953  -0.024  22.781  0.00  0.00    +0.061 A 
ATOM     11 CL   UNL     1       9.063   0.990  21.381  0.00  0.00    -0.082 Cl
ATOM     12  C   UNL     1       8.186  -1.195  22.658  0.00  0.00    +0.049 A 
ATOM     13  N   UNL     1       8.361  -2.587  25.973  0.00  0.00    -0.214 NA
ENDROOT
BRANCH   4  14
ATOM     14  C1* UNL     1       6.687  -4.065  23.158  0.00  0.00    +0.254 C 
ATOM     15  O4* UNL     1       5.650  -4.827  23.828  0.00  0.00    -0.346 OA
ATOM     16  C4* UNL     1       5.397  -5.995  22.994  0.00  0.00    +0.177 C 
ATOM     17  C3* UNL     1       6.375  -5.917  21.798  0.00  0.00    +0.178 C 
ATOM     18  C2* UNL     1       7.516  -5.107  22.397  0.00  0.00    +0.195 C 
BRANCH  17  19
ATOM     19  O3* UNL     1       5.888  -5.196  20.660  0.00  0.00    -0.386 OA
ATOM     20  H3* UNL     1       6.627  -5.040  20.032  0.00  0.00    +0.210 HD
ENDBRANCH  17  19
BRANCH  18  21
ATOM     21  O2* UNL     1       8.319  -5.945  23.235  0.00  0.00    -0.385 OA
ATOM     22  H2* UNL     1       9.177  -6.101  22.804  0.00  0.00    +0.210 HD
ENDBRANCH  18  21
BRANCH  16  23
ATOM     23  C5* UNL     1       3.917  -6.036  22.622  0.00  0.00    +0.190 C 
BRANCH  23  24
ATOM     24  O5* UNL     1       3.282  -4.824  23.039  0.00  0.00    -0.392 OA
ATOM     25  H5* UNL     1       4.000  -4.173  23.170  0.00  0.00    +0.210 HD
ENDBRANCH  23  24
ENDBRANCH  16  23
ENDBRANCH   4  14
BRANCH   1  27
ATOM     26  C   UNL     1       5.424  -3.736  27.662  0.00  0.00    +0.027 C 
ATOM     27  C   UNL     1       6.748  -4.471  27.447  0.00  0.00    +0.067 C 
ATOM     28  C   UNL     1       6.681  -5.863  28.067  0.00  0.00    +0.027 C 
ENDBRANCH   1  27
TORSDOF 6
ENDMDL
MODEL 2
REMARK VINA RESULT:      -6.3      4.571      6.579
REMARK  Name = 
REMARK  8 active torsions:
REMARK  status: ('A' for Active; 'I' for Inactive)
REMARK    1  A    between atoms: C_1  and  C_2
REMARK    2  A    between atoms: C_2  and  C_3
REMARK    3  A    between atoms: C_2  and  N_4
REMARK    4  A    between atoms: N_13  and  C1*_14
REMARK    5  A    between atoms: C2*_15  and  O2*_22
REMARK    6  A    between atoms: C3*_16  and  O3*_21
REMARK    7  A    between atoms: C4*_17  and  C5*_19
REMARK    8  A    between atoms: C5*_19  and  O5*_20
REMARK                            x       y       z     vdW  Elec       q    Type
REMARK                         _______ _______ _______ _____ _____    ______ ____
ROOT
ATOM      1  N   UNL     1       5.905   0.732  25.504  0.00  0.00    -0.312 N 
ATOM      2  H   UNL     1       6.643   1.387  25.271  0.00  0.00    +0.149 HD
ATOM      3  C   UNL     1       5.819  -0.472  24.889  0.00  0.00    +0.199 A 
ATOM      4  N   UNL     1       6.618  -0.817  23.812  0.00  0.00    -0.283 N 
ATOM      5  C   UNL     1       6.350  -2.134  23.496  0.00  0.00    +0.074 A 
ATOM      6  C   UNL     1       5.316  -2.482  24.359  0.00  0.00    +0.092 A 
ATOM      7  C   UNL     1       4.743  -3.759  24.294  0.00  0.00    +0.051 A 
ATOM      8  C   UNL     1       5.254  -4.683  23.377  0.00  0.00    +0.061 A 
ATOM      9 CL   UNL     1       4.528  -6.252  23.345  0.00  0.00    -0.082 Cl
ATOM     10  C   UNL     1       6.314  -4.330  22.531  0.00  0.00    +0.061 A 
ATOM     11 CL   UNL     1       7.000  -5.454  21.405  0.00  0.00    -0.082 Cl
ATOM     12  C   UNL     1       6.874  -3.043  22.565  0.00  0.00    +0.049 A 
ATOM     13  N   UNL     1       5.013  -1.455  25.206  0.00  0.00    -0.214 NA
ENDROOT
BRANCH   4  14
ATOM     14  C1* UNL     1       7.550   0.101  23.193  0.00  0.00    +0.254 C 
ATOM     15  O4* UNL     1       8.293   0.888  24.159  0.00  0.00    -0.346 OA
ATOM     16  C4* UNL     1       8.730   2.089  23.460  0.00  0.00    +0.177 C 
ATOM     17  C3* UNL     1       8.169   2.003  22.021  0.00  0.00    +0.178 C 
ATOM     18  C2* UNL     1       6.942   1.128  22.230  0.00  0.00    +0.195 C 
BRANCH  17  19
ATOM     19  O3* UNL     1       9.015   1.338  21.077  0.00  0.00    -0.386 OA
ATOM     20  H3* UNL     1       9.462   0.580  21.514  0.00  0.00    +0.210 HD
ENDBRANCH  17  19
BRANCH  18  21
ATOM     21  O2* UNL     1       5.880   1.905  22.794  0.00  0.00    -0.385 OA
ATOM     22  H2* UNL     1       5.912   2.806  22.426  0.00  0.00    +0.210 HD
ENDBRANCH  18  21
BRANCH  16  23
ATOM     23  C5* UNL     1      10.249   2.205  23.560  0.00  0.00    +0.190 C 
BRANCH  23  24
ATOM     24  O5* UNL     1      10.727   3.129  22.578  0.00  0.00    -0.392 OA
ATOM     25  H5* UNL     1      10.644   2.676  21.716  0.00  0.00    +0.210 HD
ENDBRANCH  23  24
ENDBRANCH  16  23
ENDBRANCH   4  14
BRANCH   1  27
ATOM     26  C   UNL     1       6.729   0.686  27.789  0.00  0.00    +0.027 C 
ATOM     27  C   UNL     1       5.488   0.826  26.907  0.00  0.00    +0.067 C 
ATOM     28  C   UNL     1       4.794   2.154  27.187  0.00  0.00    +0.027 C 
ENDBRANCH   1  27
TORSDOF 6
ENDMDL
MODEL 3
REMARK VINA RESULT:      -6.0      4.384      6.627
REMARK  Name = 
REMARK  8 active torsions:
REMARK  status: ('A' for Active; 'I' for Inactive)
REMARK    1  A    between atoms: C_1  and  C_2
REMARK    2  A    between atoms: C_2  and  C_3
REMARK    3  A    between atoms: C_2  and  N_4
REMARK    4  A    between atoms: N_13  and  C1*_14
REMARK    5  A    between atoms: C2*_15  and  O2*_22
REMARK    6  A    between atoms: C3*_16  and  O3*_21
REMARK    7  A    between atoms: C4*_17  and  C5*_19
REMARK    8  A    between atoms: C5*_19  and  O5*_20
REMARK                            x       y       z     vdW  Elec       q    Type
REMARK                         _______ _______ _______ _____ _____    ______ ____
ROOT
ATOM      1  N   UNL     1       8.825   0.227  23.980  0.00  0.00    -0.312 N 
ATOM      2  H   UNL     1       8.319   1.077  24.197  0.00  0.00    +0.149 HD
ATOM      3  C   UNL     1       8.172  -0.942  23.773  0.00  0.00    +0.199 A 
ATOM      4  N   UNL     1       6.813  -1.086  23.997  0.00  0.00    -0.283 N 
ATOM      5  C   UNL     1       6.455  -2.356  23.594  0.00  0.00    +0.074 A 
ATOM      6  C   UNL     1       7.661  -2.947  23.232  0.00  0.00    +0.092 A 
ATOM      7  C   UNL     1       7.693  -4.281  22.805  0.00  0.00    +0.051 A 
ATOM      8  C   UNL     1       6.491  -4.990  22.714  0.00  0.00    +0.061 A 
ATOM      9 CL   UNL     1       6.577  -6.628  22.164  0.00  0.00    -0.082 Cl
ATOM     10  C   UNL     1       5.278  -4.377  23.054  0.00  0.00    +0.061 A 
ATOM     11 CL   UNL     1       3.764  -5.207  22.923  0.00  0.00    -0.082 Cl
ATOM     12  C   UNL     1       5.238  -3.051  23.515  0.00  0.00    +0.049 A 
ATOM     13  N   UNL     1       8.695  -2.064  23.342  0.00  0.00    -0.214 NA
ENDROOT
BRANCH   4  14
ATOM     14  C1* UNL     1       5.988  -0.034  24.551  0.00  0.00    +0.254 C 
ATOM     15  O4* UNL     1       6.291   1.272  23.998  0.00  0.00    -0.346 OA
ATOM     16  C4* UNL     1       5.841   2.248  24.982  0.00  0.00    +0.177 C 
ATOM     17  C3* UNL     1       5.286   1.452  26.187  0.00  0.00    +0.178 C 
ATOM     18  C2* UNL     1       6.068   0.152  26.072  0.00  0.00    +0.195 C 
BRANCH  17  19
ATOM     19  O3* UNL     1       3.894   1.124  26.110  0.00  0.00    -0.386 OA
ATOM     20  H3* UNL     1       3.527   1.041  27.017  0.00  0.00    +0.210 HD
ENDBRANCH  17  19
BRANCH  18  21
ATOM     21  O2* UNL     1       7.396   0.336  26.572  0.00  0.00    -0.385 OA
ATOM     22  H2* UNL     1       7.387   1.026  27.258  0.00  0.00    +0.210 HD
ENDBRANCH  18  21
BRANCH  16  23
ATOM     23  C5* UNL     1       4.852   3.206  24.324  0.00  0.00    +0.190 C 
BRANCH  23  24
ATOM     24  O5* UNL     1       3.909   2.465  23.545  0.00  0.00    -0.392 OA
ATOM     25  H5* UNL     1       3.903   1.560  23.915  0.00  0.00    +0.210 HD
ENDBRANCH  23  24
ENDBRANCH  16  23
ENDBRANCH   4  14
BRANCH   1  27
ATOM     26  C   UNL     1       9.720   1.412  22.057  0.00  0.00    +0.027 C 
ATOM     27  C   UNL     1      10.054   0.478  23.221  0.00  0.00    +0.067 C 
ATOM     28  C   UNL     1      11.128   1.106  24.104  0.00  0.00    +0.027 C 
ENDBRANCH   1  27
TORSDOF 6
ENDMDL
MODEL 4
REMARK VINA RESULT:      -5.9      1.902      2.231
REMARK  Name = 
REMARK  8 active torsions:
REMARK  status: ('A' for Active; 'I' for Inactive)
REMARK    1  A    between atoms: C_1  and  C_2
REMARK    2  A    between atoms: C_2  and  C_3
REMARK    3  A    between atoms: C_2  and  N_4
REMARK    4  A    between atoms: N_13  and  C1*_14
REMARK    5  A    between atoms: C2*_15  and  O2*_22
REMARK    6  A    between atoms: C3*_16  and  O3*_21
REMARK    7  A    between atoms: C4*_17  and  C5*_19
REMARK    8  A    between atoms: C5*_19  and  O5*_20
REMARK                            x       y       z     vdW  Elec       q    Type
REMARK                         _______ _______ _______ _____ _____    ______ ____
ROOT
ATOM      1  N   UNL     1       4.987  -3.446  27.094  0.00  0.00    -0.312 N 
ATOM      2  H   UNL     1       4.333  -4.052  26.613  0.00  0.00    +0.149 HD
ATOM      3  C   UNL     1       6.062  -2.927  26.451  0.00  0.00    +0.199 A 
ATOM      4  N   UNL     1       6.418  -3.309  25.168  0.00  0.00    -0.283 N 
ATOM      5  C   UNL     1       7.483  -2.523  24.777  0.00  0.00    +0.074 A 
ATOM      6  C   UNL     1       7.772  -1.764  25.907  0.00  0.00    +0.092 A 
ATOM      7  C   UNL     1       8.847  -0.865  25.896  0.00  0.00    +0.051 A 
ATOM      8  C   UNL     1       9.594  -0.719  24.724  0.00  0.00    +0.061 A 
ATOM      9 CL   UNL     1      10.900   0.415  24.752  0.00  0.00    -0.082 Cl
ATOM     10  C   UNL     1       9.277  -1.469  23.583  0.00  0.00    +0.061 A 
ATOM     11 CL   UNL     1      10.154  -1.294  22.100  0.00  0.00    -0.082 Cl
ATOM     12  C   UNL     1       8.223  -2.396  23.592  0.00  0.00    +0.049 A 
ATOM     13  N   UNL     1       6.887  -2.021  26.914  0.00  0.00    -0.214 NA
ENDROOT
BRANCH   4  14
ATOM     14  C1* UNL     1       5.732  -4.352  24.435  0.00  0.00    +0.254 C 
ATOM     15  O4* UNL     1       4.296  -4.331  24.633  0.00  0.00    -0.346 OA
ATOM     16  C4* UNL     1       3.822  -5.677  24.342  0.00  0.00    +0.177 C 
ATOM     17  C3* UNL     1       5.067  -6.529  23.996  0.00  0.00    +0.178 C 
ATOM     18  C2* UNL     1       6.156  -5.790  24.760  0.00  0.00    +0.195 C 
BRANCH  17  19
ATOM     19  O3* UNL     1       5.438  -6.531  22.614  0.00  0.00    -0.386 OA
ATOM     20  H3* UNL     1       6.309  -6.972  22.509  0.00  0.00    +0.210 HD
ENDBRANCH  17  19
BRANCH  18  21
ATOM     21  O2* UNL     1       6.086  -6.122  26.151  0.00  0.00    -0.385 OA
ATOM     22  H2* UNL     1       5.649  -5.398  26.632  0.00  0.00    +0.210 HD
ENDBRANCH  18  21
BRANCH  16  23
ATOM     23  C5* UNL     1       2.757  -5.611  23.250  0.00  0.00    +0.190 C 
BRANCH  23  24
ATOM     24  O5* UNL     1       2.617  -6.895  22.634  0.00  0.00    -0.392 OA
ATOM     25  H5* UNL     1       2.386  -7.516  23.353  0.00  0.00    +0.210 HD
ENDBRANCH  23  24
ENDBRANCH  16  23
ENDBRANCH   4  14
BRANCH   1  27
ATOM     26  C   UNL     1       3.128  -1.946  27.537  0.00  0.00    +0.027 C 
ATOM     27  C   UNL     1       4.350  -2.640  28.140  0.00  0.00    +0.067 C 
ATOM     28  C   UNL     1       3.930  -3.506  29.323  0.00  0.00    +0.027 C 
ENDBRANCH   1  27
TORSDOF 6
ENDMDL
MODEL 5
REMARK VINA RESULT:      -5.8      1.858      4.247
REMARK  Name = 
REMARK  8 active torsions:
REMARK  status: ('A' for Active; 'I' for Inactive)
REMARK    1  A    between atoms: C_1  and  C_2
REMARK    2  A    between atoms: C_2  and  C_3
REMARK    3  A    between atoms: C_2  and  N_4
REMARK    4  A    between atoms: N_13  and  C1*_14
REMARK    5  A    between atoms: C2*_15  and  O2*_22
REMARK    6  A    between atoms: C3*_16  and  O3*_21
REMARK    7  A    between atoms: C4*_17  and  C5*_19
REMARK    8  A    between atoms: C5*_19  and  O5*_20
REMARK                            x       y       z     vdW  Elec       q    Type
REMARK                         _______ _______ _______ _____ _____    ______ ____
ROOT
ATOM      1  N   UNL     1       6.682  -4.508  22.895  0.00  0.00    -0.312 N 
ATOM      2  H   UNL     1       6.362  -4.972  23.737  0.00  0.00    +0.149 HD
ATOM      3  C   UNL     1       7.199  -3.256  22.941  0.00  0.00    +0.199 A 
ATOM      4  N   UNL     1       7.179  -2.482  24.090  0.00  0.00    -0.283 N 
ATOM      5  C   UNL     1       7.871  -1.319  23.824  0.00  0.00    +0.074 A 
ATOM      6  C   UNL     1       8.191  -1.419  22.473  0.00  0.00    +0.092 A 
ATOM      7  C   UNL     1       8.871  -0.377  21.830  0.00  0.00    +0.051 A 
ATOM      8  C   UNL     1       9.251   0.743  22.575  0.00  0.00    +0.061 A 
ATOM      9 CL   UNL     1      10.104   1.996  21.744  0.00  0.00    -0.082 Cl
ATOM     10  C   UNL     1       8.948   0.823  23.941  0.00  0.00    +0.061 A 
ATOM     11 CL   UNL     1       9.431   2.175  24.909  0.00  0.00    -0.082 Cl
ATOM     12  C   UNL     1       8.238  -0.202  24.589  0.00  0.00    +0.049 A 
ATOM     13  N   UNL     1       7.778  -2.614  21.957  0.00  0.00    -0.214 NA
ENDROOT
BRANCH   4  14
ATOM     14  C1* UNL     1       6.531  -2.903  25.314  0.00  0.00    +0.254 C 
ATOM     15  O4* UNL     1       6.852  -4.269  25.682  0.00  0.00    -0.346 OA
ATOM     16  C4* UNL     1       5.765  -4.729  26.536  0.00  0.00    +0.177 C 
ATOM     17  C3* UNL     1       4.742  -3.572  26.628  0.00  0.00    +0.178 C 
ATOM     18  C2* UNL     1       4.999  -2.841  25.319  0.00  0.00    +0.195 C 
BRANCH  17  19
ATOM     19  O3* UNL     1       4.972  -2.640  27.692  0.00  0.00    -0.386 OA
ATOM     20  H3* UNL     1       5.675  -2.987  28.284  0.00  0.00    +0.210 HD
ENDBRANCH  17  19
BRANCH  18  21
ATOM     21  O2* UNL     1       4.379  -3.546  24.238  0.00  0.00    -0.385 OA
ATOM     22  H2* UNL     1       3.923  -2.910  23.660  0.00  0.00    +0.210 HD
ENDBRANCH  18  21
BRANCH  16  23
ATOM     23  C5* UNL     1       6.338  -5.199  27.871  0.00  0.00    +0.190 C 
BRANCH  23  24
ATOM     24  O5* UNL     1       7.528  -5.958  27.643  0.00  0.00    -0.392 OA
ATOM     25  H5* UNL     1       7.316  -6.877  27.900  0.00  0.00    +0.210 HD
ENDBRANCH  23  24
ENDBRANCH  16  23
ENDBRANCH   4  14
BRANCH   1  27
ATOM     26  C   UNL     1       7.911  -6.587  22.640  0.00  0.00    +0.027 C 
ATOM     27  C   UNL     1       7.217  -5.443  21.901  0.00  0.00    +0.067 C 
ATOM     28  C   UNL     1       6.107  -5.992  21.009  0.00  0.00    +0.027 C 
ENDBRANCH   1  27
TORSDOF 6
ENDMDL
MODEL 6
REMARK VINA RESULT:      -5.7      4.867      6.823
REMARK  Name = 
REMARK  8 active torsions:
REMARK  status: ('A' for Active; 'I' for Inactive)
REMARK    1  A    between atoms: C_1  and  C_2
REMARK    2  A    between atoms: C_2  and  C_3
REMARK    3  A    between atoms: C_2  and  N_4
REMARK    4  A    between atoms: N_13  and  C1*_14
REMARK    5  A    between atoms: C2*_15  and  O2*_22
REMARK    6  A    between atoms: C3*_16  and  O3*_21
REMARK    7  A    between atoms: C4*_17  and  C5*_19
REMARK    8  A    between atoms: C5*_19  and  O5*_20
REMARK                            x       y       z     vdW  Elec       q    Type
REMARK                         _______ _______ _______ _____ _____    ______ ____
ROOT
ATOM      1  N   UNL     1       5.540   1.440  24.797  0.00  0.00    -0.312 N 
ATOM      2  H   UNL     1       6.232   2.120  24.503  0.00  0.00    +0.149 HD
ATOM      3  C   UNL     1       5.822   0.115  24.806  0.00  0.00    +0.199 A 
ATOM      4  N   UNL     1       6.992  -0.402  24.273  0.00  0.00    -0.283 N 
ATOM      5  C   UNL     1       7.010  -1.756  24.536  0.00  0.00    +0.074 A 
ATOM      6  C   UNL     1       5.780  -1.997  25.140  0.00  0.00    +0.092 A 
ATOM      7  C   UNL     1       5.421  -3.299  25.513  0.00  0.00    +0.051 A 
ATOM      8  C   UNL     1       6.332  -4.338  25.302  0.00  0.00    +0.061 A 
ATOM      9 CL   UNL     1       5.852  -5.925  25.794  0.00  0.00    -0.082 Cl
ATOM     10  C   UNL     1       7.579  -4.080  24.717  0.00  0.00    +0.061 A 
ATOM     11 CL   UNL     1       8.751  -5.331  24.470  0.00  0.00    -0.082 Cl
ATOM     12  C   UNL     1       7.937  -2.784  24.310  0.00  0.00    +0.049 A 
ATOM     13  N   UNL     1       5.074  -0.840  25.302  0.00  0.00    -0.214 NA
ENDROOT
BRANCH   4  14
ATOM     14  C1* UNL     1       7.974   0.411  23.587  0.00  0.00    +0.254 C 
ATOM     15  O4* UNL     1       8.307   1.624  24.308  0.00  0.00    -0.346 OA
ATOM     16  C4* UNL     1       8.816   2.564  23.317  0.00  0.00    +0.177 C 
ATOM     17  C3* UNL     1       8.730   1.859  21.942  0.00  0.00    +0.178 C 
ATOM     18  C2* UNL     1       7.589   0.881  22.178  0.00  0.00    +0.195 C 
BRANCH  17  19
ATOM     19  O3* UNL     1       9.884   1.094  21.577  0.00  0.00    -0.386 OA
ATOM     20  H3* UNL     1       9.890   0.955  20.604  0.00  0.00    +0.210 HD
ENDBRANCH  17  19
BRANCH  18  21
ATOM     21  O2* UNL     1       6.335   1.568  22.110  0.00  0.00    -0.385 OA
ATOM     22  H2* UNL     1       5.866   1.299  21.301  0.00  0.00    +0.210 HD
ENDBRANCH  18  21
BRANCH  16  23
ATOM     23  C5* UNL     1      10.214   3.020  23.727  0.00  0.00    +0.190 C 
BRANCH  23  24
ATOM     24  O5* UNL     1      10.925   3.486  22.577  0.00  0.00    -0.392 OA
ATOM     25  H5* UNL     1      11.846   3.635  22.870  0.00  0.00    +0.210 HD
ENDBRANCH  23  24
ENDBRANCH  16  23
ENDBRANCH   4  14
BRANCH   1  27
ATOM     26  C   UNL     1       5.476   2.480  26.992  0.00  0.00    +0.027 C 
ATOM     27  C   UNL     1       4.634   1.963  25.825  0.00  0.00    +0.067 C 
ATOM     28  C   UNL     1       3.762   3.085  25.271  0.00  0.00    +0.027 C 
ENDBRANCH   1  27
TORSDOF 6
ENDMDL
MODEL 7
REMARK VINA RESULT:      -5.6      4.338      6.217
REMARK  Name = 
REMARK  8 active torsions:
REMARK  status: ('A' for Active; 'I' for Inactive)
REMARK    1  A    between atoms: C_1  and  C_2
REMARK    2  A    between atoms: C_2  and  C_3
REMARK    3  A    between atoms: C_2  and  N_4
REMARK    4  A    between atoms: N_13  and  C1*_14
REMARK    5  A    between atoms: C2*_15  and  O2*_22
REMARK    6  A    between atoms: C3*_16  and  O3*_21
REMARK    7  A    between atoms: C4*_17  and  C5*_19
REMARK    8  A    between atoms: C5*_19  and  O5*_20
REMARK                            x       y       z     vdW  Elec       q    Type
REMARK                         _______ _______ _______ _____ _____    ______ ____
ROOT
ATOM      1  N   UNL     1       5.542   0.356  26.243  0.00  0.00    -0.312 N 
ATOM      2  H   UNL     1       6.350   0.964  26.178  0.00  0.00    +0.149 HD
ATOM      3  C   UNL     1       5.433  -0.746  25.461  0.00  0.00    +0.199 A 
ATOM      4  N   UNL     1       6.319  -1.021  24.433  0.00  0.00    -0.283 N 
ATOM      5  C   UNL     1       5.987  -2.254  23.912  0.00  0.00    +0.074 A 
ATOM      6  C   UNL     1       4.837  -2.614  24.607  0.00  0.00    +0.092 A 
ATOM      7  C   UNL     1       4.178  -3.814  24.308  0.00  0.00    +0.051 A 
ATOM      8  C   UNL     1       4.715  -4.654  23.328  0.00  0.00    +0.061 A 
ATOM      9 CL   UNL     1       3.878  -6.132  23.005  0.00  0.00    -0.082 Cl
ATOM     10  C   UNL     1       5.889  -4.295  22.652  0.00  0.00    +0.061 A 
ATOM     11 CL   UNL     1       6.608  -5.321  21.457  0.00  0.00    -0.082 Cl
ATOM     12  C   UNL     1       6.540  -3.079  22.921  0.00  0.00    +0.049 A 
ATOM     13  N   UNL     1       4.521  -1.682  25.554  0.00  0.00    -0.214 NA
ENDROOT
BRANCH   4  14
ATOM     14  C1* UNL     1       7.384  -0.120  24.046  0.00  0.00    +0.254 C 
ATOM     15  O4* UNL     1       7.631  -0.118  22.616  0.00  0.00    -0.346 OA
ATOM     16  C4* UNL     1       9.003   0.342  22.438  0.00  0.00    +0.177 C 
ATOM     17  C3* UNL     1       9.587   0.577  23.851  0.00  0.00    +0.178 C 
ATOM     18  C2* UNL     1       8.754  -0.386  24.684  0.00  0.00    +0.195 C 
BRANCH  17  19
ATOM     19  O3* UNL     1       9.384   1.891  24.383  0.00  0.00    -0.386 OA
ATOM     20  H3* UNL     1       8.460   2.175  24.208  0.00  0.00    +0.210 HD
ENDBRANCH  17  19
BRANCH  18  21
ATOM     21  O2* UNL     1       9.234  -1.723  24.508  0.00  0.00    -0.385 OA
ATOM     22  H2* UNL     1       9.259  -1.932  23.557  0.00  0.00    +0.210 HD
ENDBRANCH  18  21
BRANCH  16  23
ATOM     23  C5* UNL     1       9.009   1.561  21.520  0.00  0.00    +0.190 C 
BRANCH  23  24
ATOM     24  O5* UNL     1      10.267   2.234  21.623  0.00  0.00    -0.392 OA
ATOM     25  H5* UNL     1      10.903   1.572  21.959  0.00  0.00    +0.210 HD
ENDBRANCH  23  24
ENDBRANCH  16  23
ENDBRANCH   4  14
BRANCH   1  27
ATOM     26  C   UNL     1       6.064   0.723  28.587  0.00  0.00    +0.027 C 
ATOM     27  C   UNL     1       4.978   0.305  27.595  0.00  0.00    +0.067 C 
ATOM     28  C   UNL     1       3.769   1.227  27.722  0.00  0.00    +0.027 C 
ENDBRANCH   1  27
TORSDOF 6
ENDMDL
MODEL 8
REMARK VINA RESULT:      -5.6      3.829      5.691
REMARK  Name = 
REMARK  8 active torsions:
REMARK  status: ('A' for Active; 'I' for Inactive)
REMARK    1  A    between atoms: C_1  and  C_2
REMARK    2  A    between atoms: C_2  and  C_3
REMARK    3  A    between atoms: C_2  and  N_4
REMARK    4  A    between atoms: N_13  and  C1*_14
REMARK    5  A    between atoms: C2*_15  and  O2*_22
REMARK    6  A    between atoms: C3*_16  and  O3*_21
REMARK    7  A    between atoms: C4*_17  and  C5*_19
REMARK    8  A    between atoms: C5*_19  and  O5*_20
REMARK                            x       y       z     vdW  Elec       q    Type
REMARK                         _______ _______ _______ _____ _____    ______ ____
ROOT
ATOM      1  N   UNL     1       8.650  -0.242  23.621  0.00  0.00    -0.312 N 
ATOM      2  H   UNL     1       9.134  -1.131  23.665  0.00  0.00    +0.149 HD
ATOM      3  C   UNL     1       7.506  -0.033  24.317  0.00  0.00    +0.199 A 
ATOM      4  N   UNL     1       6.849  -1.047  24.993  0.00  0.00    -0.283 N 
ATOM      5  C   UNL     1       5.791  -0.480  25.673  0.00  0.00    +0.074 A 
ATOM      6  C   UNL     1       5.816   0.855  25.281  0.00  0.00    +0.092 A 
ATOM      7  C   UNL     1       4.840   1.745  25.748  0.00  0.00    +0.051 A 
ATOM      8  C   UNL     1       3.868   1.277  26.637  0.00  0.00    +0.061 A 
ATOM      9 CL   UNL     1       2.695   2.416  27.201  0.00  0.00    -0.082 Cl
ATOM     10  C   UNL     1       3.868  -0.063  27.047  0.00  0.00    +0.061 A 
ATOM     11 CL   UNL     1       2.705  -0.676  28.174  0.00  0.00    -0.082 Cl
ATOM     12  C   UNL     1       4.822  -0.972  26.561  0.00  0.00    +0.049 A 
ATOM     13  N   UNL     1       6.876   1.107  24.460  0.00  0.00    -0.214 NA
ENDROOT
BRANCH   4  14
ATOM     14  C1* UNL     1       7.273  -2.431  24.947  0.00  0.00    +0.254 C 
ATOM     15  O4* UNL     1       8.705  -2.589  25.112  0.00  0.00    -0.346 OA
ATOM     16  C4* UNL     1       9.049  -3.868  24.506  0.00  0.00    +0.177 C 
ATOM     17  C3* UNL     1       7.742  -4.457  23.924  0.00  0.00    +0.178 C 
ATOM     18  C2* UNL     1       6.936  -3.194  23.660  0.00  0.00    +0.195 C 
BRANCH  17  19
ATOM     19  O3* UNL     1       6.985  -5.269  24.828  0.00  0.00    -0.386 OA
ATOM     20  H3* UNL     1       6.433  -4.693  25.402  0.00  0.00    +0.210 HD
ENDBRANCH  17  19
BRANCH  18  21
ATOM     21  O2* UNL     1       7.400  -2.561  22.463  0.00  0.00    -0.385 OA
ATOM     22  H2* UNL     1       6.678  -2.542  21.810  0.00  0.00    +0.210 HD
ENDBRANCH  18  21
BRANCH  16  23
ATOM     23  C5* UNL     1       9.752  -4.743  25.541  0.00  0.00    +0.190 C 
BRANCH  23  24
ATOM     24  O5* UNL     1       9.818  -6.091  25.067  0.00  0.00    -0.392 OA
ATOM     25  H5* UNL     1      10.398  -6.570  25.692  0.00  0.00    +0.210 HD
ENDBRANCH  23  24
ENDBRANCH  16  23
ENDBRANCH   4  14
BRANCH   1  27
ATOM     26  C   UNL     1      10.807   0.655  24.287  0.00  0.00    +0.027 C 
ATOM     27  C   UNL     1       9.562   0.890  23.430  0.00  0.00    +0.067 C 
ATOM     28  C   UNL     1       9.956   1.038  21.964  0.00  0.00    +0.027 C 
ENDBRANCH   1  27
TORSDOF 6
ENDMDL
MODEL 9
REMARK VINA RESULT:      -5.6      3.973      6.050
REMARK  Name = 
REMARK  8 active torsions:
REMARK  status: ('A' for Active; 'I' for Inactive)
REMARK    1  A    between atoms: C_1  and  C_2
REMARK    2  A    between atoms: C_2  and  C_3
REMARK    3  A    between atoms: C_2  and  N_4
REMARK    4  A    between atoms: N_13  and  C1*_14
REMARK    5  A    between atoms: C2*_15  and  O2*_22
REMARK    6  A    between atoms: C3*_16  and  O3*_21
REMARK    7  A    between atoms: C4*_17  and  C5*_19
REMARK    8  A    between atoms: C5*_19  and  O5*_20
REMARK                            x       y       z     vdW  Elec       q    Type
REMARK                         _______ _______ _______ _____ _____    ______ ____
ROOT
ATOM      1  N   UNL     1       7.265  -3.240  23.439  0.00  0.00    -0.312 N 
ATOM      2  H   UNL     1       7.790  -2.649  22.804  0.00  0.00    +0.149 HD
ATOM      3  C   UNL     1       6.739  -2.742  24.584  0.00  0.00    +0.199 A 
ATOM      4  N   UNL     1       7.011  -1.461  25.034  0.00  0.00    -0.283 N 
ATOM      5  C   UNL     1       6.243  -1.239  26.158  0.00  0.00    +0.074 A 
ATOM      6  C   UNL     1       5.612  -2.459  26.380  0.00  0.00    +0.092 A 
ATOM      7  C   UNL     1       4.769  -2.627  27.486  0.00  0.00    +0.051 A 
ATOM      8  C   UNL     1       4.547  -1.540  28.337  0.00  0.00    +0.061 A 
ATOM      9 CL   UNL     1       3.485  -1.788  29.679  0.00  0.00    -0.082 Cl
ATOM     10  C   UNL     1       5.166  -0.307  28.090  0.00  0.00    +0.061 A 
ATOM     11 CL   UNL     1       4.891   1.074  29.097  0.00  0.00    -0.082 Cl
ATOM     12  C   UNL     1       6.039  -0.137  27.002  0.00  0.00    +0.049 A 
ATOM     13  N   UNL     1       5.923  -3.360  25.402  0.00  0.00    -0.214 NA
ENDROOT
BRANCH   4  14
ATOM     14  C1* UNL     1       7.945  -0.573  24.373  0.00  0.00    +0.254 C 
ATOM     15  O4* UNL     1       7.774  -0.545  22.933  0.00  0.00    -0.346 OA
ATOM     16  C4* UNL     1       9.049  -0.109  22.378  0.00  0.00    +0.177 C 
ATOM     17  C3* UNL     1      10.018   0.083  23.569  0.00  0.00    +0.178 C 
ATOM     18  C2* UNL     1       9.432  -0.881  24.590  0.00  0.00    +0.195 C 
BRANCH  17  19
ATOM     19  O3* UNL     1      10.008   1.389  24.156  0.00  0.00    -0.386 OA
ATOM     20  H3* UNL     1       9.479   1.997  23.594  0.00  0.00    +0.210 HD
ENDBRANCH  17  19
BRANCH  18  21
ATOM     21  O2* UNL     1       9.807  -2.223  24.263  0.00  0.00    -0.385 OA
ATOM     22  H2* UNL     1       9.006  -2.772  24.192  0.00  0.00    +0.210 HD
ENDBRANCH  18  21
BRANCH  16  23
ATOM     23  C5* UNL     1       8.825   1.130  21.515  0.00  0.00    +0.190 C 
BRANCH  23  24
ATOM     24  O5* UNL     1      10.010   1.931  21.506  0.00  0.00    -0.392 OA
ATOM     25  H5* UNL     1       9.997   2.444  22.338  0.00  0.00    +0.210 HD
ENDBRANCH  23  24
ENDBRANCH  16  23
ENDBRANCH   4  14
BRANCH   1  27
ATOM     26  C   UNL     1       5.936  -3.727  21.464  0.00  0.00    +0.027 C 
ATOM     27  C   UNL     1       6.534  -4.306  22.746  0.00  0.00    +0.067 C 
ATOM     28  C   UNL     1       7.454  -5.477  22.413  0.00  0.00    +0.027 C 
ENDBRANCH   1  27
TORSDOF 6
ENDMDL
