MODEL 1
REMARK VINA RESULT:      -7.6      0.000      0.000
REMARK  Name = 
REMARK  17 active torsions:
REMARK  status: ('A' for Active; 'I' for Inactive)
REMARK    1  A    between atoms: C_1  and  C_2
REMARK    2  A    between atoms: C_2  and  C_3
REMARK    3  A    between atoms: C_2  and  C_4
REMARK    4  A    between atoms: C_2  and  N_5
REMARK    5  A    between atoms: C_6  and  C_8
REMARK    6  A    between atoms: N_20  and  C_21
REMARK    7  A    between atoms: C_21  and  C_22
REMARK    8  A    between atoms: C_22  and  C_24
REMARK    9  A    between atoms: C_22  and  O_55
REMARK   10  A    between atoms: C_24  and  C_26
REMARK   11  A    between atoms: C_24  and  N_33
REMARK   12  A    between atoms: C_26  and  C_27
REMARK   13  A    between atoms: C_34  and  C_36
REMARK   14  A    between atoms: C_36  and  C_38
REMARK   15  A    between atoms: C_36  and  N_42
REMARK   16  A    between atoms: C_38  and  C_39
REMARK   17  A    between atoms: C_43  and  C_45
REMARK                            x       y       z     vdW  Elec       q    Type
REMARK                         _______ _______ _______ _____ _____    ______ ____
ROOT
ATOM      1  C   UNL     1       8.195   1.956  23.951  0.00  0.00    +0.107 C 
ENDROOT
BRANCH   1   2
ATOM      2  N   UNL     1       7.827   0.453  24.083  0.00  0.00    -0.308 N 
ATOM      3  H   UNL     1       7.026   0.206  24.651  0.00  0.00    +0.149 HD
ATOM      4  C   UNL     1       8.387  -0.558  23.295  0.00  0.00    +0.234 C 
ATOM      5  O   UNL     1       9.263  -0.265  22.482  0.00  0.00    -0.274 OA
BRANCH   4   6
ATOM      6  C   UNL     1       8.088  -2.190  23.546  0.00  0.00    +0.168 C 
BRANCH   6   7
ATOM      7  N   UNL     1       6.865  -3.034  24.021  0.00  0.00    -0.298 N 
ATOM      8  H   UNL     1       6.924  -3.446  24.947  0.00  0.00    +0.150 HD
ATOM      9  C   UNL     1       5.947  -3.609  23.099  0.00  0.00    +0.263 C 
ATOM     10  O   UNL     1       5.901  -3.111  21.965  0.00  0.00    -0.269 OA
BRANCH   9  11
ATOM     11  C   UNL     1       4.996  -4.858  23.346  0.00  0.00    +0.126 A 
ATOM     12  C   UNL     1       5.463  -5.756  24.320  0.00  0.00    +0.033 A 
ATOM     13  C   UNL     1       4.654  -6.791  24.805  0.00  0.00    +0.012 A 
ATOM     14  C   UNL     1       3.373  -6.972  24.318  0.00  0.00    +0.000 A 
ATOM     15  C   UNL     1       2.966  -6.120  23.256  0.00  0.00    +0.072 A 
ATOM     16  C   UNL     1       1.685  -6.476  22.756  0.00  0.00    +0.028 A 
ATOM     17  C   UNL     1       0.851  -7.478  23.308  0.00  0.00    +0.002 A 
ATOM     18  C   UNL     1       1.269  -8.215  24.413  0.00  0.00    +0.001 A 
ATOM     19  C   UNL     1       2.548  -7.970  24.891  0.00  0.00    +0.010 A 
ATOM     20  N   UNL     1       3.761  -5.057  22.784  0.00  0.00    -0.242 NA
ENDBRANCH   9  11
ENDBRANCH   6   7
BRANCH   6  21
ATOM     21  C   UNL     1       9.384  -2.728  24.217  0.00  0.00    +0.127 C 
BRANCH  21  22
ATOM     22  C   UNL     1       9.152  -4.059  24.895  0.00  0.00    +0.213 C 
ATOM     23  N   UNL     1       9.162  -4.027  26.260  0.00  0.00    -0.329 N 
ATOM     24  H   UNL     1       8.899  -4.897  26.708  0.00  0.00    +0.145 HD
ATOM     25  H   UNL     1       8.972  -3.177  26.772  0.00  0.00    +0.145 HD
ATOM     26  O   UNL     1       9.031  -5.112  24.286  0.00  0.00    -0.276 OA
ENDBRANCH  21  22
ENDBRANCH   6  21
ENDBRANCH   4   6
ENDBRANCH   1   2
BRANCH   1  27
ATOM     27  C   UNL     1       7.755   2.631  22.558  0.00  0.00    +0.149 C 
BRANCH  27  28
ATOM     28  O   UNL     1       8.648   2.307  21.483  0.00  0.00    -0.389 OA
ATOM     29  H   UNL     1       9.529   2.550  21.835  0.00  0.00    +0.210 HD
ENDBRANCH  27  28
BRANCH  27  30
ATOM     30  C   UNL     1       6.286   2.297  22.016  0.00  0.00    +0.118 C 
BRANCH  30  32
ATOM     31  C   UNL     1       4.162   3.221  23.040  0.00  0.00    +0.143 C 
ATOM     32  N   UNL     1       5.376   3.446  22.222  0.00  0.00    -0.289 NA
ATOM     33  C   UNL     1       6.012   4.736  22.515  0.00  0.00    +0.089 C 
ATOM     34  C   UNL     1       6.172   5.108  24.002  0.00  0.00    +0.006 C 
ATOM     35  C   UNL     1       4.871   4.932  24.797  0.00  0.00    -0.005 C 
ATOM     36  C   UNL     1       5.102   5.266  26.283  0.00  0.00    +0.004 C 
ATOM     37  C   UNL     1       5.594   6.711  26.434  0.00  0.00    +0.000 C 
ATOM     38  C   UNL     1       6.832   6.983  25.582  0.00  0.00    +0.000 C 
ATOM     39  C   UNL     1       6.629   6.572  24.125  0.00  0.00    +0.005 C 
ATOM     40  C   UNL     1       4.303   3.531  24.551  0.00  0.00    +0.032 C 
BRANCH  31  43
ATOM     41  N   UNL     1       2.921   3.934  21.030  0.00  0.00    -0.309 N 
ATOM     42  H   UNL     1       3.383   3.116  20.648  0.00  0.00    +0.149 HD
ATOM     43  C   UNL     1       3.028   4.084  22.406  0.00  0.00    +0.231 C 
ATOM     44  O   UNL     1       2.295   4.820  23.061  0.00  0.00    -0.274 OA
BRANCH  41  46
ATOM     45  C   UNL     1       1.935   6.066  20.213  0.00  0.00    +0.031 C 
ATOM     46  C   UNL     1       1.828   4.530  20.252  0.00  0.00    +0.026 C 
ATOM     47  C   UNL     1       1.921   4.048  18.793  0.00  0.00    +0.031 C 
ATOM     48  C   UNL     1       0.496   4.082  20.874  0.00  0.00    +0.031 C 
ENDBRANCH  41  46
ENDBRANCH  31  43
ENDBRANCH  30  32
ENDBRANCH  27  30
ENDBRANCH   1  27
BRANCH   1  49
ATOM     49  C   UNL     1       9.735   2.230  24.033  0.00  0.00    +0.060 C 
BRANCH  49  50
ATOM     50  C   UNL     1      10.407   3.572  23.900  0.00  0.00    -0.046 A 
ATOM     51  C   UNL     1       9.749   4.685  24.479  0.00  0.00    +0.004 A 
ATOM     52  C   UNL     1      10.314   5.959  24.458  0.00  0.00    +0.000 A 
ATOM     53  C   UNL     1      11.551   6.144  23.856  0.00  0.00    +0.000 A 
ATOM     54  C   UNL     1      12.215   5.055  23.288  0.00  0.00    +0.000 A 
ATOM     55  C   UNL     1      11.652   3.774  23.313  0.00  0.00    +0.004 A 
ENDBRANCH  49  50
ENDBRANCH   1  49
TORSDOF 14
ENDMDL
MODEL 2
REMARK VINA RESULT:      -7.4      3.222      8.450
REMARK  Name = 
REMARK  17 active torsions:
REMARK  status: ('A' for Active; 'I' for Inactive)
REMARK    1  A    between atoms: C_1  and  C_2
REMARK    2  A    between atoms: C_2  and  C_3
REMARK    3  A    between atoms: C_2  and  C_4
REMARK    4  A    between atoms: C_2  and  N_5
REMARK    5  A    between atoms: C_6  and  C_8
REMARK    6  A    between atoms: N_20  and  C_21
REMARK    7  A    between atoms: C_21  and  C_22
REMARK    8  A    between atoms: C_22  and  C_24
REMARK    9  A    between atoms: C_22  and  O_55
REMARK   10  A    between atoms: C_24  and  C_26
REMARK   11  A    between atoms: C_24  and  N_33
REMARK   12  A    between atoms: C_26  and  C_27
REMARK   13  A    between atoms: C_34  and  C_36
REMARK   14  A    between atoms: C_36  and  C_38
REMARK   15  A    between atoms: C_36  and  N_42
REMARK   16  A    between atoms: C_38  and  C_39
REMARK   17  A    between atoms: C_43  and  C_45
REMARK                            x       y       z     vdW  Elec       q    Type
REMARK                         _______ _______ _______ _____ _____    ______ ____
ROOT
ATOM      1  C   UNL     1       6.134  -0.458  27.222  0.00  0.00    +0.107 C 
ENDROOT
BRANCH   1   2
ATOM      2  N   UNL     1       4.709   0.107  26.974  0.00  0.00    -0.308 N 
ATOM      3  H   UNL     1       4.335   0.059  26.034  0.00  0.00    +0.149 HD
ATOM      4  C   UNL     1       3.826   0.469  27.996  0.00  0.00    +0.234 C 
ATOM      5  O   UNL     1       4.202   0.393  29.165  0.00  0.00    -0.274 OA
BRANCH   4   6
ATOM      6  C   UNL     1       2.347   1.209  27.713  0.00  0.00    +0.168 C 
BRANCH   6   7
ATOM      7  N   UNL     1       1.748   2.093  26.576  0.00  0.00    -0.298 N 
ATOM      8  H   UNL     1       0.827   1.838  26.233  0.00  0.00    +0.150 HD
ATOM      9  C   UNL     1       2.571   2.887  25.731  0.00  0.00    +0.263 C 
ATOM     10  O   UNL     1       3.701   3.174  26.152  0.00  0.00    -0.269 OA
BRANCH   9  11
ATOM     11  C   UNL     1       2.221   3.418  24.274  0.00  0.00    +0.126 A 
ATOM     12  C   UNL     1       2.461   4.789  24.086  0.00  0.00    +0.033 A 
ATOM     13  C   UNL     1       2.404   5.372  22.814  0.00  0.00    +0.012 A 
ATOM     14  C   UNL     1       2.087   4.612  21.704  0.00  0.00    +0.000 A 
ATOM     15  C   UNL     1       1.742   3.253  21.936  0.00  0.00    +0.072 A 
ATOM     16  C   UNL     1       1.317   2.605  20.745  0.00  0.00    +0.028 A 
ATOM     17  C   UNL     1       1.338   3.189  19.456  0.00  0.00    +0.002 A 
ATOM     18  C   UNL     1       1.781   4.498  19.280  0.00  0.00    +0.001 A 
ATOM     19  C   UNL     1       2.126   5.208  20.420  0.00  0.00    +0.010 A 
ATOM     20  N   UNL     1       1.826   2.652  23.207  0.00  0.00    -0.242 NA
ENDBRANCH   9  11
ENDBRANCH   6   7
BRANCH   6  21
ATOM     21  C   UNL     1       1.926   1.785  29.096  0.00  0.00    +0.127 C 
BRANCH  21  22
ATOM     22  C   UNL     1       2.169   3.274  29.180  0.00  0.00    +0.213 C 
ATOM     23  N   UNL     1       3.464   3.641  29.410  0.00  0.00    -0.329 N 
ATOM     24  H   UNL     1       3.640   4.638  29.357  0.00  0.00    +0.145 HD
ATOM     25  H   UNL     1       4.237   3.031  29.183  0.00  0.00    +0.145 HD
ATOM     26  O   UNL     1       1.276   4.107  29.118  0.00  0.00    -0.276 OA
ENDBRANCH  21  22
ENDBRANCH   6  21
ENDBRANCH   4   6
ENDBRANCH   1   2
BRANCH   1  27
ATOM     27  C   UNL     1       7.280   0.662  27.370  0.00  0.00    +0.149 C 
BRANCH  27  28
ATOM     28  O   UNL     1       8.551   0.219  26.877  0.00  0.00    -0.389 OA
ATOM     29  H   UNL     1       8.357  -0.666  26.506  0.00  0.00    +0.210 HD
ENDBRANCH  27  28
BRANCH  27  30
ATOM     30  C   UNL     1       7.012   2.077  26.670  0.00  0.00    +0.118 C 
BRANCH  30  32
ATOM     31  C   UNL     1       6.591   1.831  24.185  0.00  0.00    +0.143 C 
ATOM     32  N   UNL     1       7.545   2.090  25.289  0.00  0.00    -0.289 NA
ATOM     33  C   UNL     1       8.491   3.163  24.966  0.00  0.00    +0.089 C 
ATOM     34  C   UNL     1       7.903   4.436  24.325  0.00  0.00    +0.006 C 
ATOM     35  C   UNL     1       6.982   4.127  23.137  0.00  0.00    -0.005 C 
ATOM     36  C   UNL     1       6.382   5.428  22.571  0.00  0.00    +0.004 C 
ATOM     37  C   UNL     1       7.499   6.372  22.110  0.00  0.00    +0.000 C 
ATOM     38  C   UNL     1       8.514   6.639  23.220  0.00  0.00    +0.000 C 
ATOM     39  C   UNL     1       9.044   5.346  23.837  0.00  0.00    +0.005 C 
ATOM     40  C   UNL     1       5.938   3.086  23.554  0.00  0.00    +0.032 C 
BRANCH  31  43
ATOM     41  N   UNL     1       8.237   0.075  23.641  0.00  0.00    -0.309 N 
ATOM     42  H   UNL     1       8.077  -0.156  24.616  0.00  0.00    +0.149 HD
ATOM     43  C   UNL     1       7.366   1.015  23.106  0.00  0.00    +0.231 C 
ATOM     44  O   UNL     1       7.216   1.181  21.899  0.00  0.00    -0.274 OA
BRANCH  41  46
ATOM     45  C   UNL     1       9.622  -0.236  21.599  0.00  0.00    +0.031 C 
ATOM     46  C   UNL     1       8.949  -0.905  22.813  0.00  0.00    +0.026 C 
ATOM     47  C   UNL     1      10.080  -1.544  23.641  0.00  0.00    +0.031 C 
ATOM     48  C   UNL     1       7.945  -1.980  22.368  0.00  0.00    +0.031 C 
ENDBRANCH  41  46
ENDBRANCH  31  43
ENDBRANCH  30  32
ENDBRANCH  27  30
ENDBRANCH   1  27
BRANCH   1  49
ATOM     49  C   UNL     1       6.652  -1.375  26.063  0.00  0.00    +0.060 C 
BRANCH  49  50
ATOM     50  C   UNL     1       7.122  -2.800  26.198  0.00  0.00    -0.046 A 
ATOM     51  C   UNL     1       6.192  -3.820  25.878  0.00  0.00    +0.004 A 
ATOM     52  C   UNL     1       6.545  -5.167  25.918  0.00  0.00    +0.000 A 
ATOM     53  C   UNL     1       7.837  -5.522  26.282  0.00  0.00    +0.000 A 
ATOM     54  C   UNL     1       8.767  -4.526  26.593  0.00  0.00    +0.000 A 
ATOM     55  C   UNL     1       8.415  -3.172  26.547  0.00  0.00    +0.004 A 
ENDBRANCH  49  50
ENDBRANCH   1  49
TORSDOF 14
ENDMDL
MODEL 3
REMARK VINA RESULT:      -7.1      3.057      8.340
REMARK  Name = 
REMARK  17 active torsions:
REMARK  status: ('A' for Active; 'I' for Inactive)
REMARK    1  A    between atoms: C_1  and  C_2
REMARK    2  A    between atoms: C_2  and  C_3
REMARK    3  A    between atoms: C_2  and  C_4
REMARK    4  A    between atoms: C_2  and  N_5
REMARK    5  A    between atoms: C_6  and  C_8
REMARK    6  A    between atoms: N_20  and  C_21
REMARK    7  A    between atoms: C_21  and  C_22
REMARK    8  A    between atoms: C_22  and  C_24
REMARK    9  A    between atoms: C_22  and  O_55
REMARK   10  A    between atoms: C_24  and  C_26
REMARK   11  A    between atoms: C_24  and  N_33
REMARK   12  A    between atoms: C_26  and  C_27
REMARK   13  A    between atoms: C_34  and  C_36
REMARK   14  A    between atoms: C_36  and  C_38
REMARK   15  A    between atoms: C_36  and  N_42
REMARK   16  A    between atoms: C_38  and  C_39
REMARK   17  A    between atoms: C_43  and  C_45
REMARK                            x       y       z     vdW  Elec       q    Type
REMARK                         _______ _______ _______ _____ _____    ______ ____
ROOT
ATOM      1  C   UNL     1       4.385  -2.279  25.688  0.00  0.00    +0.107 C 
ENDROOT
BRANCH   1   2
ATOM      2  N   UNL     1       5.856  -1.791  25.796  0.00  0.00    -0.308 N 
ATOM      3  H   UNL     1       6.045  -0.811  25.628  0.00  0.00    +0.149 HD
ATOM      4  C   UNL     1       6.896  -2.563  26.323  0.00  0.00    +0.234 C 
ATOM      5  O   UNL     1       6.662  -3.717  26.679  0.00  0.00    -0.274 OA
BRANCH   4   6
ATOM      6  C   UNL     1       8.502  -2.078  26.301  0.00  0.00    +0.168 C 
BRANCH   6   7
ATOM      7  N   UNL     1       9.285  -0.856  25.728  0.00  0.00    -0.298 N 
ATOM      8  H   UNL     1       9.986  -0.437  26.331  0.00  0.00    +0.150 HD
ATOM      9  C   UNL     1       8.767  -0.064  24.667  0.00  0.00    +0.263 C 
ATOM     10  O   UNL     1       7.896  -0.581  23.952  0.00  0.00    -0.269 OA
BRANCH   9  11
ATOM     11  C   UNL     1       9.148   1.438  24.316  0.00  0.00    +0.126 A 
ATOM     12  C   UNL     1       8.162   2.378  24.657  0.00  0.00    +0.033 A 
ATOM     13  C   UNL     1       8.418   3.754  24.608  0.00  0.00    +0.012 A 
ATOM     14  C   UNL     1       9.651   4.227  24.199  0.00  0.00    +0.000 A 
ATOM     15  C   UNL     1      10.593   3.260  23.755  0.00  0.00    +0.072 A 
ATOM     16  C   UNL     1      11.772   3.867  23.246  0.00  0.00    +0.028 A 
ATOM     17  C   UNL     1      12.043   5.256  23.274  0.00  0.00    +0.002 A 
ATOM     18  C   UNL     1      11.118   6.146  23.812  0.00  0.00    +0.001 A 
ATOM     19  C   UNL     1       9.911   5.619  24.246  0.00  0.00    +0.010 A 
ATOM     20  N   UNL     1      10.354   1.874  23.830  0.00  0.00    -0.242 NA
ENDBRANCH   9  11
ENDBRANCH   6   7
BRANCH   6  21
ATOM     21  C   UNL     1       9.302  -3.384  26.026  0.00  0.00    +0.127 C 
BRANCH  21  22
ATOM     22  C   UNL     1       9.341  -3.716  24.553  0.00  0.00    +0.213 C 
ATOM     23  N   UNL     1       8.553  -4.765  24.171  0.00  0.00    -0.329 N 
ATOM     24  H   UNL     1       8.499  -4.914  23.170  0.00  0.00    +0.145 HD
ATOM     25  H   UNL     1       7.753  -5.054  24.717  0.00  0.00    +0.145 HD
ATOM     26  O   UNL     1      10.070  -3.147  23.753  0.00  0.00    -0.276 OA
ENDBRANCH  21  22
ENDBRANCH   6  21
ENDBRANCH   4   6
ENDBRANCH   1   2
BRANCH   1  27
ATOM     27  C   UNL     1       3.649  -2.496  27.102  0.00  0.00    +0.149 C 
BRANCH  27  28
ATOM     28  O   UNL     1       4.202  -3.588  27.850  0.00  0.00    -0.389 OA
ATOM     29  H   UNL     1       3.686  -4.361  27.542  0.00  0.00    +0.210 HD
ENDBRANCH  27  28
BRANCH  27  30
ATOM     30  C   UNL     1       3.621  -1.251  28.110  0.00  0.00    +0.118 C 
BRANCH  30  32
ATOM     31  C   UNL     1       3.443   1.144  27.309  0.00  0.00    +0.143 C 
ATOM     32  N   UNL     1       4.271  -0.068  27.502  0.00  0.00    -0.289 NA
ATOM     33  C   UNL     1       5.620   0.251  27.981  0.00  0.00    +0.089 C 
ATOM     34  C   UNL     1       5.725   1.279  29.125  0.00  0.00    +0.006 C 
ATOM     35  C   UNL     1       4.913   2.552  28.851  0.00  0.00    -0.005 C 
ATOM     36  C   UNL     1       5.010   3.517  30.047  0.00  0.00    +0.004 C 
ATOM     37  C   UNL     1       6.473   3.898  30.306  0.00  0.00    +0.000 C 
ATOM     38  C   UNL     1       7.359   2.667  30.485  0.00  0.00    +0.000 C 
ATOM     39  C   UNL     1       7.197   1.672  29.339  0.00  0.00    +0.005 C 
ATOM     40  C   UNL     1       3.479   2.175  28.465  0.00  0.00    +0.032 C 
BRANCH  31  43
ATOM     41  N   UNL     1       3.280   3.004  25.695  0.00  0.00    -0.309 N 
ATOM     42  H   UNL     1       2.809   3.437  26.483  0.00  0.00    +0.149 HD
ATOM     43  C   UNL     1       3.914   1.801  25.975  0.00  0.00    +0.231 C 
ATOM     44  O   UNL     1       4.769   1.307  25.245  0.00  0.00    -0.274 OA
BRANCH  41  46
ATOM     45  C   UNL     1       2.630   4.964  24.309  0.00  0.00    +0.031 C 
ATOM     46  C   UNL     1       3.678   3.867  24.577  0.00  0.00    +0.026 C 
ATOM     47  C   UNL     1       4.988   4.592  24.936  0.00  0.00    +0.031 C 
ATOM     48  C   UNL     1       3.884   2.983  23.337  0.00  0.00    +0.031 C 
ENDBRANCH  41  46
ENDBRANCH  31  43
ENDBRANCH  30  32
ENDBRANCH  27  30
ENDBRANCH   1  27
BRANCH   1  49
ATOM     49  C   UNL     1       4.239  -3.664  24.972  0.00  0.00    +0.060 C 
BRANCH  49  50
ATOM     50  C   UNL     1       4.959  -4.099  23.721  0.00  0.00    -0.046 A 
ATOM     51  C   UNL     1       5.064  -5.492  23.488  0.00  0.00    +0.004 A 
ATOM     52  C   UNL     1       5.663  -5.996  22.335  0.00  0.00    +0.000 A 
ATOM     53  C   UNL     1       6.171  -5.113  21.391  0.00  0.00    +0.000 A 
ATOM     54  C   UNL     1       6.069  -3.736  21.605  0.00  0.00    +0.000 A 
ATOM     55  C   UNL     1       5.462  -3.229  22.760  0.00  0.00    +0.004 A 
ENDBRANCH  49  50
ENDBRANCH   1  49
TORSDOF 14
ENDMDL
MODEL 4
REMARK VINA RESULT:      -7.0      3.020      4.532
REMARK  Name = 
REMARK  17 active torsions:
REMARK  status: ('A' for Active; 'I' for Inactive)
REMARK    1  A    between atoms: C_1  and  C_2
REMARK    2  A    between atoms: C_2  and  C_3
REMARK    3  A    between atoms: C_2  and  C_4
REMARK    4  A    between atoms: C_2  and  N_5
REMARK    5  A    between atoms: C_6  and  C_8
REMARK    6  A    between atoms: N_20  and  C_21
REMARK    7  A    between atoms: C_21  and  C_22
REMARK    8  A    between atoms: C_22  and  C_24
REMARK    9  A    between atoms: C_22  and  O_55
REMARK   10  A    between atoms: C_24  and  C_26
REMARK   11  A    between atoms: C_24  and  N_33
REMARK   12  A    between atoms: C_26  and  C_27
REMARK   13  A    between atoms: C_34  and  C_36
REMARK   14  A    between atoms: C_36  and  C_38
REMARK   15  A    between atoms: C_36  and  N_42
REMARK   16  A    between atoms: C_38  and  C_39
REMARK   17  A    between atoms: C_43  and  C_45
REMARK                            x       y       z     vdW  Elec       q    Type
REMARK                         _______ _______ _______ _____ _____    ______ ____
ROOT
ATOM      1  C   UNL     1       7.960   4.276  25.694  0.00  0.00    +0.107 C 
ENDROOT
BRANCH   1   2
ATOM      2  N   UNL     1       7.276   2.915  25.994  0.00  0.00    -0.308 N 
ATOM      3  H   UNL     1       7.157   2.263  25.228  0.00  0.00    +0.149 HD
ATOM      4  C   UNL     1       7.018   2.440  27.283  0.00  0.00    +0.234 C 
ATOM      5  O   UNL     1       7.294   3.151  28.248  0.00  0.00    -0.274 OA
BRANCH   4   6
ATOM      6  C   UNL     1       6.151   1.036  27.589  0.00  0.00    +0.168 C 
BRANCH   6   7
ATOM      7  N   UNL     1       5.860  -0.282  26.807  0.00  0.00    -0.298 N 
ATOM      8  H   UNL     1       6.179  -1.147  27.230  0.00  0.00    +0.150 HD
ATOM      9  C   UNL     1       5.615  -0.283  25.406  0.00  0.00    +0.263 C 
ATOM     10  O   UNL     1       5.247   0.786  24.897  0.00  0.00    -0.269 OA
BRANCH   9  11
ATOM     11  C   UNL     1       5.802  -1.500  24.400  0.00  0.00    +0.126 A 
ATOM     12  C   UNL     1       6.860  -1.338  23.490  0.00  0.00    +0.033 A 
ATOM     13  C   UNL     1       7.292  -2.394  22.678  0.00  0.00    +0.012 A 
ATOM     14  C   UNL     1       6.670  -3.627  22.736  0.00  0.00    +0.000 A 
ATOM     15  C   UNL     1       5.534  -3.732  23.584  0.00  0.00    +0.072 A 
ATOM     16  C   UNL     1       4.906  -5.001  23.470  0.00  0.00    +0.028 A 
ATOM     17  C   UNL     1       5.401  -6.081  22.701  0.00  0.00    +0.002 A 
ATOM     18  C   UNL     1       6.576  -5.947  21.966  0.00  0.00    +0.001 A 
ATOM     19  C   UNL     1       7.186  -4.701  21.971  0.00  0.00    +0.010 A 
ATOM     20  N   UNL     1       5.112  -2.684  24.426  0.00  0.00    -0.242 NA
ENDBRANCH   9  11
ENDBRANCH   6   7
BRANCH   6  21
ATOM     21  C   UNL     1       4.849   1.523  28.289  0.00  0.00    +0.127 C 
BRANCH  21  22
ATOM     22  C   UNL     1       3.989   0.365  28.738  0.00  0.00    +0.213 C 
ATOM     23  N   UNL     1       2.692   0.404  28.312  0.00  0.00    -0.329 N 
ATOM     24  H   UNL     1       2.150  -0.426  28.524  0.00  0.00    +0.145 HD
ATOM     25  H   UNL     1       2.417   0.929  27.494  0.00  0.00    +0.145 HD
ATOM     26  O   UNL     1       4.385  -0.517  29.486  0.00  0.00    -0.276 OA
ENDBRANCH  21  22
ENDBRANCH   6  21
ENDBRANCH   4   6
ENDBRANCH   1   2
BRANCH   1  27
ATOM     27  C   UNL     1       6.955   5.532  25.644  0.00  0.00    +0.149 C 
BRANCH  27  28
ATOM     28  O   UNL     1       7.383   6.614  26.483  0.00  0.00    -0.389 OA
ATOM     29  H   UNL     1       8.204   6.274  26.895  0.00  0.00    +0.210 HD
ENDBRANCH  27  28
BRANCH  27  30
ATOM     30  C   UNL     1       6.671   6.182  24.209  0.00  0.00    +0.118 C 
BRANCH  30  32
ATOM     31  C   UNL     1       4.706   5.100  23.034  0.00  0.00    +0.143 C 
ATOM     32  N   UNL     1       5.221   6.179  23.908  0.00  0.00    -0.289 NA
ATOM     33  C   UNL     1       4.323   6.460  25.034  0.00  0.00    +0.089 C 
ATOM     34  C   UNL     1       3.762   5.242  25.794  0.00  0.00    +0.006 C 
ATOM     35  C   UNL     1       3.169   4.183  24.855  0.00  0.00    -0.005 C 
ATOM     36  C   UNL     1       2.674   2.968  25.662  0.00  0.00    +0.004 C 
ATOM     37  C   UNL     1       1.605   3.400  26.674  0.00  0.00    +0.000 C 
ATOM     38  C   UNL     1       2.098   4.531  27.575  0.00  0.00    +0.000 C 
ATOM     39  C   UNL     1       2.666   5.699  26.772  0.00  0.00    +0.005 C 
ATOM     40  C   UNL     1       4.185   3.836  23.763  0.00  0.00    +0.032 C 
BRANCH  31  43
ATOM     41  N   UNL     1       3.039   4.852  21.231  0.00  0.00    -0.309 N 
ATOM     42  H   UNL     1       3.233   3.871  21.403  0.00  0.00    +0.149 HD
ATOM     43  C   UNL     1       3.579   5.732  22.160  0.00  0.00    +0.231 C 
ATOM     44  O   UNL     1       3.200   6.893  22.285  0.00  0.00    -0.274 OA
BRANCH  41  46
ATOM     45  C   UNL     1       2.094   6.475  19.601  0.00  0.00    +0.031 C 
ATOM     46  C   UNL     1       1.866   5.186  20.414  0.00  0.00    +0.026 C 
ATOM     47  C   UNL     1       1.623   4.061  19.391  0.00  0.00    +0.031 C 
ATOM     48  C   UNL     1       0.653   5.326  21.347  0.00  0.00    +0.031 C 
ENDBRANCH  41  46
ENDBRANCH  31  43
ENDBRANCH  30  32
ENDBRANCH  27  30
ENDBRANCH   1  27
BRANCH   1  49
ATOM     49  C   UNL     1       8.684   4.318  24.306  0.00  0.00    +0.060 C 
BRANCH  49  50
ATOM     50  C   UNL     1       8.827   3.167  23.343  0.00  0.00    -0.046 A 
ATOM     51  C   UNL     1       7.726   2.893  22.496  0.00  0.00    +0.004 A 
ATOM     52  C   UNL     1       7.778   1.886  21.534  0.00  0.00    +0.000 A 
ATOM     53  C   UNL     1       8.936   1.132  21.401  0.00  0.00    +0.000 A 
ATOM     54  C   UNL     1      10.033   1.396  22.224  0.00  0.00    +0.000 A 
ATOM     55  C   UNL     1       9.984   2.411  23.187  0.00  0.00    +0.004 A 
ENDBRANCH  49  50
ENDBRANCH   1  49
TORSDOF 14
ENDMDL
MODEL 5
REMARK VINA RESULT:      -7.0      2.581      9.148
REMARK  Name = 
REMARK  17 active torsions:
REMARK  status: ('A' for Active; 'I' for Inactive)
REMARK    1  A    between atoms: C_1  and  C_2
REMARK    2  A    between atoms: C_2  and  C_3
REMARK    3  A    between atoms: C_2  and  C_4
REMARK    4  A    between atoms: C_2  and  N_5
REMARK    5  A    between atoms: C_6  and  C_8
REMARK    6  A    between atoms: N_20  and  C_21
REMARK    7  A    between atoms: C_21  and  C_22
REMARK    8  A    between atoms: C_22  and  C_24
REMARK    9  A    between atoms: C_22  and  O_55
REMARK   10  A    between atoms: C_24  and  C_26
REMARK   11  A    between atoms: C_24  and  N_33
REMARK   12  A    between atoms: C_26  and  C_27
REMARK   13  A    between atoms: C_34  and  C_36
REMARK   14  A    between atoms: C_36  and  C_38
REMARK   15  A    between atoms: C_36  and  N_42
REMARK   16  A    between atoms: C_38  and  C_39
REMARK   17  A    between atoms: C_43  and  C_45
REMARK                            x       y       z     vdW  Elec       q    Type
REMARK                         _______ _______ _______ _____ _____    ______ ____
ROOT
ATOM      1  C   UNL     1       8.632   0.004  23.395  0.00  0.00    +0.107 C 
ENDROOT
BRANCH   1   2
ATOM      2  N   UNL     1       7.151   0.373  23.678  0.00  0.00    -0.308 N 
ATOM      3  H   UNL     1       6.481   0.267  22.926  0.00  0.00    +0.149 HD
ATOM      4  C   UNL     1       6.642   0.627  24.956  0.00  0.00    +0.234 C 
ATOM      5  O   UNL     1       7.409   0.614  25.917  0.00  0.00    -0.274 OA
BRANCH   4   6
ATOM      6  C   UNL     1       5.076   1.163  25.231  0.00  0.00    +0.168 C 
BRANCH   6   7
ATOM      7  N   UNL     1       4.192   2.331  24.696  0.00  0.00    -0.298 N 
ATOM      8  H   UNL     1       3.234   2.373  25.030  0.00  0.00    +0.150 HD
ATOM      9  C   UNL     1       4.500   3.010  23.484  0.00  0.00    +0.263 C 
ATOM     10  O   UNL     1       5.667   2.933  23.076  0.00  0.00    -0.269 OA
BRANCH   9  11
ATOM     11  C   UNL     1       3.496   3.826  22.561  0.00  0.00    +0.126 A 
ATOM     12  C   UNL     1       3.465   5.206  22.822  0.00  0.00    +0.033 A 
ATOM     13  C   UNL     1       2.797   6.095  21.970  0.00  0.00    +0.012 A 
ATOM     14  C   UNL     1       2.127   5.631  20.853  0.00  0.00    +0.000 A 
ATOM     15  C   UNL     1       2.081   4.222  20.673  0.00  0.00    +0.072 A 
ATOM     16  C   UNL     1       1.267   3.858  19.568  0.00  0.00    +0.028 A 
ATOM     17  C   UNL     1       0.662   4.772  18.674  0.00  0.00    +0.002 A 
ATOM     18  C   UNL     1       0.824   6.144  18.848  0.00  0.00    +0.001 A 
ATOM     19  C   UNL     1       1.538   6.560  19.962  0.00  0.00    +0.010 A 
ATOM     20  N   UNL     1       2.776   3.324  21.507  0.00  0.00    -0.242 NA
ENDBRANCH   9  11
ENDBRANCH   6   7
BRANCH   6  21
ATOM     21  C   UNL     1       4.878   1.023  26.768  0.00  0.00    +0.127 C 
BRANCH  21  22
ATOM     22  C   UNL     1       4.282  -0.316  27.136  0.00  0.00    +0.213 C 
ATOM     23  N   UNL     1       4.700  -0.832  28.329  0.00  0.00    -0.329 N 
ATOM     24  H   UNL     1       4.216  -1.674  28.621  0.00  0.00    +0.145 HD
ATOM     25  H   UNL     1       5.067  -0.243  29.063  0.00  0.00    +0.145 HD
ATOM     26  O   UNL     1       3.532  -0.943  26.402  0.00  0.00    -0.276 OA
ENDBRANCH  21  22
ENDBRANCH   6  21
ENDBRANCH   4   6
ENDBRANCH   1   2
BRANCH   1  27
ATOM     27  C   UNL     1       9.014  -1.525  23.718  0.00  0.00    +0.149 C 
BRANCH  27  28
ATOM     28  O   UNL     1      10.247  -1.927  23.106  0.00  0.00    -0.389 OA
ATOM     29  H   UNL     1      10.625  -2.563  23.748  0.00  0.00    +0.210 HD
ENDBRANCH  27  28
BRANCH  27  30
ATOM     30  C   UNL     1       9.141  -1.935  25.261  0.00  0.00    +0.118 C 
BRANCH  30  32
ATOM     31  C   UNL     1       6.913  -2.946  25.913  0.00  0.00    +0.143 C 
ATOM     32  N   UNL     1       8.336  -3.142  25.552  0.00  0.00    -0.289 NA
ATOM     33  C   UNL     1       8.530  -4.286  24.654  0.00  0.00    +0.089 C 
ATOM     34  C   UNL     1       7.552  -4.408  23.468  0.00  0.00    +0.006 C 
ATOM     35  C   UNL     1       6.085  -4.274  23.896  0.00  0.00    -0.005 C 
ATOM     36  C   UNL     1       5.159  -4.350  22.667  0.00  0.00    +0.004 C 
ATOM     37  C   UNL     1       5.352  -5.685  21.937  0.00  0.00    +0.000 C 
ATOM     38  C   UNL     1       6.815  -5.929  21.573  0.00  0.00    +0.000 C 
ATOM     39  C   UNL     1       7.740  -5.770  22.777  0.00  0.00    +0.005 C 
ATOM     40  C   UNL     1       5.907  -3.006  24.736  0.00  0.00    +0.032 C 
BRANCH  31  43
ATOM     41  N   UNL     1       5.209  -4.135  27.244  0.00  0.00    -0.309 N 
ATOM     42  H   UNL     1       4.602  -3.717  26.547  0.00  0.00    +0.149 HD
ATOM     43  C   UNL     1       6.569  -4.026  26.984  0.00  0.00    +0.231 C 
ATOM     44  O   UNL     1       7.416  -4.719  27.538  0.00  0.00    -0.274 OA
BRANCH  41  46
ATOM     45  C   UNL     1       5.086  -6.589  27.627  0.00  0.00    +0.031 C 
ATOM     46  C   UNL     1       4.649  -5.188  28.099  0.00  0.00    +0.026 C 
ATOM     47  C   UNL     1       5.190  -5.022  29.531  0.00  0.00    +0.031 C 
ATOM     48  C   UNL     1       3.119  -5.052  28.090  0.00  0.00    +0.031 C 
ENDBRANCH  41  46
ENDBRANCH  31  43
ENDBRANCH  30  32
ENDBRANCH  27  30
ENDBRANCH   1  27
BRANCH   1  49
ATOM     49  C   UNL     1       9.654   0.835  24.243  0.00  0.00    +0.060 C 
BRANCH  49  50
ATOM     50  C   UNL     1       9.916   2.314  24.123  0.00  0.00    -0.046 A 
ATOM     51  C   UNL     1      11.145   2.707  23.539  0.00  0.00    +0.004 A 
ATOM     52  C   UNL     1      11.458   4.050  23.333  0.00  0.00    +0.000 A 
ATOM     53  C   UNL     1      10.546   5.027  23.709  0.00  0.00    +0.000 A 
ATOM     54  C   UNL     1       9.327   4.653  24.279  0.00  0.00    +0.000 A 
ATOM     55  C   UNL     1       9.008   3.305  24.481  0.00  0.00    +0.004 A 
ENDBRANCH  49  50
ENDBRANCH   1  49
TORSDOF 14
ENDMDL
MODEL 6
REMARK VINA RESULT:      -6.9      3.213      8.036
REMARK  Name = 
REMARK  17 active torsions:
REMARK  status: ('A' for Active; 'I' for Inactive)
REMARK    1  A    between atoms: C_1  and  C_2
REMARK    2  A    between atoms: C_2  and  C_3
REMARK    3  A    between atoms: C_2  and  C_4
REMARK    4  A    between atoms: C_2  and  N_5
REMARK    5  A    between atoms: C_6  and  C_8
REMARK    6  A    between atoms: N_20  and  C_21
REMARK    7  A    between atoms: C_21  and  C_22
REMARK    8  A    between atoms: C_22  and  C_24
REMARK    9  A    between atoms: C_22  and  O_55
REMARK   10  A    between atoms: C_24  and  C_26
REMARK   11  A    between atoms: C_24  and  N_33
REMARK   12  A    between atoms: C_26  and  C_27
REMARK   13  A    between atoms: C_34  and  C_36
REMARK   14  A    between atoms: C_36  and  C_38
REMARK   15  A    between atoms: C_36  and  N_42
REMARK   16  A    between atoms: C_38  and  C_39
REMARK   17  A    between atoms: C_43  and  C_45
REMARK                            x       y       z     vdW  Elec       q    Type
REMARK                         _______ _______ _______ _____ _____    ______ ____
ROOT
ATOM      1  C   UNL     1       3.497   2.165  26.604  0.00  0.00    +0.107 C 
ENDROOT
BRANCH   1   2
ATOM      2  N   UNL     1       4.664   1.890  25.616  0.00  0.00    -0.308 N 
ATOM      3  H   UNL     1       4.544   1.152  24.932  0.00  0.00    +0.149 HD
ATOM      4  C   UNL     1       5.768   2.732  25.461  0.00  0.00    +0.234 C 
ATOM      5  O   UNL     1       5.866   3.727  26.178  0.00  0.00    -0.274 OA
BRANCH   4   6
ATOM      6  C   UNL     1       7.087   2.350  24.496  0.00  0.00    +0.168 C 
BRANCH   6   7
ATOM      7  N   UNL     1       7.677   1.039  23.890  0.00  0.00    -0.298 N 
ATOM      8  H   UNL     1       7.877   1.042  22.895  0.00  0.00    +0.150 HD
ATOM      9  C   UNL     1       7.510  -0.222  24.527  0.00  0.00    +0.263 C 
ATOM     10  O   UNL     1       7.244  -0.212  25.738  0.00  0.00    -0.269 OA
BRANCH   9  11
ATOM     11  C   UNL     1       7.581  -1.657  23.846  0.00  0.00    +0.126 A 
ATOM     12  C   UNL     1       8.492  -2.537  24.452  0.00  0.00    +0.033 A 
ATOM     13  C   UNL     1       8.530  -3.896  24.112  0.00  0.00    +0.012 A 
ATOM     14  C   UNL     1       7.680  -4.404  23.149  0.00  0.00    +0.000 A 
ATOM     15  C   UNL     1       6.846  -3.473  22.474  0.00  0.00    +0.072 A 
ATOM     16  C   UNL     1       6.108  -4.086  21.426  0.00  0.00    +0.028 A 
ATOM     17  C   UNL     1       6.103  -5.473  21.147  0.00  0.00    +0.002 A 
ATOM     18  C   UNL     1       6.869  -6.351  21.909  0.00  0.00    +0.001 A 
ATOM     19  C   UNL     1       7.677  -5.797  22.891  0.00  0.00    +0.010 A 
ATOM     20  N   UNL     1       6.780  -2.112  22.831  0.00  0.00    -0.242 NA
ENDBRANCH   9  11
ENDBRANCH   6   7
BRANCH   6  21
ATOM     21  C   UNL     1       8.244   3.236  25.044  0.00  0.00    +0.127 C 
BRANCH  21  22
ATOM     22  C   UNL     1       9.317   3.459  24.004  0.00  0.00    +0.213 C 
ATOM     23  N   UNL     1       9.086   4.490  23.139  0.00  0.00    -0.329 N 
ATOM     24  H   UNL     1       9.857   4.703  22.516  0.00  0.00    +0.145 HD
ATOM     25  H   UNL     1       8.469   5.254  23.377  0.00  0.00    +0.145 HD
ATOM     26  O   UNL     1      10.297   2.737  23.883  0.00  0.00    -0.276 OA
ENDBRANCH  21  22
ENDBRANCH   6  21
ENDBRANCH   4   6
ENDBRANCH   1   2
BRANCH   1  27
ATOM     27  C   UNL     1       2.977   0.868  27.401  0.00  0.00    +0.149 C 
BRANCH  27  28
ATOM     28  O   UNL     1       1.921   0.185  26.712  0.00  0.00    -0.389 OA
ATOM     29  H   UNL     1       1.381  -0.194  27.436  0.00  0.00    +0.210 HD
ENDBRANCH  27  28
BRANCH  27  30
ATOM     30  C   UNL     1       4.062  -0.255  27.755  0.00  0.00    +0.118 C 
BRANCH  30  32
ATOM     31  C   UNL     1       4.060  -2.227  26.166  0.00  0.00    +0.143 C 
ATOM     32  N   UNL     1       3.555  -1.603  27.411  0.00  0.00    -0.289 NA
ATOM     33  C   UNL     1       3.458  -2.563  28.516  0.00  0.00    +0.089 C 
ATOM     34  C   UNL     1       4.661  -3.505  28.722  0.00  0.00    +0.006 C 
ATOM     35  C   UNL     1       5.104  -4.190  27.422  0.00  0.00    -0.005 C 
ATOM     36  C   UNL     1       6.339  -5.075  27.676  0.00  0.00    +0.004 C 
ATOM     37  C   UNL     1       6.019  -6.146  28.727  0.00  0.00    +0.000 C 
ATOM     38  C   UNL     1       5.471  -5.535  30.015  0.00  0.00    +0.000 C 
ATOM     39  C   UNL     1       4.300  -4.592  29.750  0.00  0.00    +0.005 C 
ATOM     40  C   UNL     1       5.304  -3.137  26.328  0.00  0.00    +0.032 C 
BRANCH  31  43
ATOM     41  N   UNL     1       3.268  -4.161  24.854  0.00  0.00    -0.309 N 
ATOM     42  H   UNL     1       4.213  -4.477  25.045  0.00  0.00    +0.149 HD
ATOM     43  C   UNL     1       2.871  -3.028  25.552  0.00  0.00    +0.231 C 
ATOM     44  O   UNL     1       1.697  -2.695  25.680  0.00  0.00    -0.274 OA
BRANCH  41  46
ATOM     45  C   UNL     1       1.084  -4.453  23.702  0.00  0.00    +0.031 C 
ATOM     46  C   UNL     1       2.311  -5.142  24.329  0.00  0.00    +0.026 C 
ATOM     47  C   UNL     1       2.980  -5.951  23.202  0.00  0.00    +0.031 C 
ATOM     48  C   UNL     1       1.898  -6.074  25.478  0.00  0.00    +0.031 C 
ENDBRANCH  41  46
ENDBRANCH  31  43
ENDBRANCH  30  32
ENDBRANCH  27  30
ENDBRANCH   1  27
BRANCH   1  49
ATOM     49  C   UNL     1       2.209   2.721  25.908  0.00  0.00    +0.060 C 
BRANCH  49  50
ATOM     50  C   UNL     1       2.167   3.572  24.664  0.00  0.00    -0.046 A 
ATOM     51  C   UNL     1       1.393   3.091  23.579  0.00  0.00    +0.004 A 
ATOM     52  C   UNL     1       1.245   3.828  22.406  0.00  0.00    +0.000 A 
ATOM     53  C   UNL     1       1.872   5.063  22.294  0.00  0.00    +0.000 A 
ATOM     54  C   UNL     1       2.632   5.552  23.359  0.00  0.00    +0.000 A 
ATOM     55  C   UNL     1       2.776   4.815  24.540  0.00  0.00    +0.004 A 
ENDBRANCH  49  50
ENDBRANCH   1  49
TORSDOF 14
ENDMDL
MODEL 7
REMARK VINA RESULT:      -6.9      3.755      7.558
REMARK  Name = 
REMARK  17 active torsions:
REMARK  status: ('A' for Active; 'I' for Inactive)
REMARK    1  A    between atoms: C_1  and  C_2
REMARK    2  A    between atoms: C_2  and  C_3
REMARK    3  A    between atoms: C_2  and  C_4
REMARK    4  A    between atoms: C_2  and  N_5
REMARK    5  A    between atoms: C_6  and  C_8
REMARK    6  A    between atoms: N_20  and  C_21
REMARK    7  A    between atoms: C_21  and  C_22
REMARK    8  A    between atoms: C_22  and  C_24
REMARK    9  A    between atoms: C_22  and  O_55
REMARK   10  A    between atoms: C_24  and  C_26
REMARK   11  A    between atoms: C_24  and  N_33
REMARK   12  A    between atoms: C_26  and  C_27
REMARK   13  A    between atoms: C_34  and  C_36
REMARK   14  A    between atoms: C_36  and  C_38
REMARK   15  A    between atoms: C_36  and  N_42
REMARK   16  A    between atoms: C_38  and  C_39
REMARK   17  A    between atoms: C_43  and  C_45
REMARK                            x       y       z     vdW  Elec       q    Type
REMARK                         _______ _______ _______ _____ _____    ______ ____
ROOT
ATOM      1  C   UNL     1       8.488   1.552  24.753  0.00  0.00    +0.107 C 
ENDROOT
BRANCH   1   2
ATOM      2  N   UNL     1       7.718   1.586  26.102  0.00  0.00    -0.308 N 
ATOM      3  H   UNL     1       8.259   1.626  26.958  0.00  0.00    +0.149 HD
ATOM      4  C   UNL     1       6.339   1.791  26.206  0.00  0.00    +0.234 C 
ATOM      5  O   UNL     1       5.672   1.898  25.178  0.00  0.00    -0.274 OA
BRANCH   4   6
ATOM      6  C   UNL     1       5.502   1.683  27.656  0.00  0.00    +0.168 C 
BRANCH   6   7
ATOM      7  N   UNL     1       4.527   0.650  28.301  0.00  0.00    -0.298 N 
ATOM      8  H   UNL     1       4.875   0.126  29.098  0.00  0.00    +0.150 HD
ATOM      9  C   UNL     1       3.427   0.107  27.582  0.00  0.00    +0.263 C 
ATOM     10  O   UNL     1       3.026   0.745  26.598  0.00  0.00    -0.269 OA
BRANCH   9  11
ATOM     11  C   UNL     1       2.675  -1.263  27.871  0.00  0.00    +0.126 A 
ATOM     12  C   UNL     1       2.177  -1.902  26.723  0.00  0.00    +0.033 A 
ATOM     13  C   UNL     1       1.675  -3.208  26.775  0.00  0.00    +0.012 A 
ATOM     14  C   UNL     1       1.634  -3.900  27.970  0.00  0.00    +0.000 A 
ATOM     15  C   UNL     1       2.040  -3.193  29.134  0.00  0.00    +0.072 A 
ATOM     16  C   UNL     1       1.841  -3.959  30.314  0.00  0.00    +0.028 A 
ATOM     17  C   UNL     1       1.403  -5.304  30.339  0.00  0.00    +0.002 A 
ATOM     18  C   UNL     1       1.113  -5.976  29.155  0.00  0.00    +0.001 A 
ATOM     19  C   UNL     1       1.206  -5.250  27.976  0.00  0.00    +0.010 A 
ATOM     20  N   UNL     1       2.576  -1.891  29.086  0.00  0.00    -0.242 NA
ENDBRANCH   9  11
ENDBRANCH   6   7
BRANCH   6  21
ATOM     21  C   UNL     1       4.975   3.125  27.913  0.00  0.00    +0.127 C 
BRANCH  21  22
ATOM     22  C   UNL     1       6.074   4.044  28.395  0.00  0.00    +0.213 C 
ATOM     23  N   UNL     1       6.772   3.597  29.481  0.00  0.00    -0.329 N 
ATOM     24  H   UNL     1       7.574   4.163  29.733  0.00  0.00    +0.145 HD
ATOM     25  H   UNL     1       6.816   2.616  29.717  0.00  0.00    +0.145 HD
ATOM     26  O   UNL     1       6.295   5.143  27.908  0.00  0.00    -0.276 OA
ENDBRANCH  21  22
ENDBRANCH   6  21
ENDBRANCH   4   6
ENDBRANCH   1   2
BRANCH   1  27
ATOM     27  C   UNL     1       9.574   0.370  24.635  0.00  0.00    +0.149 C 
BRANCH  27  28
ATOM     28  O   UNL     1      10.915   0.829  24.859  0.00  0.00    -0.389 OA
ATOM     29  H   UNL     1      11.442   0.004  24.860  0.00  0.00    +0.210 HD
ENDBRANCH  27  28
BRANCH  27  30
ATOM     30  C   UNL     1       9.383  -0.896  25.596  0.00  0.00    +0.118 C 
BRANCH  30  32
ATOM     31  C   UNL     1       8.899  -3.160  24.570  0.00  0.00    +0.143 C 
ATOM     32  N   UNL     1       8.398  -1.844  25.029  0.00  0.00    -0.289 NA
ATOM     33  C   UNL     1       7.117  -1.952  25.736  0.00  0.00    +0.089 C 
ATOM     34  C   UNL     1       6.997  -3.077  26.784  0.00  0.00    +0.006 C 
ATOM     35  C   UNL     1       7.456  -4.438  26.244  0.00  0.00    -0.005 C 
ATOM     36  C   UNL     1       7.366  -5.510  27.346  0.00  0.00    +0.004 C 
ATOM     37  C   UNL     1       5.924  -5.629  27.857  0.00  0.00    +0.000 C 
ATOM     38  C   UNL     1       5.368  -4.282  28.314  0.00  0.00    +0.000 C 
ATOM     39  C   UNL     1       5.536  -3.200  27.250  0.00  0.00    +0.005 C 
ATOM     40  C   UNL     1       8.846  -4.301  25.617  0.00  0.00    +0.032 C 
BRANCH  31  43
ATOM     41  N   UNL     1       7.241  -4.636  23.492  0.00  0.00    -0.309 N 
ATOM     42  H   UNL     1       7.068  -4.884  24.461  0.00  0.00    +0.149 HD
ATOM     43  C   UNL     1       8.071  -3.538  23.304  0.00  0.00    +0.231 C 
ATOM     44  O   UNL     1       8.140  -2.922  22.245  0.00  0.00    -0.274 OA
BRANCH  41  46
ATOM     45  C   UNL     1       6.941  -5.820  21.326  0.00  0.00    +0.031 C 
ATOM     46  C   UNL     1       6.263  -5.069  22.488  0.00  0.00    +0.026 C 
ATOM     47  C   UNL     1       5.278  -6.061  23.133  0.00  0.00    +0.031 C 
ATOM     48  C   UNL     1       5.510  -3.828  21.982  0.00  0.00    +0.031 C 
ENDBRANCH  41  46
ENDBRANCH  31  43
ENDBRANCH  30  32
ENDBRANCH  27  30
ENDBRANCH   1  27
BRANCH   1  49
ATOM     49  C   UNL     1       9.315   2.852  24.475  0.00  0.00    +0.060 C 
BRANCH  49  50
ATOM     50  C   UNL     1       8.837   4.065  23.719  0.00  0.00    -0.046 A 
ATOM     51  C   UNL     1       7.677   3.913  22.920  0.00  0.00    +0.004 A 
ATOM     52  C   UNL     1       7.124   4.987  22.226  0.00  0.00    +0.000 A 
ATOM     53  C   UNL     1       7.722   6.237  22.316  0.00  0.00    +0.000 A 
ATOM     54  C   UNL     1       8.862   6.403  23.106  0.00  0.00    +0.000 A 
ATOM     55  C   UNL     1       9.416   5.327  23.809  0.00  0.00    +0.004 A 
ENDBRANCH  49  50
ENDBRANCH   1  49
TORSDOF 14
ENDMDL
MODEL 8
REMARK VINA RESULT:      -6.9      2.633      8.920
REMARK  Name = 
REMARK  17 active torsions:
REMARK  status: ('A' for Active; 'I' for Inactive)
REMARK    1  A    between atoms: C_1  and  C_2
REMARK    2  A    between atoms: C_2  and  C_3
REMARK    3  A    between atoms: C_2  and  C_4
REMARK    4  A    between atoms: C_2  and  N_5
REMARK    5  A    between atoms: C_6  and  C_8
REMARK    6  A    between atoms: N_20  and  C_21
REMARK    7  A    between atoms: C_21  and  C_22
REMARK    8  A    between atoms: C_22  and  C_24
REMARK    9  A    between atoms: C_22  and  O_55
REMARK   10  A    between atoms: C_24  and  C_26
REMARK   11  A    between atoms: C_24  and  N_33
REMARK   12  A    between atoms: C_26  and  C_27
REMARK   13  A    between atoms: C_34  and  C_36
REMARK   14  A    between atoms: C_36  and  C_38
REMARK   15  A    between atoms: C_36  and  N_42
REMARK   16  A    between atoms: C_38  and  C_39
REMARK   17  A    between atoms: C_43  and  C_45
REMARK                            x       y       z     vdW  Elec       q    Type
REMARK                         _______ _______ _______ _____ _____    ______ ____
ROOT
ATOM      1  C   UNL     1       8.497   1.704  22.607  0.00  0.00    +0.107 C 
ENDROOT
BRANCH   1   2
ATOM      2  N   UNL     1       7.087   2.173  23.057  0.00  0.00    -0.308 N 
ATOM      3  H   UNL     1       6.380   2.308  22.345  0.00  0.00    +0.149 HD
ATOM      4  C   UNL     1       6.665   2.205  24.390  0.00  0.00    +0.234 C 
ATOM      5  O   UNL     1       7.462   1.897  25.276  0.00  0.00    -0.274 OA
BRANCH   4   6
ATOM      6  C   UNL     1       5.192   2.848  24.873  0.00  0.00    +0.168 C 
BRANCH   6   7
ATOM      7  N   UNL     1       4.097   3.737  24.207  0.00  0.00    -0.298 N 
ATOM      8  H   UNL     1       3.130   3.486  24.386  0.00  0.00    +0.150 HD
ATOM      9  C   UNL     1       4.372   4.530  23.059  0.00  0.00    +0.263 C 
ATOM     10  O   UNL     1       5.559   4.812  22.839  0.00  0.00    -0.269 OA
BRANCH   9  11
ATOM     11  C   UNL     1       3.325   5.066  21.990  0.00  0.00    +0.126 A 
ATOM     12  C   UNL     1       3.211   6.465  21.946  0.00  0.00    +0.033 A 
ATOM     13  C   UNL     1       2.494   7.107  20.927  0.00  0.00    +0.012 A 
ATOM     14  C   UNL     1       1.857   6.373  19.945  0.00  0.00    +0.000 A 
ATOM     15  C   UNL     1       1.896   4.959  20.075  0.00  0.00    +0.072 A 
ATOM     16  C   UNL     1       1.108   4.315  19.083  0.00  0.00    +0.028 A 
ATOM     17  C   UNL     1       0.452   4.977  18.018  0.00  0.00    +0.002 A 
ATOM     18  C   UNL     1       0.533   6.361  17.888  0.00  0.00    +0.001 A 
ATOM     19  C   UNL     1       1.217   7.050  18.878  0.00  0.00    +0.010 A 
ATOM     20  N   UNL     1       2.639   4.306  21.077  0.00  0.00    -0.242 NA
ENDBRANCH   9  11
ENDBRANCH   6   7
BRANCH   6  21
ATOM     21  C   UNL     1       5.433   3.326  26.334  0.00  0.00    +0.127 C 
BRANCH  21  22
ATOM     22  C   UNL     1       6.026   4.715  26.376  0.00  0.00    +0.213 C 
ATOM     23  N   UNL     1       7.336   4.778  26.759  0.00  0.00    -0.329 N 
ATOM     24  H   UNL     1       7.758   5.697  26.681  0.00  0.00    +0.145 HD
ATOM     25  H   UNL     1       7.954   3.985  26.666  0.00  0.00    +0.145 HD
ATOM     26  O   UNL     1       5.381   5.730  26.156  0.00  0.00    -0.276 OA
ENDBRANCH  21  22
ENDBRANCH   6  21
ENDBRANCH   4   6
ENDBRANCH   1   2
BRANCH   1  27
ATOM     27  C   UNL     1       8.665   0.108  22.492  0.00  0.00    +0.149 C 
BRANCH  27  28
ATOM     28  O   UNL     1       9.622  -0.275  21.494  0.00  0.00    -0.389 OA
ATOM     29  H   UNL     1       9.156  -0.969  20.984  0.00  0.00    +0.210 HD
ENDBRANCH  27  28
BRANCH  27  30
ATOM     30  C   UNL     1       9.085  -0.680  23.821  0.00  0.00    +0.118 C 
BRANCH  30  32
ATOM     31  C   UNL     1       6.610  -1.213  23.803  0.00  0.00    +0.143 C 
ATOM     32  N   UNL     1       7.967  -1.517  24.311  0.00  0.00    -0.289 NA
ATOM     33  C   UNL     1       8.221  -2.960  24.391  0.00  0.00    +0.089 C 
ATOM     34  C   UNL     1       7.795  -3.807  23.175  0.00  0.00    +0.006 C 
ATOM     35  C   UNL     1       6.356  -3.515  22.728  0.00  0.00    -0.005 C 
ATOM     36  C   UNL     1       6.003  -4.347  21.480  0.00  0.00    +0.004 C 
ATOM     37  C   UNL     1       6.144  -5.844  21.781  0.00  0.00    +0.000 C 
ATOM     38  C   UNL     1       7.527  -6.187  22.332  0.00  0.00    +0.000 C 
ATOM     39  C   UNL     1       7.908  -5.302  23.517  0.00  0.00    +0.005 C 
ATOM     40  C   UNL     1       6.170  -2.005  22.546  0.00  0.00    +0.032 C 
BRANCH  31  43
ATOM     41  N   UNL     1       5.882  -0.681  26.100  0.00  0.00    -0.309 N 
ATOM     42  H   UNL     1       6.480   0.122  25.934  0.00  0.00    +0.149 HD
ATOM     43  C   UNL     1       5.622  -1.464  24.983  0.00  0.00    +0.231 C 
ATOM     44  O   UNL     1       4.698  -2.271  24.929  0.00  0.00    -0.274 OA
BRANCH  41  46
ATOM     45  C   UNL     1       4.709  -2.054  27.809  0.00  0.00    +0.031 C 
ATOM     46  C   UNL     1       4.989  -0.641  27.263  0.00  0.00    +0.026 C 
ATOM     47  C   UNL     1       5.672   0.139  28.402  0.00  0.00    +0.031 C 
ATOM     48  C   UNL     1       3.687   0.061  26.847  0.00  0.00    +0.031 C 
ENDBRANCH  41  46
ENDBRANCH  31  43
ENDBRANCH  30  32
ENDBRANCH  27  30
ENDBRANCH   1  27
BRANCH   1  49
ATOM     49  C   UNL     1       9.639   2.132  23.590  0.00  0.00    +0.060 C 
BRANCH  49  50
ATOM     50  C   UNL     1      10.348   3.463  23.605  0.00  0.00    -0.046 A 
ATOM     51  C   UNL     1       9.598   4.589  24.024  0.00  0.00    +0.004 A 
ATOM     52  C   UNL     1      10.175   5.853  24.125  0.00  0.00    +0.000 A 
ATOM     53  C   UNL     1      11.517   6.016  23.806  0.00  0.00    +0.000 A 
ATOM     54  C   UNL     1      12.270   4.913  23.398  0.00  0.00    +0.000 A 
ATOM     55  C   UNL     1      11.693   3.641  23.302  0.00  0.00    +0.004 A 
ENDBRANCH  49  50
ENDBRANCH   1  49
TORSDOF 14
ENDMDL
MODEL 9
REMARK VINA RESULT:      -6.9      2.841      4.289
REMARK  Name = 
REMARK  17 active torsions:
REMARK  status: ('A' for Active; 'I' for Inactive)
REMARK    1  A    between atoms: C_1  and  C_2
REMARK    2  A    between atoms: C_2  and  C_3
REMARK    3  A    between atoms: C_2  and  C_4
REMARK    4  A    between atoms: C_2  and  N_5
REMARK    5  A    between atoms: C_6  and  C_8
REMARK    6  A    between atoms: N_20  and  C_21
REMARK    7  A    between atoms: C_21  and  C_22
REMARK    8  A    between atoms: C_22  and  C_24
REMARK    9  A    between atoms: C_22  and  O_55
REMARK   10  A    between atoms: C_24  and  C_26
REMARK   11  A    between atoms: C_24  and  N_33
REMARK   12  A    between atoms: C_26  and  C_27
REMARK   13  A    between atoms: C_34  and  C_36
REMARK   14  A    between atoms: C_36  and  C_38
REMARK   15  A    between atoms: C_36  and  N_42
REMARK   16  A    between atoms: C_38  and  C_39
REMARK   17  A    between atoms: C_43  and  C_45
REMARK                            x       y       z     vdW  Elec       q    Type
REMARK                         _______ _______ _______ _____ _____    ______ ____
ROOT
ATOM      1  C   UNL     1       8.598   3.793  24.282  0.00  0.00    +0.107 C 
ENDROOT
BRANCH   1   2
ATOM      2  N   UNL     1       7.991   2.721  25.226  0.00  0.00    -0.308 N 
ATOM      3  H   UNL     1       8.105   1.746  24.976  0.00  0.00    +0.149 HD
ATOM      4  C   UNL     1       7.496   2.999  26.504  0.00  0.00    +0.234 C 
ATOM      5  O   UNL     1       7.484   4.164  26.899  0.00  0.00    -0.274 OA
BRANCH   4   6
ATOM      6  C   UNL     1       6.714   1.859  27.455  0.00  0.00    +0.168 C 
BRANCH   6   7
ATOM      7  N   UNL     1       5.768   0.648  27.184  0.00  0.00    -0.298 N 
ATOM      8  H   UNL     1       5.139   0.380  27.934  0.00  0.00    +0.150 HD
ATOM      9  C   UNL     1       6.063  -0.326  26.190  0.00  0.00    +0.263 C 
ATOM     10  O   UNL     1       6.851   0.006  25.292  0.00  0.00    -0.269 OA
BRANCH   9  11
ATOM     11  C   UNL     1       5.528  -1.821  26.123  0.00  0.00    +0.126 A 
ATOM     12  C   UNL     1       5.163  -2.245  24.835  0.00  0.00    +0.033 A 
ATOM     13  C   UNL     1       4.870  -3.588  24.565  0.00  0.00    +0.012 A 
ATOM     14  C   UNL     1       4.910  -4.534  25.572  0.00  0.00    +0.000 A 
ATOM     15  C   UNL     1       5.174  -4.060  26.885  0.00  0.00    +0.072 A 
ATOM     16  C   UNL     1       5.070  -5.097  27.851  0.00  0.00    +0.028 A 
ATOM     17  C   UNL     1       4.847  -6.462  27.551  0.00  0.00    +0.002 A 
ATOM     18  C   UNL     1       4.692  -6.879  26.232  0.00  0.00    +0.001 A 
ATOM     19  C   UNL     1       4.698  -5.897  25.252  0.00  0.00    +0.010 A 
ATOM     20  N   UNL     1       5.500  -2.718  27.160  0.00  0.00    -0.242 NA
ENDBRANCH   9  11
ENDBRANCH   6   7
BRANCH   6  21
ATOM     21  C   UNL     1       6.192   2.662  28.681  0.00  0.00    +0.127 C 
BRANCH  21  22
ATOM     22  C   UNL     1       7.142   2.575  29.853  0.00  0.00    +0.213 C 
ATOM     23  N   UNL     1       7.398   3.758  30.485  0.00  0.00    -0.329 N 
ATOM     24  H   UNL     1       7.947   3.677  31.333  0.00  0.00    +0.145 HD
ATOM     25  H   UNL     1       6.757   4.537  30.432  0.00  0.00    +0.145 HD
ATOM     26  O   UNL     1       7.707   1.543  30.185  0.00  0.00    -0.276 OA
ENDBRANCH  21  22
ENDBRANCH   6  21
ENDBRANCH   4   6
ENDBRANCH   1   2
BRANCH   1  27
ATOM     27  C   UNL     1       7.539   4.481  23.284  0.00  0.00    +0.149 C 
BRANCH  27  28
ATOM     28  O   UNL     1       8.174   5.211  22.225  0.00  0.00    -0.389 OA
ATOM     29  H   UNL     1       8.964   4.672  22.017  0.00  0.00    +0.210 HD
ENDBRANCH  27  28
BRANCH  27  30
ATOM     30  C   UNL     1       6.475   3.519  22.572  0.00  0.00    +0.118 C 
BRANCH  30  32
ATOM     31  C   UNL     1       4.150   3.011  23.435  0.00  0.00    +0.143 C 
ATOM     32  N   UNL     1       5.093   3.980  22.831  0.00  0.00    -0.289 NA
ATOM     33  C   UNL     1       4.952   5.324  23.403  0.00  0.00    +0.089 C 
ATOM     34  C   UNL     1       4.845   5.416  24.938  0.00  0.00    +0.006 C 
ATOM     35  C   UNL     1       3.802   4.449  25.516  0.00  0.00    -0.005 C 
ATOM     36  C   UNL     1       3.777   4.545  27.053  0.00  0.00    +0.004 C 
ATOM     37  C   UNL     1       3.436   5.975  27.492  0.00  0.00    +0.000 C 
ATOM     38  C   UNL     1       4.376   7.002  26.865  0.00  0.00    +0.000 C 
ATOM     39  C   UNL     1       4.465   6.850  25.348  0.00  0.00    +0.005 C 
ATOM     40  C   UNL     1       4.059   3.037  24.982  0.00  0.00    +0.032 C 
BRANCH  31  43
ATOM     41  N   UNL     1       2.780   3.358  21.412  0.00  0.00    -0.309 N 
ATOM     42  H   UNL     1       3.609   2.967  20.976  0.00  0.00    +0.149 HD
ATOM     43  C   UNL     1       2.754   3.288  22.799  0.00  0.00    +0.231 C 
ATOM     44  O   UNL     1       1.727   3.424  23.459  0.00  0.00    -0.274 OA
BRANCH  41  46
ATOM     45  C   UNL     1       0.702   4.665  21.018  0.00  0.00    +0.031 C 
ATOM     46  C   UNL     1       1.561   3.456  20.602  0.00  0.00    +0.026 C 
ATOM     47  C   UNL     1       1.947   3.680  19.128  0.00  0.00    +0.031 C 
ATOM     48  C   UNL     1       0.778   2.142  20.750  0.00  0.00    +0.031 C 
ENDBRANCH  41  46
ENDBRANCH  31  43
ENDBRANCH  30  32
ENDBRANCH  27  30
ENDBRANCH   1  27
BRANCH   1  49
ATOM     49  C   UNL     1       9.703   3.228  23.326  0.00  0.00    +0.060 C 
BRANCH  49  50
ATOM     50  C   UNL     1       9.832   1.800  22.862  0.00  0.00    -0.046 A 
ATOM     51  C   UNL     1      10.458   0.888  23.747  0.00  0.00    +0.004 A 
ATOM     52  C   UNL     1      10.577  -0.465  23.435  0.00  0.00    +0.000 A 
ATOM     53  C   UNL     1      10.073  -0.932  22.228  0.00  0.00    +0.000 A 
ATOM     54  C   UNL     1       9.446  -0.045  21.349  0.00  0.00    +0.000 A 
ATOM     55  C   UNL     1       9.320   1.313  21.664  0.00  0.00    +0.004 A 
ENDBRANCH  49  50
ENDBRANCH   1  49
TORSDOF 14
ENDMDL
