MODEL 1
REMARK VINA RESULT:      -5.6      0.000      0.000
REMARK  Name = 
REMARK  4 active torsions:
REMARK  status: ('A' for Active; 'I' for Inactive)
REMARK    1  A    between atoms: C_2  and  N_8
REMARK    2  A    between atoms: C_4  and  C_6
REMARK    3  A    between atoms: C_6  and  O_7
REMARK    4  A    between atoms: C_11  and  N_15
REMARK                            x       y       z     vdW  Elec       q    Type
REMARK                         _______ _______ _______ _____ _____    ______ ____
ROOT
ATOM      1  N   UNL     1       8.618  -2.581  23.192  0.00  0.00    -0.232 N 
ATOM      2  C   UNL     1       8.917  -3.714  23.930  0.00  0.00    +0.397 C 
ATOM      3  O   UNL     1       9.993  -3.913  24.485  0.00  0.00    -0.224 OA
ATOM      4  N   UNL     1       7.922  -4.645  24.054  0.00  0.00    -0.156 N 
ATOM      5  H   UNL     1       8.152  -5.432  24.641  0.00  0.00    +0.303 HD
ATOM      6  C   UNL     1       6.724  -4.641  23.416  0.00  0.00    +0.295 C 
ATOM      7  C   UNL     1       6.498  -3.662  22.530  0.00  0.00    +0.202 C 
ATOM      8  F   UNL     1       5.318  -3.630  21.869  0.00  0.00    -0.200 F 
ATOM      9  C   UNL     1       7.512  -2.614  22.235  0.00  0.00    +0.188 C 
ENDROOT
BRANCH   1  14
ATOM     10  C   UNL     1      10.193  -0.698  24.023  0.00  0.00    +0.123 C 
ATOM     11  S   UNL     1       8.971   0.624  24.070  0.00  0.00    -0.123 S 
ATOM     12  C   UNL     1       8.492   0.306  22.354  0.00  0.00    +0.203 C 
ATOM     13  O   UNL     1       9.284  -0.776  21.827  0.00  0.00    -0.342 OA
ATOM     14  C   UNL     1       9.698  -1.634  22.908  0.00  0.00    +0.223 C 
BRANCH  12  15
ATOM     15  C   UNL     1       8.692   1.556  21.485  0.00  0.00    +0.198 C 
BRANCH  15  16
ATOM     16  O   UNL     1      10.050   2.008  21.485  0.00  0.00    -0.392 OA
ATOM     17  H   UNL     1      10.384   1.878  20.579  0.00  0.00    +0.210 HD
ENDBRANCH  15  16
ENDBRANCH  12  15
ENDBRANCH   1  14
BRANCH   6  18
ATOM     18  N   UNL     1       5.821  -5.642  23.673  0.00  0.00    -0.249 N 
ATOM     19  H   UNL     1       5.604  -6.195  22.849  0.00  0.00    +0.288 HD
ATOM     20  H   UNL     1       6.109  -6.227  24.457  0.00  0.00    +0.288 HD
ENDBRANCH   6  18
TORSDOF 4
ENDMDL
MODEL 2
REMARK VINA RESULT:      -5.6      2.147      3.110
REMARK  Name = 
REMARK  4 active torsions:
REMARK  status: ('A' for Active; 'I' for Inactive)
REMARK    1  A    between atoms: C_2  and  N_8
REMARK    2  A    between atoms: C_4  and  C_6
REMARK    3  A    between atoms: C_6  and  O_7
REMARK    4  A    between atoms: C_11  and  N_15
REMARK                            x       y       z     vdW  Elec       q    Type
REMARK                         _______ _______ _______ _____ _____    ______ ____
ROOT
ATOM      1  N   UNL     1       7.376  -4.679  24.669  0.00  0.00    -0.232 N 
ATOM      2  C   UNL     1       6.527  -5.286  25.579  0.00  0.00    +0.397 C 
ATOM      3  O   UNL     1       6.667  -5.233  26.796  0.00  0.00    -0.224 OA
ATOM      4  N   UNL     1       5.455  -5.960  25.061  0.00  0.00    -0.156 N 
ATOM      5  H   UNL     1       4.825  -6.344  25.750  0.00  0.00    +0.303 HD
ATOM      6  C   UNL     1       5.214  -6.215  23.750  0.00  0.00    +0.295 C 
ATOM      7  C   UNL     1       6.137  -5.820  22.863  0.00  0.00    +0.202 C 
ATOM      8  F   UNL     1       5.935  -6.065  21.548  0.00  0.00    -0.200 F 
ATOM      9  C   UNL     1       7.391  -5.135  23.279  0.00  0.00    +0.188 C 
ENDROOT
BRANCH   1  14
ATOM     10  C   UNL     1       8.540  -2.810  26.036  0.00  0.00    +0.123 C 
ATOM     11  S   UNL     1       8.306  -1.474  24.851  0.00  0.00    -0.123 S 
ATOM     12  C   UNL     1       9.052  -2.456  23.526  0.00  0.00    +0.203 C 
ATOM     13  O   UNL     1       9.449  -3.740  24.045  0.00  0.00    -0.342 OA
ATOM     14  C   UNL     1       8.614  -4.078  25.170  0.00  0.00    +0.223 C 
BRANCH  12  15
ATOM     15  C   UNL     1      10.277  -1.744  22.934  0.00  0.00    +0.198 C 
BRANCH  15  16
ATOM     16  O   UNL     1      10.178  -1.582  21.515  0.00  0.00    -0.392 OA
ATOM     17  H   UNL     1      10.018  -2.470  21.146  0.00  0.00    +0.210 HD
ENDBRANCH  15  16
ENDBRANCH  12  15
ENDBRANCH   1  14
BRANCH   6  18
ATOM     18  N   UNL     1       4.070  -6.886  23.394  0.00  0.00    -0.249 N 
ATOM     19  H   UNL     1       3.644  -7.376  24.174  0.00  0.00    +0.288 HD
ATOM     20  H   UNL     1       3.403  -6.281  22.915  0.00  0.00    +0.288 HD
ENDBRANCH   6  18
TORSDOF 4
ENDMDL
MODEL 3
REMARK VINA RESULT:      -5.5      2.656      3.033
REMARK  Name = 
REMARK  4 active torsions:
REMARK  status: ('A' for Active; 'I' for Inactive)
REMARK    1  A    between atoms: C_2  and  N_8
REMARK    2  A    between atoms: C_4  and  C_6
REMARK    3  A    between atoms: C_6  and  O_7
REMARK    4  A    between atoms: C_11  and  N_15
REMARK                            x       y       z     vdW  Elec       q    Type
REMARK                         _______ _______ _______ _____ _____    ______ ____
ROOT
ATOM      1  N   UNL     1       8.301  -3.665  24.881  0.00  0.00    -0.232 N 
ATOM      2  C   UNL     1       9.148  -4.682  25.292  0.00  0.00    +0.397 C 
ATOM      3  O   UNL     1      10.246  -4.908  24.796  0.00  0.00    -0.224 OA
ATOM      4  N   UNL     1       8.718  -5.452  26.338  0.00  0.00    -0.156 N 
ATOM      5  H   UNL     1       9.379  -6.148  26.649  0.00  0.00    +0.303 HD
ATOM      6  C   UNL     1       7.493  -5.415  26.921  0.00  0.00    +0.295 C 
ATOM      7  C   UNL     1       6.582  -4.584  26.398  0.00  0.00    +0.202 C 
ATOM      8  F   UNL     1       5.348  -4.527  26.949  0.00  0.00    -0.200 F 
ATOM      9  C   UNL     1       6.879  -3.731  25.215  0.00  0.00    +0.188 C 
ENDROOT
BRANCH   1  14
ATOM     10  C   UNL     1      10.008  -2.195  23.599  0.00  0.00    +0.123 C 
ATOM     11  S   UNL     1       9.756  -0.677  24.534  0.00  0.00    -0.123 S 
ATOM     12  C   UNL     1       7.970  -0.742  24.248  0.00  0.00    +0.203 C 
ATOM     13  O   UNL     1       7.653  -1.902  23.454  0.00  0.00    -0.342 OA
ATOM     14  C   UNL     1       8.652  -2.917  23.673  0.00  0.00    +0.223 C 
BRANCH  12  15
ATOM     15  C   UNL     1       7.480   0.521  23.525  0.00  0.00    +0.198 C 
BRANCH  15  16
ATOM     16  O   UNL     1       6.303   0.281  22.747  0.00  0.00    -0.392 OA
ATOM     17  H   UNL     1       5.944  -0.574  23.046  0.00  0.00    +0.210 HD
ENDBRANCH  15  16
ENDBRANCH  12  15
ENDBRANCH   1  14
BRANCH   6  18
ATOM     18  N   UNL     1       7.229  -6.243  27.985  0.00  0.00    -0.249 N 
ATOM     19  H   UNL     1       6.584  -5.830  28.652  0.00  0.00    +0.288 HD
ATOM     20  H   UNL     1       6.924  -7.168  27.685  0.00  0.00    +0.288 HD
ENDBRANCH   6  18
TORSDOF 4
ENDMDL
MODEL 4
REMARK VINA RESULT:      -5.4      1.006      1.006
REMARK  Name = 
REMARK  4 active torsions:
REMARK  status: ('A' for Active; 'I' for Inactive)
REMARK    1  A    between atoms: C_2  and  N_8
REMARK    2  A    between atoms: C_4  and  C_6
REMARK    3  A    between atoms: C_6  and  O_7
REMARK    4  A    between atoms: C_11  and  N_15
REMARK                            x       y       z     vdW  Elec       q    Type
REMARK                         _______ _______ _______ _____ _____    ______ ____
ROOT
ATOM      1  N   UNL     1       8.517  -3.207  23.479  0.00  0.00    -0.232 N 
ATOM      2  C   UNL     1       8.576  -4.468  24.048  0.00  0.00    +0.397 C 
ATOM      3  O   UNL     1       9.431  -4.823  24.853  0.00  0.00    -0.224 OA
ATOM      4  N   UNL     1       7.590  -5.348  23.694  0.00  0.00    -0.156 N 
ATOM      5  H   UNL     1       7.629  -6.238  24.166  0.00  0.00    +0.303 HD
ATOM      6  C   UNL     1       6.644  -5.162  22.738  0.00  0.00    +0.295 C 
ATOM      7  C   UNL     1       6.700  -4.031  22.023  0.00  0.00    +0.202 C 
ATOM      8  F   UNL     1       5.778  -3.816  21.056  0.00  0.00    -0.200 F 
ATOM      9  C   UNL     1       7.757  -3.007  22.245  0.00  0.00    +0.188 C 
ENDROOT
BRANCH   1  14
ATOM     10  C   UNL     1       9.536  -1.257  24.849  0.00  0.00    +0.123 C 
ATOM     11  S   UNL     1       8.518   0.063  24.167  0.00  0.00    -0.123 S 
ATOM     12  C   UNL     1       8.962  -0.405  22.476  0.00  0.00    +0.203 C 
ATOM     13  O   UNL     1       9.862  -1.529  22.509  0.00  0.00    -0.342 OA
ATOM     14  C   UNL     1       9.633  -2.288  23.712  0.00  0.00    +0.223 C 
BRANCH  12  15
ATOM     15  C   UNL     1       9.629   0.763  21.737  0.00  0.00    +0.198 C 
BRANCH  15  16
ATOM     16  O   UNL     1       8.704   1.493  20.923  0.00  0.00    -0.392 OA
ATOM     17  H   UNL     1       8.999   1.379  20.001  0.00  0.00    +0.210 HD
ENDBRANCH  15  16
ENDBRANCH  12  15
ENDBRANCH   1  14
BRANCH   6  18
ATOM     18  N   UNL     1       5.705  -6.140  22.522  0.00  0.00    -0.249 N 
ATOM     19  H   UNL     1       5.512  -6.287  21.537  0.00  0.00    +0.288 HD
ATOM     20  H   UNL     1       5.941  -7.011  22.997  0.00  0.00    +0.288 HD
ENDBRANCH   6  18
TORSDOF 4
ENDMDL
MODEL 5
REMARK VINA RESULT:      -5.3      2.121      2.372
REMARK  Name = 
REMARK  4 active torsions:
REMARK  status: ('A' for Active; 'I' for Inactive)
REMARK    1  A    between atoms: C_2  and  N_8
REMARK    2  A    between atoms: C_4  and  C_6
REMARK    3  A    between atoms: C_6  and  O_7
REMARK    4  A    between atoms: C_11  and  N_15
REMARK                            x       y       z     vdW  Elec       q    Type
REMARK                         _______ _______ _______ _____ _____    ______ ____
ROOT
ATOM      1  N   UNL     1       9.002  -1.806  24.817  0.00  0.00    -0.232 N 
ATOM      2  C   UNL     1       8.594  -1.971  26.130  0.00  0.00    +0.397 C 
ATOM      3  O   UNL     1       8.707  -1.116  27.001  0.00  0.00    -0.224 OA
ATOM      4  N   UNL     1       8.005  -3.166  26.442  0.00  0.00    -0.156 N 
ATOM      5  H   UNL     1       7.669  -3.235  27.391  0.00  0.00    +0.303 HD
ATOM      6  C   UNL     1       7.906  -4.255  25.639  0.00  0.00    +0.295 C 
ATOM      7  C   UNL     1       8.486  -4.190  24.433  0.00  0.00    +0.202 C 
ATOM      8  F   UNL     1       8.415  -5.260  23.608  0.00  0.00    -0.200 F 
ATOM      9  C   UNL     1       9.224  -2.982  23.976  0.00  0.00    +0.188 C 
ENDROOT
BRANCH   1  14
ATOM     10  C   UNL     1       9.297   0.764  24.986  0.00  0.00    +0.123 C 
ATOM     11  S   UNL     1       7.972   1.224  23.856  0.00  0.00    -0.123 S 
ATOM     12  C   UNL     1       8.640   0.152  22.561  0.00  0.00    +0.203 C 
ATOM     13  O   UNL     1       9.834  -0.495  23.041  0.00  0.00    -0.342 OA
ATOM     14  C   UNL     1       9.771  -0.607  24.476  0.00  0.00    +0.223 C 
BRANCH  12  15
ATOM     15  C   UNL     1       8.968   0.956  21.294  0.00  0.00    +0.198 C 
BRANCH  15  16
ATOM     16  O   UNL     1       9.909   2.005  21.543  0.00  0.00    -0.392 OA
ATOM     17  H   UNL     1       9.399   2.836  21.552  0.00  0.00    +0.210 HD
ENDBRANCH  15  16
ENDBRANCH  12  15
ENDBRANCH   1  14
BRANCH   6  18
ATOM     18  N   UNL     1       7.256  -5.374  26.098  0.00  0.00    -0.249 N 
ATOM     19  H   UNL     1       7.895  -6.086  26.438  0.00  0.00    +0.288 HD
ATOM     20  H   UNL     1       6.541  -5.146  26.788  0.00  0.00    +0.288 HD
ENDBRANCH   6  18
TORSDOF 4
ENDMDL
MODEL 6
REMARK VINA RESULT:      -5.2      3.140      5.395
REMARK  Name = 
REMARK  4 active torsions:
REMARK  status: ('A' for Active; 'I' for Inactive)
REMARK    1  A    between atoms: C_2  and  N_8
REMARK    2  A    between atoms: C_4  and  C_6
REMARK    3  A    between atoms: C_6  and  O_7
REMARK    4  A    between atoms: C_11  and  N_15
REMARK                            x       y       z     vdW  Elec       q    Type
REMARK                         _______ _______ _______ _____ _____    ______ ____
ROOT
ATOM      1  N   UNL     1       7.531  -1.327  23.579  0.00  0.00    -0.232 N 
ATOM      2  C   UNL     1       6.873  -0.110  23.655  0.00  0.00    +0.397 C 
ATOM      3  O   UNL     1       5.841   0.079  24.291  0.00  0.00    -0.224 OA
ATOM      4  N   UNL     1       7.446   0.938  22.989  0.00  0.00    -0.156 N 
ATOM      5  H   UNL     1       6.974   1.822  23.108  0.00  0.00    +0.303 HD
ATOM      6  C   UNL     1       8.511   0.881  22.150  0.00  0.00    +0.295 C 
ATOM      7  C   UNL     1       9.033  -0.326  21.894  0.00  0.00    +0.202 C 
ATOM      8  F   UNL     1      10.090  -0.423  21.055  0.00  0.00    -0.200 F 
ATOM      9  C   UNL     1       8.475  -1.570  22.489  0.00  0.00    +0.188 C 
ENDROOT
BRANCH   1  14
ATOM     10  C   UNL     1       6.614  -2.567  25.663  0.00  0.00    +0.123 C 
ATOM     11  S   UNL     1       8.202  -3.039  26.369  0.00  0.00    -0.123 S 
ATOM     12  C   UNL     1       8.721  -3.801  24.812  0.00  0.00    +0.203 C 
ATOM     13  O   UNL     1       7.669  -3.668  23.837  0.00  0.00    -0.342 OA
ATOM     14  C   UNL     1       6.875  -2.506  24.149  0.00  0.00    +0.223 C 
BRANCH  12  15
ATOM     15  C   UNL     1       9.053  -5.287  25.007  0.00  0.00    +0.198 C 
BRANCH  15  16
ATOM     16  O   UNL     1      10.424  -5.497  25.362  0.00  0.00    -0.392 OA
ATOM     17  H   UNL     1      10.627  -4.857  26.068  0.00  0.00    +0.210 HD
ENDBRANCH  15  16
ENDBRANCH  12  15
ENDBRANCH   1  14
BRANCH   6  18
ATOM     18  N   UNL     1       8.981   2.037  21.578  0.00  0.00    -0.249 N 
ATOM     19  H   UNL     1       9.679   1.864  20.862  0.00  0.00    +0.288 HD
ATOM     20  H   UNL     1       8.226   2.631  21.237  0.00  0.00    +0.288 HD
ENDBRANCH   6  18
TORSDOF 4
ENDMDL
MODEL 7
REMARK VINA RESULT:      -5.2      3.444      5.405
REMARK  Name = 
REMARK  4 active torsions:
REMARK  status: ('A' for Active; 'I' for Inactive)
REMARK    1  A    between atoms: C_2  and  N_8
REMARK    2  A    between atoms: C_4  and  C_6
REMARK    3  A    between atoms: C_6  and  O_7
REMARK    4  A    between atoms: C_11  and  N_15
REMARK                            x       y       z     vdW  Elec       q    Type
REMARK                         _______ _______ _______ _____ _____    ______ ____
ROOT
ATOM      1  N   UNL     1       7.274  -1.929  23.173  0.00  0.00    -0.232 N 
ATOM      2  C   UNL     1       7.169  -0.753  23.896  0.00  0.00    +0.397 C 
ATOM      3  O   UNL     1       6.109  -0.271  24.282  0.00  0.00    -0.224 OA
ATOM      4  N   UNL     1       8.341  -0.120  24.208  0.00  0.00    -0.156 N 
ATOM      5  H   UNL     1       8.236   0.704  24.781  0.00  0.00    +0.303 HD
ATOM      6  C   UNL     1       9.582  -0.447  23.766  0.00  0.00    +0.295 C 
ATOM      7  C   UNL     1       9.681  -1.456  22.891  0.00  0.00    +0.202 C 
ATOM      8  F   UNL     1      10.902  -1.805  22.422  0.00  0.00    -0.200 F 
ATOM      9  C   UNL     1       8.488  -2.198  22.402  0.00  0.00    +0.188 C 
ENDROOT
BRANCH   1  14
ATOM     10  C   UNL     1       5.120  -3.277  23.685  0.00  0.00    +0.123 C 
ATOM     11  S   UNL     1       5.903  -4.879  23.939  0.00  0.00    -0.123 S 
ATOM     12  C   UNL     1       6.745  -4.773  22.341  0.00  0.00    +0.203 C 
ATOM     13  O   UNL     1       6.389  -3.538  21.691  0.00  0.00    -0.342 OA
ATOM     14  C   UNL     1       6.043  -2.557  22.688  0.00  0.00    +0.223 C 
BRANCH  12  15
ATOM     15  C   UNL     1       6.366  -5.954  21.437  0.00  0.00    +0.198 C 
BRANCH  15  16
ATOM     16  O   UNL     1       5.969  -5.533  20.128  0.00  0.00    -0.392 OA
ATOM     17  H   UNL     1       5.701  -4.599  20.208  0.00  0.00    +0.210 HD
ENDBRANCH  15  16
ENDBRANCH  12  15
ENDBRANCH   1  14
BRANCH   6  18
ATOM     18  N   UNL     1      10.664   0.280  24.199  0.00  0.00    -0.249 N 
ATOM     19  H   UNL     1      10.457   0.838  25.021  0.00  0.00    +0.288 HD
ATOM     20  H   UNL     1      11.489  -0.304  24.334  0.00  0.00    +0.288 HD
ENDBRANCH   6  18
TORSDOF 4
ENDMDL
MODEL 8
REMARK VINA RESULT:      -5.1      3.497      5.800
REMARK  Name = 
REMARK  4 active torsions:
REMARK  status: ('A' for Active; 'I' for Inactive)
REMARK    1  A    between atoms: C_2  and  N_8
REMARK    2  A    between atoms: C_4  and  C_6
REMARK    3  A    between atoms: C_6  and  O_7
REMARK    4  A    between atoms: C_11  and  N_15
REMARK                            x       y       z     vdW  Elec       q    Type
REMARK                         _______ _______ _______ _____ _____    ______ ____
ROOT
ATOM      1  N   UNL     1       7.742  -3.951  23.699  0.00  0.00    -0.232 N 
ATOM      2  C   UNL     1       7.482  -3.731  22.357  0.00  0.00    +0.397 C 
ATOM      3  O   UNL     1       6.731  -4.422  21.676  0.00  0.00    -0.224 OA
ATOM      4  N   UNL     1       8.093  -2.649  21.784  0.00  0.00    -0.156 N 
ATOM      5  H   UNL     1       7.842  -2.483  20.822  0.00  0.00    +0.303 HD
ATOM      6  C   UNL     1       9.035  -1.855  22.354  0.00  0.00    +0.295 C 
ATOM      7  C   UNL     1       9.459  -2.181  23.582  0.00  0.00    +0.202 C 
ATOM      8  F   UNL     1      10.404  -1.417  24.178  0.00  0.00    -0.200 F 
ATOM      9  C   UNL     1       8.938  -3.370  24.308  0.00  0.00    +0.188 C 
ENDROOT
BRANCH   1  14
ATOM     10  C   UNL     1       5.725  -5.487  24.243  0.00  0.00    +0.123 C 
ATOM     11  S   UNL     1       5.004  -4.471  25.543  0.00  0.00    -0.123 S 
ATOM     12  C   UNL     1       6.577  -4.413  26.436  0.00  0.00    +0.203 C 
ATOM     13  O   UNL     1       7.568  -5.169  25.713  0.00  0.00    -0.342 OA
ATOM     14  C   UNL     1       7.230  -5.179  24.312  0.00  0.00    +0.223 C 
BRANCH  12  15
ATOM     15  C   UNL     1       6.430  -4.986  27.852  0.00  0.00    +0.198 C 
BRANCH  15  16
ATOM     16  O   UNL     1       7.341  -6.062  28.102  0.00  0.00    -0.392 OA
ATOM     17  H   UNL     1       7.633  -6.384  27.230  0.00  0.00    +0.210 HD
ENDBRANCH  15  16
ENDBRANCH  12  15
ENDBRANCH   1  14
BRANCH   6  18
ATOM     18  N   UNL     1       9.532  -0.788  21.648  0.00  0.00    -0.249 N 
ATOM     19  H   UNL     1      10.427  -0.989  21.212  0.00  0.00    +0.288 HD
ATOM     20  H   UNL     1       8.857  -0.423  20.977  0.00  0.00    +0.288 HD
ENDBRANCH   6  18
TORSDOF 4
ENDMDL
MODEL 9
REMARK VINA RESULT:      -5.1      3.219      5.311
REMARK  Name = 
REMARK  4 active torsions:
REMARK  status: ('A' for Active; 'I' for Inactive)
REMARK    1  A    between atoms: C_2  and  N_8
REMARK    2  A    between atoms: C_4  and  C_6
REMARK    3  A    between atoms: C_6  and  O_7
REMARK    4  A    between atoms: C_11  and  N_15
REMARK                            x       y       z     vdW  Elec       q    Type
REMARK                         _______ _______ _______ _____ _____    ______ ____
ROOT
ATOM      1  N   UNL     1       8.518  -0.630  23.854  0.00  0.00    -0.232 N 
ATOM      2  C   UNL     1       9.552   0.083  24.439  0.00  0.00    +0.397 C 
ATOM      3  O   UNL     1       9.973  -0.116  25.573  0.00  0.00    -0.224 OA
ATOM      4  N   UNL     1      10.141   1.050  23.670  0.00  0.00    -0.156 N 
ATOM      5  H   UNL     1      10.925   1.513  24.104  0.00  0.00    +0.303 HD
ATOM      6  C   UNL     1       9.729   1.478  22.450  0.00  0.00    +0.295 C 
ATOM      7  C   UNL     1       8.601   0.949  21.956  0.00  0.00    +0.202 C 
ATOM      8  F   UNL     1       8.156   1.358  20.746  0.00  0.00    -0.200 F 
ATOM      9  C   UNL     1       7.810  -0.064  22.706  0.00  0.00    +0.188 C 
ENDROOT
BRANCH   1  14
ATOM     10  C   UNL     1       8.517  -2.492  25.656  0.00  0.00    +0.123 C 
ATOM     11  S   UNL     1       9.124  -3.828  24.612  0.00  0.00    -0.123 S 
ATOM     12  C   UNL     1       7.828  -3.521  23.387  0.00  0.00    +0.203 C 
ATOM     13  O   UNL     1       6.996  -2.432  23.829  0.00  0.00    -0.342 OA
ATOM     14  C   UNL     1       7.762  -1.566  24.689  0.00  0.00    +0.223 C 
BRANCH  12  15
ATOM     15  C   UNL     1       6.963  -4.772  23.174  0.00  0.00    +0.198 C 
BRANCH  15  16
ATOM     16  O   UNL     1       7.377  -5.533  22.035  0.00  0.00    -0.392 OA
ATOM     17  H   UNL     1       7.272  -4.951  21.261  0.00  0.00    +0.210 HD
ENDBRANCH  15  16
ENDBRANCH  12  15
ENDBRANCH   1  14
BRANCH   6  18
ATOM     18  N   UNL     1      10.452   2.444  21.796  0.00  0.00    -0.249 N 
ATOM     19  H   UNL     1      11.151   2.055  21.171  0.00  0.00    +0.288 HD
ATOM     20  H   UNL     1       9.851   3.117  21.321  0.00  0.00    +0.288 HD
ENDBRANCH   6  18
TORSDOF 4
ENDMDL
