MODEL 1
REMARK VINA RESULT:      -5.9      0.000      0.000
REMARK  Name = 
REMARK  11 active torsions:
REMARK  status: ('A' for Active; 'I' for Inactive)
REMARK    1  A    between atoms: C_1  and  C_2
REMARK    2  A    between atoms: N_4  and  C_5
REMARK    3  A    between atoms: C_7  and  N_26
REMARK    4  A    between atoms: C_10  and  C_23
REMARK    5  A    between atoms: C_13  and  C_15
REMARK    6  A    between atoms: C_15  and  C_17
REMARK    7  A    between atoms: C_15  and  O_22
REMARK    8  A    between atoms: C_17  and  C_19
REMARK    9  A    between atoms: C_17  and  O_21
REMARK   10  A    between atoms: C_19  and  O_20
REMARK   11  A    between atoms: C_23  and  O_25
REMARK                            x       y       z     vdW  Elec       q    Type
REMARK                         _______ _______ _______ _____ _____    ______ ____
ROOT
ATOM      1  C   UNL     1       5.252  -5.050  25.151  0.00  0.00    +0.145 C 
ATOM      2  C   UNL     1       5.882  -4.053  24.125  0.00  0.00    +0.174 C 
ATOM      3  O   UNL     1       7.285  -4.322  23.924  0.00  0.00    -0.357 OA
ATOM      4  C   UNL     1       8.046  -4.254  25.130  0.00  0.00    +0.230 C 
ATOM      5  C   UNL     1       7.634  -5.409  26.020  0.00  0.00    +0.089 C 
ATOM      6  C   UNL     1       6.169  -5.240  26.401  0.00  0.00    +0.214 C 
ENDROOT
BRANCH   6   7
ATOM      7  N   UNL     1       5.702  -6.427  27.126  0.00  0.00    -0.108 NA
ATOM      8  C   UNL     1       5.321  -6.382  28.341  0.00  0.00    +0.377 C 
ATOM      9  N   UNL     1       4.897  -7.508  28.952  0.00  0.00    -0.289 N 
ATOM     10  H   UNL     1       5.248  -7.608  29.896  0.00  0.00    +0.255 HD
ATOM     11  H   UNL     1       5.137  -8.324  28.394  0.00  0.00    +0.255 HD
ATOM     12  N   UNL     1       5.263  -5.347  29.204  0.00  0.00    -0.289 N 
ATOM     13  H   UNL     1       4.460  -5.392  29.823  0.00  0.00    +0.255 HD
ATOM     14  H   UNL     1       5.385  -4.426  28.812  0.00  0.00    +0.255 HD
ENDBRANCH   6   7
BRANCH   1  17
ATOM     15  C   UNL     1       1.639  -4.835  26.351  0.00  0.00    +0.109 C 
ATOM     16  C   UNL     1       2.820  -5.420  25.621  0.00  0.00    +0.210 C 
ATOM     17  N   UNL     1       3.924  -4.605  25.631  0.00  0.00    -0.307 N 
ATOM     18  H   UNL     1       3.928  -3.891  26.348  0.00  0.00    +0.149 HD
ATOM     19  O   UNL     1       2.758  -6.510  25.065  0.00  0.00    -0.276 OA
ENDBRANCH   1  17
BRANCH   4  20
ATOM     20  C   UNL     1       9.529  -4.364  24.790  0.00  0.00    +0.334 C 
ATOM     21  O   UNL     1      10.145  -3.534  24.138  0.00  0.00    -0.248 OA
BRANCH  20  22
ATOM     22  O   UNL     1      10.101  -5.475  25.314  0.00  0.00    -0.479 OA
ATOM     23  H   UNL     1       9.530  -5.817  26.039  0.00  0.00    +0.295 HD
ENDBRANCH  20  22
ENDBRANCH   4  20
BRANCH   2  24
ATOM     24  C   UNL     1       5.187  -4.100  22.739  0.00  0.00    +0.176 C 
BRANCH  24  25
ATOM     25  O   UNL     1       4.145  -5.089  22.751  0.00  0.00    -0.387 OA
ATOM     26  H   UNL     1       3.348  -4.628  22.420  0.00  0.00    +0.210 HD
ENDBRANCH  24  25
BRANCH  24  27
ATOM     27  C   UNL     1       6.120  -4.392  21.539  0.00  0.00    +0.171 C 
BRANCH  27  28
ATOM     28  O   UNL     1       5.663  -3.583  20.427  0.00  0.00    -0.387 OA
ATOM     29  H   UNL     1       5.326  -2.748  20.803  0.00  0.00    +0.210 HD
ENDBRANCH  27  28
BRANCH  27  30
ATOM     30  C   UNL     1       6.109  -5.845  21.047  0.00  0.00    +0.189 C 
BRANCH  30  31
ATOM     31  O   UNL     1       6.428  -6.728  22.129  0.00  0.00    -0.392 OA
ATOM     32  H   UNL     1       5.813  -7.479  22.039  0.00  0.00    +0.210 HD
ENDBRANCH  30  31
ENDBRANCH  27  30
ENDBRANCH  24  27
ENDBRANCH   2  24
TORSDOF 10
ENDMDL
MODEL 2
REMARK VINA RESULT:      -5.9      4.008      6.649
REMARK  Name = 
REMARK  11 active torsions:
REMARK  status: ('A' for Active; 'I' for Inactive)
REMARK    1  A    between atoms: C_1  and  C_2
REMARK    2  A    between atoms: N_4  and  C_5
REMARK    3  A    between atoms: C_7  and  N_26
REMARK    4  A    between atoms: C_10  and  C_23
REMARK    5  A    between atoms: C_13  and  C_15
REMARK    6  A    between atoms: C_15  and  C_17
REMARK    7  A    between atoms: C_15  and  O_22
REMARK    8  A    between atoms: C_17  and  C_19
REMARK    9  A    between atoms: C_17  and  O_21
REMARK   10  A    between atoms: C_19  and  O_20
REMARK   11  A    between atoms: C_23  and  O_25
REMARK                            x       y       z     vdW  Elec       q    Type
REMARK                         _______ _______ _______ _____ _____    ______ ____
ROOT
ATOM      1  C   UNL     1       7.877  -1.894  24.255  0.00  0.00    +0.145 C 
ATOM      2  C   UNL     1       7.076  -3.144  24.747  0.00  0.00    +0.174 C 
ATOM      3  O   UNL     1       7.170  -4.233  23.806  0.00  0.00    -0.357 OA
ATOM      4  C   UNL     1       6.695  -3.890  22.504  0.00  0.00    +0.230 C 
ATOM      5  C   UNL     1       7.647  -2.876  21.901  0.00  0.00    +0.089 C 
ATOM      6  C   UNL     1       7.614  -1.607  22.742  0.00  0.00    +0.214 C 
ENDROOT
BRANCH   6   7
ATOM      7  N   UNL     1       8.645  -0.673  22.276  0.00  0.00    -0.108 NA
ATOM      8  C   UNL     1       8.397   0.553  22.028  0.00  0.00    +0.377 C 
ATOM      9  N   UNL     1       9.391   1.363  21.606  0.00  0.00    -0.289 N 
ATOM     10  H   UNL     1       9.112   1.978  20.851  0.00  0.00    +0.255 HD
ATOM     11  H   UNL     1      10.204   0.815  21.338  0.00  0.00    +0.255 HD
ATOM     12  N   UNL     1       7.244   1.247  22.103  0.00  0.00    -0.289 N 
ATOM     13  H   UNL     1       7.376   2.200  22.424  0.00  0.00    +0.255 HD
ATOM     14  H   UNL     1       6.475   0.794  22.574  0.00  0.00    +0.255 HD
ENDBRANCH   6   7
BRANCH   1  17
ATOM     15  C   UNL     1       7.918   1.457  26.073  0.00  0.00    +0.109 C 
ATOM     16  C   UNL     1       8.487   0.169  25.536  0.00  0.00    +0.210 C 
ATOM     17  N   UNL     1       7.535  -0.668  25.011  0.00  0.00    -0.307 N 
ATOM     18  H   UNL     1       6.657  -0.228  24.768  0.00  0.00    +0.149 HD
ATOM     19  O   UNL     1       9.684  -0.082  25.598  0.00  0.00    -0.276 OA
ENDBRANCH   1  17
BRANCH   4  20
ATOM     20  C   UNL     1       6.658  -5.146  21.640  0.00  0.00    +0.334 C 
ATOM     21  O   UNL     1       5.973  -5.266  20.635  0.00  0.00    -0.248 OA
BRANCH  20  22
ATOM     22  O   UNL     1       7.492  -6.113  22.093  0.00  0.00    -0.479 OA
ATOM     23  H   UNL     1       8.183  -6.284  21.414  0.00  0.00    +0.295 HD
ENDBRANCH  20  22
ENDBRANCH   4  20
BRANCH   2  24
ATOM     24  C   UNL     1       7.565  -3.664  26.124  0.00  0.00    +0.176 C 
BRANCH  24  25
ATOM     25  O   UNL     1       8.624  -2.825  26.614  0.00  0.00    -0.387 OA
ATOM     26  H   UNL     1       9.016  -2.414  25.818  0.00  0.00    +0.210 HD
ENDBRANCH  24  25
BRANCH  24  27
ATOM     27  C   UNL     1       8.061  -5.130  26.141  0.00  0.00    +0.171 C 
BRANCH  27  28
ATOM     28  O   UNL     1       7.958  -5.608  27.505  0.00  0.00    -0.387 OA
ATOM     29  H   UNL     1       7.638  -4.861  28.044  0.00  0.00    +0.210 HD
ENDBRANCH  27  28
BRANCH  27  30
ATOM     30  C   UNL     1       9.525  -5.325  25.726  0.00  0.00    +0.189 C 
BRANCH  30  31
ATOM     31  O   UNL     1       9.589  -5.872  24.404  0.00  0.00    -0.392 OA
ATOM     32  H   UNL     1      10.319  -5.399  23.964  0.00  0.00    +0.210 HD
ENDBRANCH  30  31
ENDBRANCH  27  30
ENDBRANCH  24  27
ENDBRANCH   2  24
TORSDOF 10
ENDMDL
MODEL 3
REMARK VINA RESULT:      -5.8      3.687      5.413
REMARK  Name = 
REMARK  11 active torsions:
REMARK  status: ('A' for Active; 'I' for Inactive)
REMARK    1  A    between atoms: C_1  and  C_2
REMARK    2  A    between atoms: N_4  and  C_5
REMARK    3  A    between atoms: C_7  and  N_26
REMARK    4  A    between atoms: C_10  and  C_23
REMARK    5  A    between atoms: C_13  and  C_15
REMARK    6  A    between atoms: C_15  and  C_17
REMARK    7  A    between atoms: C_15  and  O_22
REMARK    8  A    between atoms: C_17  and  C_19
REMARK    9  A    between atoms: C_17  and  O_21
REMARK   10  A    between atoms: C_19  and  O_20
REMARK   11  A    between atoms: C_23  and  O_25
REMARK                            x       y       z     vdW  Elec       q    Type
REMARK                         _______ _______ _______ _____ _____    ______ ____
ROOT
ATOM      1  C   UNL     1       7.396  -1.877  23.658  0.00  0.00    +0.145 C 
ATOM      2  C   UNL     1       7.676  -3.253  22.969  0.00  0.00    +0.174 C 
ATOM      3  O   UNL     1       7.710  -4.326  23.932  0.00  0.00    -0.357 OA
ATOM      4  C   UNL     1       8.694  -4.134  24.948  0.00  0.00    +0.230 C 
ATOM      5  C   UNL     1       8.270  -2.960  25.808  0.00  0.00    +0.089 C 
ATOM      6  C   UNL     1       8.255  -1.702  24.951  0.00  0.00    +0.214 C 
ENDROOT
BRANCH   6   7
ATOM      7  N   UNL     1       7.692  -0.583  25.717  0.00  0.00    -0.108 NA
ATOM      8  C   UNL     1       8.304   0.525  25.862  0.00  0.00    +0.377 C 
ATOM      9  N   UNL     1       7.730   1.517  26.574  0.00  0.00    -0.289 N 
ATOM     10  H   UNL     1       8.375   1.990  27.194  0.00  0.00    +0.255 HD
ATOM     11  H   UNL     1       6.931   1.163  27.093  0.00  0.00    +0.255 HD
ATOM     12  N   UNL     1       9.511   0.925  25.413  0.00  0.00    -0.289 N 
ATOM     13  H   UNL     1       9.529   1.903  25.145  0.00  0.00    +0.255 HD
ATOM     14  H   UNL     1       9.954   0.337  24.724  0.00  0.00    +0.255 HD
ENDBRANCH   6   7
BRANCH   1  17
ATOM     15  C   UNL     1       8.973   0.642  21.270  0.00  0.00    +0.109 C 
ATOM     16  C   UNL     1       8.947  -0.427  22.331  0.00  0.00    +0.210 C 
ATOM     17  N   UNL     1       7.683  -0.730  22.768  0.00  0.00    -0.307 N 
ATOM     18  H   UNL     1       6.932  -0.451  22.149  0.00  0.00    +0.149 HD
ATOM     19  O   UNL     1       9.976  -0.940  22.754  0.00  0.00    -0.276 OA
ENDBRANCH   1  17
BRANCH   4  20
ATOM     20  C   UNL     1       8.785  -5.396  25.800  0.00  0.00    +0.334 C 
ATOM     21  O   UNL     1       7.909  -5.770  26.565  0.00  0.00    -0.248 OA
BRANCH  20  22
ATOM     22  O   UNL     1       9.938  -6.078  25.596  0.00  0.00    -0.479 OA
ATOM     23  H   UNL     1      10.040  -6.254  24.633  0.00  0.00    +0.295 HD
ENDBRANCH  20  22
ENDBRANCH   4  20
BRANCH   2  24
ATOM     24  C   UNL     1       6.613  -3.613  21.897  0.00  0.00    +0.176 C 
BRANCH  24  25
ATOM     25  O   UNL     1       5.462  -2.767  22.050  0.00  0.00    -0.387 OA
ATOM     26  H   UNL     1       4.927  -2.912  21.244  0.00  0.00    +0.210 HD
ENDBRANCH  24  25
BRANCH  24  27
ATOM     27  C   UNL     1       6.137  -5.086  21.904  0.00  0.00    +0.171 C 
BRANCH  27  28
ATOM     28  O   UNL     1       5.971  -5.494  20.523  0.00  0.00    -0.387 OA
ATOM     29  H   UNL     1       5.020  -5.423  20.319  0.00  0.00    +0.210 HD
ENDBRANCH  27  28
BRANCH  27  30
ATOM     30  C   UNL     1       4.787  -5.329  22.591  0.00  0.00    +0.189 C 
BRANCH  30  31
ATOM     31  O   UNL     1       4.879  -4.992  23.979  0.00  0.00    -0.392 OA
ATOM     32  H   UNL     1       4.282  -4.231  24.101  0.00  0.00    +0.210 HD
ENDBRANCH  30  31
ENDBRANCH  27  30
ENDBRANCH  24  27
ENDBRANCH   2  24
TORSDOF 10
ENDMDL
MODEL 4
REMARK VINA RESULT:      -5.7      3.429      5.188
REMARK  Name = 
REMARK  11 active torsions:
REMARK  status: ('A' for Active; 'I' for Inactive)
REMARK    1  A    between atoms: C_1  and  C_2
REMARK    2  A    between atoms: N_4  and  C_5
REMARK    3  A    between atoms: C_7  and  N_26
REMARK    4  A    between atoms: C_10  and  C_23
REMARK    5  A    between atoms: C_13  and  C_15
REMARK    6  A    between atoms: C_15  and  C_17
REMARK    7  A    between atoms: C_15  and  O_22
REMARK    8  A    between atoms: C_17  and  C_19
REMARK    9  A    between atoms: C_17  and  O_21
REMARK   10  A    between atoms: C_19  and  O_20
REMARK   11  A    between atoms: C_23  and  O_25
REMARK                            x       y       z     vdW  Elec       q    Type
REMARK                         _______ _______ _______ _____ _____    ______ ____
ROOT
ATOM      1  C   UNL     1       7.726  -3.322  24.516  0.00  0.00    +0.145 C 
ATOM      2  C   UNL     1       7.683  -4.885  24.512  0.00  0.00    +0.174 C 
ATOM      3  O   UNL     1       6.821  -5.390  25.552  0.00  0.00    -0.357 OA
ATOM      4  C   UNL     1       7.211  -4.963  26.858  0.00  0.00    +0.230 C 
ATOM      5  C   UNL     1       6.978  -3.469  26.961  0.00  0.00    +0.089 C 
ATOM      6  C   UNL     1       7.885  -2.759  25.964  0.00  0.00    +0.214 C 
ENDROOT
BRANCH   6   7
ATOM      7  N   UNL     1       7.562  -1.328  25.929  0.00  0.00    -0.108 NA
ATOM      8  C   UNL     1       8.189  -0.466  26.627  0.00  0.00    +0.377 C 
ATOM      9  N   UNL     1       7.848   0.837  26.546  0.00  0.00    -0.289 N 
ATOM     10  H   UNL     1       7.819   1.299  27.446  0.00  0.00    +0.255 HD
ATOM     11  H   UNL     1       6.959   0.940  26.064  0.00  0.00    +0.255 HD
ATOM     12  N   UNL     1       9.201  -0.619  27.506  0.00  0.00    -0.289 N 
ATOM     13  H   UNL     1       9.869   0.144  27.477  0.00  0.00    +0.255 HD
ATOM     14  H   UNL     1       9.657  -1.519  27.517  0.00  0.00    +0.255 HD
ENDBRANCH   6   7
BRANCH   1  17
ATOM     15  C   UNL     1       9.927  -1.312  22.138  0.00  0.00    +0.109 C 
ATOM     16  C   UNL     1       8.643  -1.882  22.684  0.00  0.00    +0.210 C 
ATOM     17  N   UNL     1       8.837  -2.784  23.700  0.00  0.00    -0.307 N 
ATOM     18  H   UNL     1       9.739  -2.735  24.157  0.00  0.00    +0.149 HD
ATOM     19  O   UNL     1       7.552  -1.565  22.227  0.00  0.00    -0.276 OA
ENDBRANCH   1  17
BRANCH   4  20
ATOM     20  C   UNL     1       6.364  -5.694  27.895  0.00  0.00    +0.334 C 
ATOM     21  O   UNL     1       6.224  -5.321  29.050  0.00  0.00    -0.248 OA
BRANCH  20  22
ATOM     22  O   UNL     1       5.759  -6.795  27.388  0.00  0.00    -0.479 OA
ATOM     23  H   UNL     1       5.027  -6.513  26.794  0.00  0.00    +0.295 HD
ENDBRANCH  20  22
ENDBRANCH   4  20
BRANCH   2  24
ATOM     24  C   UNL     1       7.186  -5.467  23.162  0.00  0.00    +0.176 C 
BRANCH  24  25
ATOM     25  O   UNL     1       7.673  -4.662  22.076  0.00  0.00    -0.387 OA
ATOM     26  H   UNL     1       8.235  -5.260  21.544  0.00  0.00    +0.210 HD
ENDBRANCH  24  25
BRANCH  24  27
ATOM     27  C   UNL     1       5.650  -5.595  23.020  0.00  0.00    +0.171 C 
BRANCH  27  28
ATOM     28  O   UNL     1       5.385  -6.252  21.756  0.00  0.00    -0.387 OA
ATOM     29  H   UNL     1       4.510  -6.675  21.834  0.00  0.00    +0.210 HD
ENDBRANCH  27  28
BRANCH  27  30
ATOM     30  C   UNL     1       4.888  -4.264  22.982  0.00  0.00    +0.189 C 
BRANCH  30  31
ATOM     31  O   UNL     1       5.237  -3.536  21.800  0.00  0.00    -0.392 OA
ATOM     32  H   UNL     1       5.621  -2.698  22.117  0.00  0.00    +0.210 HD
ENDBRANCH  30  31
ENDBRANCH  27  30
ENDBRANCH  24  27
ENDBRANCH   2  24
TORSDOF 10
ENDMDL
MODEL 5
REMARK VINA RESULT:      -5.6      3.572      6.201
REMARK  Name = 
REMARK  11 active torsions:
REMARK  status: ('A' for Active; 'I' for Inactive)
REMARK    1  A    between atoms: C_1  and  C_2
REMARK    2  A    between atoms: N_4  and  C_5
REMARK    3  A    between atoms: C_7  and  N_26
REMARK    4  A    between atoms: C_10  and  C_23
REMARK    5  A    between atoms: C_13  and  C_15
REMARK    6  A    between atoms: C_15  and  C_17
REMARK    7  A    between atoms: C_15  and  O_22
REMARK    8  A    between atoms: C_17  and  C_19
REMARK    9  A    between atoms: C_17  and  O_21
REMARK   10  A    between atoms: C_19  and  O_20
REMARK   11  A    between atoms: C_23  and  O_25
REMARK                            x       y       z     vdW  Elec       q    Type
REMARK                         _______ _______ _______ _____ _____    ______ ____
ROOT
ATOM      1  C   UNL     1       7.559  -2.627  25.078  0.00  0.00    +0.145 C 
ATOM      2  C   UNL     1       6.998  -4.069  25.308  0.00  0.00    +0.174 C 
ATOM      3  O   UNL     1       7.229  -4.912  24.161  0.00  0.00    -0.357 OA
ATOM      4  C   UNL     1       6.647  -4.398  22.963  0.00  0.00    +0.230 C 
ATOM      5  C   UNL     1       7.390  -3.136  22.574  0.00  0.00    +0.089 C 
ATOM      6  C   UNL     1       7.184  -2.089  23.660  0.00  0.00    +0.214 C 
ENDROOT
BRANCH   6   7
ATOM      7  N   UNL     1       8.025  -0.917  23.388  0.00  0.00    -0.108 NA
ATOM      8  C   UNL     1       7.536   0.231  23.125  0.00  0.00    +0.377 C 
ATOM      9  N   UNL     1       8.363   1.271  22.889  0.00  0.00    -0.289 N 
ATOM     10  H   UNL     1       8.068   1.847  22.110  0.00  0.00    +0.255 HD
ATOM     11  H   UNL     1       9.314   0.942  22.749  0.00  0.00    +0.255 HD
ATOM     12  N   UNL     1       6.254   0.635  23.022  0.00  0.00    -0.289 N 
ATOM     13  H   UNL     1       6.105   1.573  23.378  0.00  0.00    +0.255 HD
ATOM     14  H   UNL     1       5.550  -0.009  23.351  0.00  0.00    +0.255 HD
ENDBRANCH   6   7
BRANCH   1  17
ATOM     15  C   UNL     1       7.151   0.189  27.616  0.00  0.00    +0.109 C 
ATOM     16  C   UNL     1       7.883  -0.868  26.831  0.00  0.00    +0.210 C 
ATOM     17  N   UNL     1       7.053  -1.657  26.076  0.00  0.00    -0.307 N 
ATOM     18  H   UNL     1       6.136  -1.269  25.892  0.00  0.00    +0.149 HD
ATOM     19  O   UNL     1       9.099  -0.996  26.900  0.00  0.00    -0.276 OA
ENDBRANCH   1  17
BRANCH   4  20
ATOM     20  C   UNL     1       6.779  -5.441  21.857  0.00  0.00    +0.334 C 
ATOM     21  O   UNL     1       7.511  -6.417  21.920  0.00  0.00    -0.248 OA
BRANCH  20  22
ATOM     22  O   UNL     1       5.972  -5.181  20.800  0.00  0.00    -0.479 OA
ATOM     23  H   UNL     1       5.209  -4.640  21.105  0.00  0.00    +0.295 HD
ENDBRANCH  20  22
ENDBRANCH   4  20
BRANCH   2  24
ATOM     24  C   UNL     1       7.627  -4.766  26.542  0.00  0.00    +0.176 C 
BRANCH  24  25
ATOM     25  O   UNL     1       8.510  -5.815  26.112  0.00  0.00    -0.387 OA
ATOM     26  H   UNL     1       8.313  -5.944  25.162  0.00  0.00    +0.210 HD
ENDBRANCH  24  25
BRANCH  24  27
ATOM     27  C   UNL     1       6.619  -5.366  27.551  0.00  0.00    +0.171 C 
BRANCH  27  28
ATOM     28  O   UNL     1       7.325  -6.365  28.329  0.00  0.00    -0.387 OA
ATOM     29  H   UNL     1       8.162  -6.546  27.865  0.00  0.00    +0.210 HD
ENDBRANCH  27  28
BRANCH  27  30
ATOM     30  C   UNL     1       5.417  -6.082  26.921  0.00  0.00    +0.189 C 
BRANCH  30  31
ATOM     31  O   UNL     1       5.182  -7.324  27.592  0.00  0.00    -0.392 OA
ATOM     32  H   UNL     1       5.432  -7.167  28.522  0.00  0.00    +0.210 HD
ENDBRANCH  30  31
ENDBRANCH  27  30
ENDBRANCH  24  27
ENDBRANCH   2  24
TORSDOF 10
ENDMDL
MODEL 6
REMARK VINA RESULT:      -5.5      2.769      3.552
REMARK  Name = 
REMARK  11 active torsions:
REMARK  status: ('A' for Active; 'I' for Inactive)
REMARK    1  A    between atoms: C_1  and  C_2
REMARK    2  A    between atoms: N_4  and  C_5
REMARK    3  A    between atoms: C_7  and  N_26
REMARK    4  A    between atoms: C_10  and  C_23
REMARK    5  A    between atoms: C_13  and  C_15
REMARK    6  A    between atoms: C_15  and  C_17
REMARK    7  A    between atoms: C_15  and  O_22
REMARK    8  A    between atoms: C_17  and  C_19
REMARK    9  A    between atoms: C_17  and  O_21
REMARK   10  A    between atoms: C_19  and  O_20
REMARK   11  A    between atoms: C_23  and  O_25
REMARK                            x       y       z     vdW  Elec       q    Type
REMARK                         _______ _______ _______ _____ _____    ______ ____
ROOT
ATOM      1  C   UNL     1       6.820  -3.218  24.123  0.00  0.00    +0.145 C 
ATOM      2  C   UNL     1       6.466  -2.630  22.717  0.00  0.00    +0.174 C 
ATOM      3  O   UNL     1       7.649  -2.192  22.018  0.00  0.00    -0.357 OA
ATOM      4  C   UNL     1       8.388  -1.203  22.735  0.00  0.00    +0.230 C 
ATOM      5  C   UNL     1       8.981  -1.852  23.969  0.00  0.00    +0.089 C 
ATOM      6  C   UNL     1       7.848  -2.314  24.876  0.00  0.00    +0.214 C 
ENDROOT
BRANCH   6   7
ATOM      7  N   UNL     1       8.392  -3.091  25.997  0.00  0.00    -0.108 NA
ATOM      8  C   UNL     1       8.922  -4.239  25.842  0.00  0.00    +0.377 C 
ATOM      9  N   UNL     1       9.410  -4.901  26.912  0.00  0.00    -0.289 N 
ATOM     10  H   UNL     1       9.178  -5.887  26.912  0.00  0.00    +0.255 HD
ATOM     11  H   UNL     1       9.095  -4.461  27.773  0.00  0.00    +0.255 HD
ATOM     12  N   UNL     1       9.097  -4.981  24.729  0.00  0.00    -0.289 N 
ATOM     13  H   UNL     1       9.970  -5.498  24.731  0.00  0.00    +0.255 HD
ATOM     14  H   UNL     1       8.934  -4.518  23.848  0.00  0.00    +0.255 HD
ENDBRANCH   6   7
BRANCH   1  17
ATOM     15  C   UNL     1       4.193  -4.398  26.622  0.00  0.00    +0.109 C 
ATOM     16  C   UNL     1       5.316  -4.539  25.627  0.00  0.00    +0.210 C 
ATOM     17  N   UNL     1       5.630  -3.364  24.991  0.00  0.00    -0.307 N 
ATOM     18  H   UNL     1       5.313  -2.522  25.455  0.00  0.00    +0.149 HD
ATOM     19  O   UNL     1       5.858  -5.616  25.417  0.00  0.00    -0.276 OA
ENDBRANCH   1  17
BRANCH   4  20
ATOM     20  C   UNL     1       9.503  -0.668  21.842  0.00  0.00    +0.334 C 
ATOM     21  O   UNL     1       9.593   0.496  21.481  0.00  0.00    -0.248 OA
BRANCH  20  22
ATOM     22  O   UNL     1      10.406  -1.623  21.512  0.00  0.00    -0.479 OA
ATOM     23  H   UNL     1      11.238  -1.189  21.217  0.00  0.00    +0.295 HD
ENDBRANCH  20  22
ENDBRANCH   4  20
BRANCH   2  24
ATOM     24  C   UNL     1       5.732  -3.651  21.810  0.00  0.00    +0.176 C 
BRANCH  24  25
ATOM     25  O   UNL     1       4.619  -4.222  22.519  0.00  0.00    -0.387 OA
ATOM     26  H   UNL     1       5.014  -4.704  23.272  0.00  0.00    +0.210 HD
ENDBRANCH  24  25
BRANCH  24  27
ATOM     27  C   UNL     1       6.606  -4.809  21.269  0.00  0.00    +0.171 C 
BRANCH  27  28
ATOM     28  O   UNL     1       5.909  -5.388  20.138  0.00  0.00    -0.387 OA
ATOM     29  H   UNL     1       5.733  -4.662  19.512  0.00  0.00    +0.210 HD
ENDBRANCH  27  28
BRANCH  27  30
ATOM     30  C   UNL     1       6.849  -5.956  22.259  0.00  0.00    +0.189 C 
BRANCH  30  31
ATOM     31  O   UNL     1       5.649  -6.718  22.427  0.00  0.00    -0.392 OA
ATOM     32  H   UNL     1       5.385  -6.985  21.527  0.00  0.00    +0.210 HD
ENDBRANCH  30  31
ENDBRANCH  27  30
ENDBRANCH  24  27
ENDBRANCH   2  24
TORSDOF 10
ENDMDL
MODEL 7
REMARK VINA RESULT:      -5.5      3.067      4.755
REMARK  Name = 
REMARK  11 active torsions:
REMARK  status: ('A' for Active; 'I' for Inactive)
REMARK    1  A    between atoms: C_1  and  C_2
REMARK    2  A    between atoms: N_4  and  C_5
REMARK    3  A    between atoms: C_7  and  N_26
REMARK    4  A    between atoms: C_10  and  C_23
REMARK    5  A    between atoms: C_13  and  C_15
REMARK    6  A    between atoms: C_15  and  C_17
REMARK    7  A    between atoms: C_15  and  O_22
REMARK    8  A    between atoms: C_17  and  C_19
REMARK    9  A    between atoms: C_17  and  O_21
REMARK   10  A    between atoms: C_19  and  O_20
REMARK   11  A    between atoms: C_23  and  O_25
REMARK                            x       y       z     vdW  Elec       q    Type
REMARK                         _______ _______ _______ _____ _____    ______ ____
ROOT
ATOM      1  C   UNL     1       7.326  -3.731  24.422  0.00  0.00    +0.145 C 
ATOM      2  C   UNL     1       7.755  -2.277  24.039  0.00  0.00    +0.174 C 
ATOM      3  O   UNL     1       8.098  -1.505  25.208  0.00  0.00    -0.357 OA
ATOM      4  C   UNL     1       7.030  -1.415  26.152  0.00  0.00    +0.230 C 
ATOM      5  C   UNL     1       6.801  -2.791  26.745  0.00  0.00    +0.089 C 
ATOM      6  C   UNL     1       6.348  -3.735  25.640  0.00  0.00    +0.214 C 
ENDROOT
BRANCH   6   7
ATOM      7  N   UNL     1       6.278  -5.108  26.155  0.00  0.00    -0.108 NA
ATOM      8  C   UNL     1       5.172  -5.716  26.335  0.00  0.00    +0.377 C 
ATOM      9  N   UNL     1       5.174  -6.981  26.807  0.00  0.00    -0.289 N 
ATOM     10  H   UNL     1       4.467  -7.146  27.512  0.00  0.00    +0.255 HD
ATOM     11  H   UNL     1       6.095  -7.224  27.162  0.00  0.00    +0.255 HD
ATOM     12  N   UNL     1       3.904  -5.305  26.138  0.00  0.00    -0.289 N 
ATOM     13  H   UNL     1       3.298  -6.043  25.793  0.00  0.00    +0.255 HD
ATOM     14  H   UNL     1       3.782  -4.447  25.622  0.00  0.00    +0.255 HD
ENDBRANCH   6   7
BRANCH   1  17
ATOM     15  C   UNL     1       6.244  -6.220  21.744  0.00  0.00    +0.109 C 
ATOM     16  C   UNL     1       7.191  -5.546  22.702  0.00  0.00    +0.210 C 
ATOM     17  N   UNL     1       6.656  -4.436  23.306  0.00  0.00    -0.307 N 
ATOM     18  H   UNL     1       5.646  -4.377  23.286  0.00  0.00    +0.149 HD
ATOM     19  O   UNL     1       8.328  -5.962  22.883  0.00  0.00    -0.276 OA
ENDBRANCH   1  17
BRANCH   4  20
ATOM     20  C   UNL     1       7.419  -0.432  27.252  0.00  0.00    +0.334 C 
ATOM     21  O   UNL     1       6.615   0.184  27.935  0.00  0.00    -0.248 OA
BRANCH  20  22
ATOM     22  O   UNL     1       8.761  -0.336  27.411  0.00  0.00    -0.479 OA
ATOM     23  H   UNL     1       9.139   0.155  26.647  0.00  0.00    +0.295 HD
ENDBRANCH  20  22
ENDBRANCH   4  20
BRANCH   2  24
ATOM     24  C   UNL     1       8.972  -2.245  23.077  0.00  0.00    +0.176 C 
BRANCH  24  25
ATOM     25  O   UNL     1      10.109  -2.856  23.710  0.00  0.00    -0.387 OA
ATOM     26  H   UNL     1       9.737  -3.425  24.413  0.00  0.00    +0.210 HD
ENDBRANCH  24  25
BRANCH  24  27
ATOM     27  C   UNL     1       9.390  -0.839  22.582  0.00  0.00    +0.171 C 
BRANCH  27  28
ATOM     28  O   UNL     1       9.764  -0.964  21.188  0.00  0.00    -0.387 OA
ATOM     29  H   UNL     1       8.936  -1.020  20.676  0.00  0.00    +0.210 HD
ENDBRANCH  27  28
BRANCH  27  30
ATOM     30  C   UNL     1      10.602  -0.232  23.301  0.00  0.00    +0.189 C 
BRANCH  30  31
ATOM     31  O   UNL     1      10.288  -0.004  24.679  0.00  0.00    -0.392 OA
ATOM     32  H   UNL     1       9.318  -0.089  24.741  0.00  0.00    +0.210 HD
ENDBRANCH  30  31
ENDBRANCH  27  30
ENDBRANCH  24  27
ENDBRANCH   2  24
TORSDOF 10
ENDMDL
MODEL 8
REMARK VINA RESULT:      -5.4      3.566      5.244
REMARK  Name = 
REMARK  11 active torsions:
REMARK  status: ('A' for Active; 'I' for Inactive)
REMARK    1  A    between atoms: C_1  and  C_2
REMARK    2  A    between atoms: N_4  and  C_5
REMARK    3  A    between atoms: C_7  and  N_26
REMARK    4  A    between atoms: C_10  and  C_23
REMARK    5  A    between atoms: C_13  and  C_15
REMARK    6  A    between atoms: C_15  and  C_17
REMARK    7  A    between atoms: C_15  and  O_22
REMARK    8  A    between atoms: C_17  and  C_19
REMARK    9  A    between atoms: C_17  and  O_21
REMARK   10  A    between atoms: C_19  and  O_20
REMARK   11  A    between atoms: C_23  and  O_25
REMARK                            x       y       z     vdW  Elec       q    Type
REMARK                         _______ _______ _______ _____ _____    ______ ____
ROOT
ATOM      1  C   UNL     1       6.529  -2.381  24.378  0.00  0.00    +0.145 C 
ATOM      2  C   UNL     1       7.382  -3.248  23.395  0.00  0.00    +0.174 C 
ATOM      3  O   UNL     1       8.609  -2.582  23.035  0.00  0.00    -0.357 OA
ATOM      4  C   UNL     1       8.395  -1.308  22.426  0.00  0.00    +0.230 C 
ATOM      5  C   UNL     1       7.828  -0.369  23.472  0.00  0.00    +0.089 C 
ATOM      6  C   UNL     1       6.468  -0.890  23.917  0.00  0.00    +0.214 C 
ENDROOT
BRANCH   6   7
ATOM      7  N   UNL     1       5.973  -0.090  25.044  0.00  0.00    -0.108 NA
ATOM      8  C   UNL     1       5.452   1.062  24.889  0.00  0.00    +0.377 C 
ATOM      9  N   UNL     1       5.010   1.746  25.966  0.00  0.00    -0.289 N 
ATOM     10  H   UNL     1       5.253   2.728  25.944  0.00  0.00    +0.255 HD
ATOM     11  H   UNL     1       5.348   1.314  26.822  0.00  0.00    +0.255 HD
ATOM     12  N   UNL     1       5.249   1.790  23.773  0.00  0.00    -0.289 N 
ATOM     13  H   UNL     1       4.383   2.319  23.796  0.00  0.00    +0.255 HD
ATOM     14  H   UNL     1       5.376   1.313  22.893  0.00  0.00    +0.255 HD
ENDBRANCH   6   7
BRANCH   1  17
ATOM     15  C   UNL     1       3.038  -3.319  25.591  0.00  0.00    +0.109 C 
ATOM     16  C   UNL     1       4.509  -3.018  25.714  0.00  0.00    +0.210 C 
ATOM     17  N   UNL     1       5.137  -2.870  24.503  0.00  0.00    -0.307 N 
ATOM     18  H   UNL     1       4.527  -2.676  23.720  0.00  0.00    +0.149 HD
ATOM     19  O   UNL     1       5.062  -2.942  26.804  0.00  0.00    -0.276 OA
ENDBRANCH   1  17
BRANCH   4  20
ATOM     20  C   UNL     1       9.727  -0.771  21.913  0.00  0.00    +0.334 C 
ATOM     21  O   UNL     1       9.920   0.393  21.596  0.00  0.00    -0.248 OA
BRANCH  20  22
ATOM     22  O   UNL     1      10.690  -1.724  21.872  0.00  0.00    -0.479 OA
ATOM     23  H   UNL     1      10.738  -2.168  22.748  0.00  0.00    +0.295 HD
ENDBRANCH  20  22
ENDBRANCH   4  20
BRANCH   2  24
ATOM     24  C   UNL     1       7.752  -4.634  23.987  0.00  0.00    +0.176 C 
BRANCH  24  25
ATOM     25  O   UNL     1       6.560  -5.319  24.405  0.00  0.00    -0.387 OA
ATOM     26  H   UNL     1       6.133  -5.620  23.578  0.00  0.00    +0.210 HD
ENDBRANCH  24  25
BRANCH  24  27
ATOM     27  C   UNL     1       8.738  -4.604  25.180  0.00  0.00    +0.171 C 
BRANCH  27  28
ATOM     28  O   UNL     1       9.924  -5.334  24.781  0.00  0.00    -0.387 OA
ATOM     29  H   UNL     1       9.679  -6.277  24.744  0.00  0.00    +0.210 HD
ENDBRANCH  27  28
BRANCH  27  30
ATOM     30  C   UNL     1       8.227  -5.277  26.461  0.00  0.00    +0.189 C 
BRANCH  30  31
ATOM     31  O   UNL     1       7.459  -4.345  27.228  0.00  0.00    -0.392 OA
ATOM     32  H   UNL     1       6.534  -4.480  26.949  0.00  0.00    +0.210 HD
ENDBRANCH  30  31
ENDBRANCH  27  30
ENDBRANCH  24  27
ENDBRANCH   2  24
TORSDOF 10
ENDMDL
MODEL 9
REMARK VINA RESULT:      -5.3      4.444      5.764
REMARK  Name = 
REMARK  11 active torsions:
REMARK  status: ('A' for Active; 'I' for Inactive)
REMARK    1  A    between atoms: C_1  and  C_2
REMARK    2  A    between atoms: N_4  and  C_5
REMARK    3  A    between atoms: C_7  and  N_26
REMARK    4  A    between atoms: C_10  and  C_23
REMARK    5  A    between atoms: C_13  and  C_15
REMARK    6  A    between atoms: C_15  and  C_17
REMARK    7  A    between atoms: C_15  and  O_22
REMARK    8  A    between atoms: C_17  and  C_19
REMARK    9  A    between atoms: C_17  and  O_21
REMARK   10  A    between atoms: C_19  and  O_20
REMARK   11  A    between atoms: C_23  and  O_25
REMARK                            x       y       z     vdW  Elec       q    Type
REMARK                         _______ _______ _______ _____ _____    ______ ____
ROOT
ATOM      1  C   UNL     1       7.657  -0.915  24.882  0.00  0.00    +0.145 C 
ATOM      2  C   UNL     1       8.575  -1.757  23.936  0.00  0.00    +0.174 C 
ATOM      3  O   UNL     1       8.462  -3.168  24.213  0.00  0.00    -0.357 OA
ATOM      4  C   UNL     1       8.794  -3.502  25.561  0.00  0.00    +0.230 C 
ATOM      5  C   UNL     1       7.731  -2.922  26.472  0.00  0.00    +0.089 C 
ATOM      6  C   UNL     1       7.763  -1.403  26.362  0.00  0.00    +0.214 C 
ENDROOT
BRANCH   6   7
ATOM      7  N   UNL     1       6.638  -0.826  27.108  0.00  0.00    -0.108 NA
ATOM      8  C   UNL     1       6.787   0.121  27.947  0.00  0.00    +0.377 C 
ATOM      9  N   UNL     1       5.711   0.613  28.597  0.00  0.00    -0.289 N 
ATOM     10  H   UNL     1       5.880   0.779  29.582  0.00  0.00    +0.255 HD
ATOM     11  H   UNL     1       4.911  -0.001  28.472  0.00  0.00    +0.255 HD
ATOM     12  N   UNL     1       7.898   0.771  28.349  0.00  0.00    -0.289 N 
ATOM     13  H   UNL     1       7.739   1.758  28.522  0.00  0.00    +0.255 HD
ATOM     14  H   UNL     1       8.734   0.613  27.806  0.00  0.00    +0.255 HD
ENDBRANCH   6   7
BRANCH   1  17
ATOM     15  C   UNL     1       7.595   2.887  24.609  0.00  0.00    +0.109 C 
ATOM     16  C   UNL     1       7.152   1.474  24.331  0.00  0.00    +0.210 C 
ATOM     17  N   UNL     1       7.991   0.527  24.859  0.00  0.00    -0.307 N 
ATOM     18  H   UNL     1       8.602   0.852  25.598  0.00  0.00    +0.149 HD
ATOM     19  O   UNL     1       6.146   1.232  23.675  0.00  0.00    -0.276 OA
ENDBRANCH   1  17
BRANCH   4  20
ATOM     20  C   UNL     1       8.829  -5.021  25.704  0.00  0.00    +0.334 C 
ATOM     21  O   UNL     1       8.010  -5.667  26.340  0.00  0.00    -0.248 OA
BRANCH  20  22
ATOM     22  O   UNL     1       9.858  -5.582  25.024  0.00  0.00    -0.479 OA
ATOM     23  H   UNL     1      10.593  -5.767  25.651  0.00  0.00    +0.295 HD
ENDBRANCH  20  22
ENDBRANCH   4  20
BRANCH   2  24
ATOM     24  C   UNL     1       8.247  -1.541  22.436  0.00  0.00    +0.176 C 
BRANCH  24  25
ATOM     25  O   UNL     1       7.796  -2.775  21.854  0.00  0.00    -0.387 OA
ATOM     26  H   UNL     1       8.201  -2.804  20.964  0.00  0.00    +0.210 HD
ENDBRANCH  24  25
BRANCH  24  27
ATOM     27  C   UNL     1       9.412  -0.996  21.574  0.00  0.00    +0.171 C 
BRANCH  27  28
ATOM     28  O   UNL     1      10.606  -1.727  21.946  0.00  0.00    -0.387 OA
ATOM     29  H   UNL     1      10.619  -2.542  21.412  0.00  0.00    +0.210 HD
ENDBRANCH  27  28
BRANCH  27  30
ATOM     30  C   UNL     1       9.732   0.490  21.780  0.00  0.00    +0.189 C 
BRANCH  30  31
ATOM     31  O   UNL     1       8.851   1.293  20.988  0.00  0.00    -0.392 OA
ATOM     32  H   UNL     1       9.339   1.477  20.164  0.00  0.00    +0.210 HD
ENDBRANCH  30  31
ENDBRANCH  27  30
ENDBRANCH  24  27
ENDBRANCH   2  24
TORSDOF 10
ENDMDL
