MODEL 1
REMARK VINA RESULT:      -5.7      0.000      0.000
REMARK  Name = 
REMARK  9 active torsions:
REMARK  status: ('A' for Active; 'I' for Inactive)
REMARK    1  A    between atoms: N_3  and  C_9
REMARK    2  A    between atoms: C_9  and  C_10
REMARK    3  A    between atoms: C_10  and  C_12
REMARK    4  A    between atoms: C_10  and  O_14
REMARK    5  A    between atoms: C_12  and  O_13
REMARK    6  A    between atoms: O_14  and  C_15
REMARK    7  A    between atoms: C_15  and  P_16
REMARK    8  A    between atoms: P_16  and  O_18
REMARK    9  A    between atoms: P_16  and  O_19
REMARK                            x       y       z     vdW  Elec       q    Type
REMARK                         _______ _______ _______ _____ _____    ______ ____
ROOT
ATOM      1  C   UNL     1       8.873  -3.236  24.936  0.00  0.00    +0.164 C 
ENDROOT
BRANCH   1   2
ATOM      2  C   UNL     1       9.955  -2.708  23.960  0.00  0.00    +0.160 C 
BRANCH   2  11
ATOM      3  C   UNL     1      10.433   0.933  23.710  0.00  0.00    +0.061 A 
ATOM      4  C   UNL     1       9.961   1.111  22.323  0.00  0.00    +0.123 A 
ATOM      5  N   UNL     1      10.084   2.330  21.717  0.00  0.00    -0.343 N 
ATOM      6  H   UNL     1      10.066   3.157  22.298  0.00  0.00    +0.144 HD
ATOM      7  H   UNL     1       9.541   2.410  20.861  0.00  0.00    +0.144 HD
ATOM      8  N   UNL     1       9.428   0.155  21.630  0.00  0.00    -0.178 NA
ATOM      9  C   UNL     1       9.336  -1.111  22.166  0.00  0.00    +0.350 A 
ATOM     10  O   UNL     1       8.831  -2.031  21.514  0.00  0.00    -0.244 OA
ATOM     11  N   UNL     1       9.821  -1.330  23.460  0.00  0.00    -0.296 N 
ATOM     12  C   UNL     1      10.342  -0.299  24.207  0.00  0.00    +0.094 A 
ENDBRANCH   2  11
ENDBRANCH   1   2
BRANCH   1  13
ATOM     13  O   UNL     1       7.568  -2.612  24.723  0.00  0.00    -0.360 OA
BRANCH  13  14
ATOM     14  C   UNL     1       6.564  -3.632  24.468  0.00  0.00    +0.286 C 
BRANCH  14  15
ATOM     15  P   UNL     1       5.836  -3.587  22.829  0.00  0.00    +0.353 P 
ATOM     16  O   UNL     1       4.485  -4.215  22.721  0.00  0.00    -0.256 OA
BRANCH  15  17
ATOM     17  O   UNL     1       6.866  -4.235  21.785  0.00  0.00    -0.323 OA
ATOM     18  H   UNL     1       6.371  -4.597  21.021  0.00  0.00    +0.220 HD
ENDBRANCH  15  17
BRANCH  15  19
ATOM     19  O   UNL     1       5.873  -2.058  22.345  0.00  0.00    -0.323 OA
ATOM     20  H   UNL     1       6.737  -1.802  21.975  0.00  0.00    +0.220 HD
ENDBRANCH  15  19
ENDBRANCH  14  15
ENDBRANCH  13  14
ENDBRANCH   1  13
BRANCH   1  21
ATOM     21  C   UNL     1       8.830  -4.776  25.009  0.00  0.00    +0.189 C 
BRANCH  21  22
ATOM     22  O   UNL     1      10.133  -5.344  24.986  0.00  0.00    -0.392 OA
ATOM     23  H   UNL     1      10.306  -5.719  25.879  0.00  0.00    +0.210 HD
ENDBRANCH  21  22
ENDBRANCH   1  21
TORSDOF 9
ENDMDL
MODEL 2
REMARK VINA RESULT:      -5.5      2.327      3.177
REMARK  Name = 
REMARK  9 active torsions:
REMARK  status: ('A' for Active; 'I' for Inactive)
REMARK    1  A    between atoms: N_3  and  C_9
REMARK    2  A    between atoms: C_9  and  C_10
REMARK    3  A    between atoms: C_10  and  C_12
REMARK    4  A    between atoms: C_10  and  O_14
REMARK    5  A    between atoms: C_12  and  O_13
REMARK    6  A    between atoms: O_14  and  C_15
REMARK    7  A    between atoms: C_15  and  P_16
REMARK    8  A    between atoms: P_16  and  O_18
REMARK    9  A    between atoms: P_16  and  O_19
REMARK                            x       y       z     vdW  Elec       q    Type
REMARK                         _______ _______ _______ _____ _____    ______ ____
ROOT
ATOM      1  C   UNL     1       7.035  -4.910  25.594  0.00  0.00    +0.164 C 
ENDROOT
BRANCH   1   2
ATOM      2  C   UNL     1       8.040  -4.979  24.416  0.00  0.00    +0.160 C 
BRANCH   2  11
ATOM      3  C   UNL     1      10.081  -2.068  23.465  0.00  0.00    +0.061 A 
ATOM      4  C   UNL     1       9.332  -1.672  22.257  0.00  0.00    +0.123 A 
ATOM      5  N   UNL     1       9.817  -0.678  21.455  0.00  0.00    -0.343 N 
ATOM      6  H   UNL     1      10.383   0.045  21.878  0.00  0.00    +0.144 HD
ATOM      7  H   UNL     1       9.135  -0.335  20.784  0.00  0.00    +0.144 HD
ATOM      8  N   UNL     1       8.218  -2.230  21.902  0.00  0.00    -0.178 NA
ATOM      9  C   UNL     1       7.714  -3.282  22.637  0.00  0.00    +0.350 A 
ATOM     10  O   UNL     1       6.653  -3.822  22.308  0.00  0.00    -0.244 OA
ATOM     11  N   UNL     1       8.424  -3.719  23.761  0.00  0.00    -0.296 N 
ATOM     12  C   UNL     1       9.582  -3.090  24.158  0.00  0.00    +0.094 A 
ENDBRANCH   2  11
ENDBRANCH   1   2
BRANCH   1  13
ATOM     13  O   UNL     1       6.023  -5.963  25.535  0.00  0.00    -0.360 OA
BRANCH  13  14
ATOM     14  C   UNL     1       4.759  -5.413  25.071  0.00  0.00    +0.286 C 
BRANCH  14  15
ATOM     15  P   UNL     1       4.115  -6.155  23.570  0.00  0.00    +0.353 P 
ATOM     16  O   UNL     1       3.056  -5.360  22.878  0.00  0.00    -0.256 OA
BRANCH  15  17
ATOM     17  O   UNL     1       3.608  -7.640  23.900  0.00  0.00    -0.323 OA
ATOM     18  H   UNL     1       3.915  -8.253  23.200  0.00  0.00    +0.220 HD
ENDBRANCH  15  17
BRANCH  15  19
ATOM     19  O   UNL     1       5.376  -6.490  22.638  0.00  0.00    -0.323 OA
ATOM     20  H   UNL     1       5.743  -7.376  22.808  0.00  0.00    +0.220 HD
ENDBRANCH  15  19
ENDBRANCH  14  15
ENDBRANCH  13  14
ENDBRANCH   1  13
BRANCH   1  21
ATOM     21  C   UNL     1       7.728  -4.779  26.967  0.00  0.00    +0.189 C 
BRANCH  21  22
ATOM     22  O   UNL     1       7.694  -5.999  27.696  0.00  0.00    -0.392 OA
ATOM     23  H   UNL     1       6.993  -5.912  28.382  0.00  0.00    +0.210 HD
ENDBRANCH  21  22
ENDBRANCH   1  21
TORSDOF 9
ENDMDL
MODEL 3
REMARK VINA RESULT:      -5.5      2.186      3.752
REMARK  Name = 
REMARK  9 active torsions:
REMARK  status: ('A' for Active; 'I' for Inactive)
REMARK    1  A    between atoms: N_3  and  C_9
REMARK    2  A    between atoms: C_9  and  C_10
REMARK    3  A    between atoms: C_10  and  C_12
REMARK    4  A    between atoms: C_10  and  O_14
REMARK    5  A    between atoms: C_12  and  O_13
REMARK    6  A    between atoms: O_14  and  C_15
REMARK    7  A    between atoms: C_15  and  P_16
REMARK    8  A    between atoms: P_16  and  O_18
REMARK    9  A    between atoms: P_16  and  O_19
REMARK                            x       y       z     vdW  Elec       q    Type
REMARK                         _______ _______ _______ _____ _____    ______ ____
ROOT
ATOM      1  C   UNL     1       7.461  -4.019  22.546  0.00  0.00    +0.164 C 
ENDROOT
BRANCH   1   2
ATOM      2  C   UNL     1       7.152  -2.715  23.323  0.00  0.00    +0.160 C 
BRANCH   2  11
ATOM      3  C   UNL     1       9.635  -0.556  21.672  0.00  0.00    +0.061 A 
ATOM      4  C   UNL     1       8.985   0.744  21.928  0.00  0.00    +0.123 A 
ATOM      5  N   UNL     1       9.493   1.879  21.361  0.00  0.00    -0.343 N 
ATOM      6  H   UNL     1      10.484   1.913  21.165  0.00  0.00    +0.144 HD
ATOM      7  H   UNL     1       9.118   2.732  21.764  0.00  0.00    +0.144 HD
ATOM      8  N   UNL     1       7.932   0.874  22.672  0.00  0.00    -0.178 NA
ATOM      9  C   UNL     1       7.338  -0.243  23.219  0.00  0.00    +0.350 A 
ATOM     10  O   UNL     1       6.334  -0.132  23.930  0.00  0.00    -0.244 OA
ATOM     11  N   UNL     1       7.896  -1.499  22.956  0.00  0.00    -0.296 N 
ATOM     12  C   UNL     1       9.041  -1.624  22.203  0.00  0.00    +0.094 A 
ENDBRANCH   2  11
ENDBRANCH   1   2
BRANCH   1  13
ATOM     13  O   UNL     1       7.901  -5.106  23.420  0.00  0.00    -0.360 OA
BRANCH  13  14
ATOM     14  C   UNL     1       7.333  -4.938  24.747  0.00  0.00    +0.286 C 
BRANCH  14  15
ATOM     15  P   UNL     1       8.523  -4.962  26.089  0.00  0.00    +0.353 P 
ATOM     16  O   UNL     1       8.870  -3.621  26.649  0.00  0.00    -0.256 OA
BRANCH  15  17
ATOM     17  O   UNL     1       9.835  -5.750  25.608  0.00  0.00    -0.323 OA
ATOM     18  H   UNL     1      10.127  -5.398  24.741  0.00  0.00    +0.220 HD
ENDBRANCH  15  17
BRANCH  15  19
ATOM     19  O   UNL     1       7.967  -5.990  27.187  0.00  0.00    -0.323 OA
ATOM     20  H   UNL     1       6.994  -6.048  27.189  0.00  0.00    +0.220 HD
ENDBRANCH  15  19
ENDBRANCH  14  15
ENDBRANCH  13  14
ENDBRANCH   1  13
BRANCH   1  21
ATOM     21  C   UNL     1       6.337  -4.415  21.566  0.00  0.00    +0.189 C 
BRANCH  21  22
ATOM     22  O   UNL     1       5.252  -3.498  21.607  0.00  0.00    -0.392 OA
ATOM     23  H   UNL     1       5.410  -2.824  20.906  0.00  0.00    +0.210 HD
ENDBRANCH  21  22
ENDBRANCH   1  21
TORSDOF 9
ENDMDL
MODEL 4
REMARK VINA RESULT:      -5.5      1.494      2.070
REMARK  Name = 
REMARK  9 active torsions:
REMARK  status: ('A' for Active; 'I' for Inactive)
REMARK    1  A    between atoms: N_3  and  C_9
REMARK    2  A    between atoms: C_9  and  C_10
REMARK    3  A    between atoms: C_10  and  C_12
REMARK    4  A    between atoms: C_10  and  O_14
REMARK    5  A    between atoms: C_12  and  O_13
REMARK    6  A    between atoms: O_14  and  C_15
REMARK    7  A    between atoms: C_15  and  P_16
REMARK    8  A    between atoms: P_16  and  O_18
REMARK    9  A    between atoms: P_16  and  O_19
REMARK                            x       y       z     vdW  Elec       q    Type
REMARK                         _______ _______ _______ _____ _____    ______ ____
ROOT
ATOM      1  C   UNL     1       8.584  -3.409  24.409  0.00  0.00    +0.164 C 
ENDROOT
BRANCH   1   2
ATOM      2  C   UNL     1       9.926  -2.740  24.017  0.00  0.00    +0.160 C 
BRANCH   2  11
ATOM      3  C   UNL     1       9.519  -0.270  21.319  0.00  0.00    +0.061 A 
ATOM      4  C   UNL     1       9.336   0.930  22.159  0.00  0.00    +0.123 A 
ATOM      5  N   UNL     1       9.002   2.120  21.576  0.00  0.00    -0.343 N 
ATOM      6  H   UNL     1       9.305   2.290  20.627  0.00  0.00    +0.144 HD
ATOM      7  H   UNL     1       9.113   2.916  22.198  0.00  0.00    +0.144 HD
ATOM      8  N   UNL     1       9.473   0.918  23.447  0.00  0.00    -0.178 NA
ATOM      9  C   UNL     1       9.746  -0.267  24.096  0.00  0.00    +0.350 A 
ATOM     10  O   UNL     1       9.878  -0.291  25.324  0.00  0.00    -0.244 OA
ATOM     11  N   UNL     1       9.875  -1.435  23.337  0.00  0.00    -0.296 N 
ATOM     12  C   UNL     1       9.775  -1.406  21.965  0.00  0.00    +0.094 A 
ENDBRANCH   2  11
ENDBRANCH   1   2
BRANCH   1  13
ATOM     13  O   UNL     1       7.586  -3.338  23.343  0.00  0.00    -0.360 OA
BRANCH  13  14
ATOM     14  C   UNL     1       7.518  -4.608  22.639  0.00  0.00    +0.286 C 
BRANCH  14  15
ATOM     15  P   UNL     1       5.876  -5.089  22.100  0.00  0.00    +0.353 P 
ATOM     16  O   UNL     1       4.797  -4.103  22.410  0.00  0.00    -0.256 OA
BRANCH  15  17
ATOM     17  O   UNL     1       5.534  -6.536  22.700  0.00  0.00    -0.323 OA
ATOM     18  H   UNL     1       4.964  -7.024  22.070  0.00  0.00    +0.220 HD
ENDBRANCH  15  17
BRANCH  15  19
ATOM     19  O   UNL     1       5.985  -5.451  20.541  0.00  0.00    -0.323 OA
ATOM     20  H   UNL     1       5.863  -4.674  19.966  0.00  0.00    +0.220 HD
ENDBRANCH  15  19
ENDBRANCH  14  15
ENDBRANCH  13  14
ENDBRANCH   1  13
BRANCH   1  21
ATOM     21  C   UNL     1       8.769  -4.819  25.006  0.00  0.00    +0.189 C 
BRANCH  21  22
ATOM     22  O   UNL     1      10.133  -5.220  25.007  0.00  0.00    -0.392 OA
ATOM     23  H   UNL     1      10.230  -5.928  25.684  0.00  0.00    +0.210 HD
ENDBRANCH  21  22
ENDBRANCH   1  21
TORSDOF 9
ENDMDL
MODEL 5
REMARK VINA RESULT:      -5.5      3.587      5.635
REMARK  Name = 
REMARK  9 active torsions:
REMARK  status: ('A' for Active; 'I' for Inactive)
REMARK    1  A    between atoms: N_3  and  C_9
REMARK    2  A    between atoms: C_9  and  C_10
REMARK    3  A    between atoms: C_10  and  C_12
REMARK    4  A    between atoms: C_10  and  O_14
REMARK    5  A    between atoms: C_12  and  O_13
REMARK    6  A    between atoms: O_14  and  C_15
REMARK    7  A    between atoms: C_15  and  P_16
REMARK    8  A    between atoms: P_16  and  O_18
REMARK    9  A    between atoms: P_16  and  O_19
REMARK                            x       y       z     vdW  Elec       q    Type
REMARK                         _______ _______ _______ _____ _____    ______ ____
ROOT
ATOM      1  C   UNL     1       9.350  -1.191  23.686  0.00  0.00    +0.164 C 
ENDROOT
BRANCH   1   2
ATOM      2  C   UNL     1       8.632  -2.359  24.409  0.00  0.00    +0.160 C 
BRANCH   2  11
ATOM      3  C   UNL     1       6.241  -3.494  21.850  0.00  0.00    +0.061 A 
ATOM      4  C   UNL     1       6.632  -4.916  21.814  0.00  0.00    +0.123 A 
ATOM      5  N   UNL     1       6.088  -5.745  20.874  0.00  0.00    -0.343 N 
ATOM      6  H   UNL     1       5.161  -5.534  20.529  0.00  0.00    +0.144 HD
ATOM      7  H   UNL     1       6.248  -6.729  21.065  0.00  0.00    +0.144 HD
ATOM      8  N   UNL     1       7.486  -5.435  22.639  0.00  0.00    -0.178 NA
ATOM      9  C   UNL     1       8.115  -4.635  23.568  0.00  0.00    +0.350 A 
ATOM     10  O   UNL     1       8.931  -5.119  24.360  0.00  0.00    -0.244 OA
ATOM     11  N   UNL     1       7.808  -3.270  23.599  0.00  0.00    -0.296 N 
ATOM     12  C   UNL     1       6.866  -2.735  22.750  0.00  0.00    +0.094 A 
ENDBRANCH   2  11
ENDBRANCH   1   2
BRANCH   1  13
ATOM     13  O   UNL     1       9.789  -0.143  24.606  0.00  0.00    -0.360 OA
BRANCH  13  14
ATOM     14  C   UNL     1      10.653   0.798  23.913  0.00  0.00    +0.286 C 
BRANCH  14  15
ATOM     15  P   UNL     1       9.797   2.046  22.950  0.00  0.00    +0.353 P 
ATOM     16  O   UNL     1       8.452   2.433  23.473  0.00  0.00    -0.256 OA
BRANCH  15  17
ATOM     17  O   UNL     1       9.712   1.559  21.425  0.00  0.00    -0.323 OA
ATOM     18  H   UNL     1       8.832   1.162  21.258  0.00  0.00    +0.220 HD
ENDBRANCH  15  17
BRANCH  15  19
ATOM     19  O   UNL     1      10.804   3.284  22.793  0.00  0.00    -0.323 OA
ATOM     20  H   UNL     1      11.728   3.043  22.984  0.00  0.00    +0.220 HD
ENDBRANCH  15  19
ENDBRANCH  14  15
ENDBRANCH  13  14
ENDBRANCH   1  13
BRANCH   1  21
ATOM     21  C   UNL     1      10.443  -1.671  22.709  0.00  0.00    +0.189 C 
BRANCH  21  22
ATOM     22  O   UNL     1      10.046  -1.517  21.353  0.00  0.00    -0.392 OA
ATOM     23  H   UNL     1       9.253  -2.085  21.213  0.00  0.00    +0.210 HD
ENDBRANCH  21  22
ENDBRANCH   1  21
TORSDOF 9
ENDMDL
MODEL 6
REMARK VINA RESULT:      -5.4      2.028      3.603
REMARK  Name = 
REMARK  9 active torsions:
REMARK  status: ('A' for Active; 'I' for Inactive)
REMARK    1  A    between atoms: N_3  and  C_9
REMARK    2  A    between atoms: C_9  and  C_10
REMARK    3  A    between atoms: C_10  and  C_12
REMARK    4  A    between atoms: C_10  and  O_14
REMARK    5  A    between atoms: C_12  and  O_13
REMARK    6  A    between atoms: O_14  and  C_15
REMARK    7  A    between atoms: C_15  and  P_16
REMARK    8  A    between atoms: P_16  and  O_18
REMARK    9  A    between atoms: P_16  and  O_19
REMARK                            x       y       z     vdW  Elec       q    Type
REMARK                         _______ _______ _______ _____ _____    ______ ____
ROOT
ATOM      1  C   UNL     1       6.885  -3.105  23.247  0.00  0.00    +0.164 C 
ENDROOT
BRANCH   1   2
ATOM      2  C   UNL     1       7.277  -1.776  23.941  0.00  0.00    +0.160 C 
BRANCH   2  11
ATOM      3  C   UNL     1       8.023   1.334  22.119  0.00  0.00    +0.061 A 
ATOM      4  C   UNL     1       9.495   1.230  22.121  0.00  0.00    +0.123 A 
ATOM      5  N   UNL     1      10.248   2.270  21.654  0.00  0.00    -0.343 N 
ATOM      6  H   UNL     1       9.850   2.868  20.942  0.00  0.00    +0.144 HD
ATOM      7  H   UNL     1      11.221   2.022  21.494  0.00  0.00    +0.144 HD
ATOM      8  N   UNL     1      10.129   0.187  22.555  0.00  0.00    -0.178 NA
ATOM      9  C   UNL     1       9.425  -0.867  23.096  0.00  0.00    +0.350 A 
ATOM     10  O   UNL     1      10.018  -1.867  23.513  0.00  0.00    -0.244 OA
ATOM     11  N   UNL     1       8.029  -0.783  23.158  0.00  0.00    -0.296 N 
ATOM     12  C   UNL     1       7.361   0.308  22.652  0.00  0.00    +0.094 A 
ENDBRANCH   2  11
ENDBRANCH   1   2
BRANCH   1  13
ATOM     13  O   UNL     1       6.776  -4.221  24.185  0.00  0.00    -0.360 OA
BRANCH  13  14
ATOM     14  C   UNL     1       8.049  -4.916  24.282  0.00  0.00    +0.286 C 
BRANCH  14  15
ATOM     15  P   UNL     1       8.824  -4.857  25.899  0.00  0.00    +0.353 P 
ATOM     16  O   UNL     1       8.850  -3.506  26.536  0.00  0.00    -0.256 OA
BRANCH  15  17
ATOM     17  O   UNL     1      10.297  -5.480  25.792  0.00  0.00    -0.323 OA
ATOM     18  H   UNL     1      10.802  -5.009  25.097  0.00  0.00    +0.220 HD
ENDBRANCH  15  17
BRANCH  15  19
ATOM     19  O   UNL     1       8.110  -5.977  26.798  0.00  0.00    -0.323 OA
ATOM     20  H   UNL     1       8.134  -6.859  26.387  0.00  0.00    +0.220 HD
ENDBRANCH  15  19
ENDBRANCH  14  15
ENDBRANCH  13  14
ENDBRANCH   1  13
BRANCH   1  21
ATOM     21  C   UNL     1       5.674  -2.954  22.303  0.00  0.00    +0.189 C 
BRANCH  21  22
ATOM     22  O   UNL     1       5.277  -4.201  21.748  0.00  0.00    -0.392 OA
ATOM     23  H   UNL     1       5.664  -4.910  22.312  0.00  0.00    +0.210 HD
ENDBRANCH  21  22
ENDBRANCH   1  21
TORSDOF 9
ENDMDL
MODEL 7
REMARK VINA RESULT:      -5.4      2.512      3.727
REMARK  Name = 
REMARK  9 active torsions:
REMARK  status: ('A' for Active; 'I' for Inactive)
REMARK    1  A    between atoms: N_3  and  C_9
REMARK    2  A    between atoms: C_9  and  C_10
REMARK    3  A    between atoms: C_10  and  C_12
REMARK    4  A    between atoms: C_10  and  O_14
REMARK    5  A    between atoms: C_12  and  O_13
REMARK    6  A    between atoms: O_14  and  C_15
REMARK    7  A    between atoms: C_15  and  P_16
REMARK    8  A    between atoms: P_16  and  O_18
REMARK    9  A    between atoms: P_16  and  O_19
REMARK                            x       y       z     vdW  Elec       q    Type
REMARK                         _______ _______ _______ _____ _____    ______ ____
ROOT
ATOM      1  C   UNL     1       9.806  -1.897  23.602  0.00  0.00    +0.164 C 
ENDROOT
BRANCH   1   2
ATOM      2  C   UNL     1       9.208  -0.951  24.675  0.00  0.00    +0.160 C 
BRANCH   2  11
ATOM      3  C   UNL     1      10.772   2.280  23.859  0.00  0.00    +0.061 A 
ATOM      4  C   UNL     1       9.538   3.068  23.674  0.00  0.00    +0.123 A 
ATOM      5  N   UNL     1       9.617   4.351  23.210  0.00  0.00    -0.343 N 
ATOM      6  H   UNL     1      10.453   4.883  23.412  0.00  0.00    +0.144 HD
ATOM      7  H   UNL     1       8.753   4.874  23.323  0.00  0.00    +0.144 HD
ATOM      8  N   UNL     1       8.356   2.602  23.928  0.00  0.00    -0.178 NA
ATOM      9  C   UNL     1       8.209   1.294  24.338  0.00  0.00    +0.350 A 
ATOM     10  O   UNL     1       7.088   0.838  24.582  0.00  0.00    -0.244 OA
ATOM     11  N   UNL     1       9.353   0.500  24.475  0.00  0.00    -0.296 N 
ATOM     12  C   UNL     1      10.608   1.017  24.249  0.00  0.00    +0.094 A 
ENDBRANCH   2  11
ENDBRANCH   1   2
BRANCH   1  13
ATOM     13  O   UNL     1       9.908  -3.280  24.063  0.00  0.00    -0.360 OA
BRANCH  13  14
ATOM     14  C   UNL     1       8.631  -3.723  24.597  0.00  0.00    +0.286 C 
BRANCH  14  15
ATOM     15  P   UNL     1       8.722  -5.117  25.723  0.00  0.00    +0.353 P 
ATOM     16  O   UNL     1       7.413  -5.768  26.029  0.00  0.00    -0.256 OA
BRANCH  15  17
ATOM     17  O   UNL     1       9.471  -4.654  27.064  0.00  0.00    -0.323 OA
ATOM     18  H   UNL     1       9.737  -5.444  27.578  0.00  0.00    +0.220 HD
ENDBRANCH  15  17
BRANCH  15  19
ATOM     19  O   UNL     1       9.816  -6.126  25.127  0.00  0.00    -0.323 OA
ATOM     20  H   UNL     1       9.432  -6.982  24.862  0.00  0.00    +0.220 HD
ENDBRANCH  15  19
ENDBRANCH  14  15
ENDBRANCH  13  14
ENDBRANCH   1  13
BRANCH   1  21
ATOM     21  C   UNL     1       9.133  -1.741  22.223  0.00  0.00    +0.189 C 
BRANCH  21  22
ATOM     22  O   UNL     1       9.933  -0.982  21.325  0.00  0.00    -0.392 OA
ATOM     23  H   UNL     1      10.300  -0.221  21.831  0.00  0.00    +0.210 HD
ENDBRANCH  21  22
ENDBRANCH   1  21
TORSDOF 9
ENDMDL
MODEL 8
REMARK VINA RESULT:      -5.3      2.471      3.738
REMARK  Name = 
REMARK  9 active torsions:
REMARK  status: ('A' for Active; 'I' for Inactive)
REMARK    1  A    between atoms: N_3  and  C_9
REMARK    2  A    between atoms: C_9  and  C_10
REMARK    3  A    between atoms: C_10  and  C_12
REMARK    4  A    between atoms: C_10  and  O_14
REMARK    5  A    between atoms: C_12  and  O_13
REMARK    6  A    between atoms: O_14  and  C_15
REMARK    7  A    between atoms: C_15  and  P_16
REMARK    8  A    between atoms: P_16  and  O_18
REMARK    9  A    between atoms: P_16  and  O_19
REMARK                            x       y       z     vdW  Elec       q    Type
REMARK                         _______ _______ _______ _____ _____    ______ ____
ROOT
ATOM      1  C   UNL     1       9.189  -1.746  23.733  0.00  0.00    +0.164 C 
ENDROOT
BRANCH   1   2
ATOM      2  C   UNL     1       9.326  -0.231  24.028  0.00  0.00    +0.160 C 
BRANCH   2  11
ATOM      3  C   UNL     1       6.331   1.789  23.323  0.00  0.00    +0.061 A 
ATOM      4  C   UNL     1       6.923   2.701  22.326  0.00  0.00    +0.123 A 
ATOM      5  N   UNL     1       6.195   3.758  21.858  0.00  0.00    -0.343 N 
ATOM      6  H   UNL     1       5.188   3.671  21.831  0.00  0.00    +0.144 HD
ATOM      7  H   UNL     1       6.598   4.189  21.031  0.00  0.00    +0.144 HD
ATOM      8  N   UNL     1       8.125   2.558  21.863  0.00  0.00    -0.178 NA
ATOM      9  C   UNL     1       8.929   1.548  22.345  0.00  0.00    +0.350 A 
ATOM     10  O   UNL     1      10.076   1.401  21.912  0.00  0.00    -0.244 OA
ATOM     11  N   UNL     1       8.419   0.694  23.329  0.00  0.00    -0.296 N 
ATOM     12  C   UNL     1       7.126   0.824  23.782  0.00  0.00    +0.094 A 
ENDBRANCH   2  11
ENDBRANCH   1   2
BRANCH   1  13
ATOM     13  O   UNL     1       8.163  -2.390  24.551  0.00  0.00    -0.360 OA
BRANCH  13  14
ATOM     14  C   UNL     1       8.786  -3.226  25.564  0.00  0.00    +0.286 C 
BRANCH  14  15
ATOM     15  P   UNL     1       8.971  -4.953  25.113  0.00  0.00    +0.353 P 
ATOM     16  O   UNL     1       8.377  -5.327  23.794  0.00  0.00    -0.256 OA
BRANCH  15  17
ATOM     17  O   UNL     1       8.386  -5.865  26.295  0.00  0.00    -0.323 OA
ATOM     18  H   UNL     1       7.666  -6.431  25.946  0.00  0.00    +0.220 HD
ENDBRANCH  15  17
BRANCH  15  19
ATOM     19  O   UNL     1      10.531  -5.302  25.236  0.00  0.00    -0.323 OA
ATOM     20  H   UNL     1      11.100  -4.517  25.139  0.00  0.00    +0.220 HD
ENDBRANCH  15  19
ENDBRANCH  14  15
ENDBRANCH  13  14
ENDBRANCH   1  13
BRANCH   1  21
ATOM     21  C   UNL     1       9.080  -2.057  22.226  0.00  0.00    +0.189 C 
BRANCH  21  22
ATOM     22  O   UNL     1      10.221  -1.604  21.508  0.00  0.00    -0.392 OA
ATOM     23  H   UNL     1      11.008  -2.053  21.894  0.00  0.00    +0.210 HD
ENDBRANCH  21  22
ENDBRANCH   1  21
TORSDOF 9
ENDMDL
MODEL 9
REMARK VINA RESULT:      -5.3      3.651      6.177
REMARK  Name = 
REMARK  9 active torsions:
REMARK  status: ('A' for Active; 'I' for Inactive)
REMARK    1  A    between atoms: N_3  and  C_9
REMARK    2  A    between atoms: C_9  and  C_10
REMARK    3  A    between atoms: C_10  and  C_12
REMARK    4  A    between atoms: C_10  and  O_14
REMARK    5  A    between atoms: C_12  and  O_13
REMARK    6  A    between atoms: O_14  and  C_15
REMARK    7  A    between atoms: C_15  and  P_16
REMARK    8  A    between atoms: P_16  and  O_18
REMARK    9  A    between atoms: P_16  and  O_19
REMARK                            x       y       z     vdW  Elec       q    Type
REMARK                         _______ _______ _______ _____ _____    ______ ____
ROOT
ATOM      1  C   UNL     1       9.172  -1.407  23.459  0.00  0.00    +0.164 C 
ENDROOT
BRANCH   1   2
ATOM      2  C   UNL     1       9.721  -2.731  24.051  0.00  0.00    +0.160 C 
BRANCH   2  11
ATOM      3  C   UNL     1       6.625  -3.881  25.674  0.00  0.00    +0.061 A 
ATOM      4  C   UNL     1       7.079  -5.232  26.059  0.00  0.00    +0.123 A 
ATOM      5  N   UNL     1       6.188  -6.120  26.594  0.00  0.00    -0.343 N 
ATOM      6  H   UNL     1       5.403  -5.754  27.115  0.00  0.00    +0.144 HD
ATOM      7  H   UNL     1       6.633  -6.927  27.021  0.00  0.00    +0.144 HD
ATOM      8  N   UNL     1       8.301  -5.634  25.912  0.00  0.00    -0.178 NA
ATOM      9  C   UNL     1       9.230  -4.805  25.320  0.00  0.00    +0.350 A 
ATOM     10  O   UNL     1      10.398  -5.178  25.173  0.00  0.00    -0.244 OA
ATOM     11  N   UNL     1       8.823  -3.535  24.895  0.00  0.00    -0.296 N 
ATOM     12  C   UNL     1       7.534  -3.098  25.098  0.00  0.00    +0.094 A 
ENDBRANCH   2  11
ENDBRANCH   1   2
BRANCH   1  13
ATOM     13  O   UNL     1       9.996  -0.250  23.805  0.00  0.00    -0.360 OA
BRANCH  13  14
ATOM     14  C   UNL     1       9.176   0.950  23.847  0.00  0.00    +0.286 C 
BRANCH  14  15
ATOM     15  P   UNL     1       9.863   2.366  22.987  0.00  0.00    +0.353 P 
ATOM     16  O   UNL     1      11.125   2.910  23.574  0.00  0.00    -0.256 OA
BRANCH  15  17
ATOM     17  O   UNL     1       8.737   3.503  22.873  0.00  0.00    -0.323 OA
ATOM     18  H   UNL     1       7.872   3.133  23.148  0.00  0.00    +0.220 HD
ENDBRANCH  15  17
BRANCH  15  19
ATOM     19  O   UNL     1      10.000   1.953  21.444  0.00  0.00    -0.323 OA
ATOM     20  H   UNL     1       9.172   1.596  21.076  0.00  0.00    +0.220 HD
ENDBRANCH  15  19
ENDBRANCH  14  15
ENDBRANCH  13  14
ENDBRANCH   1  13
BRANCH   1  21
ATOM     21  C   UNL     1       8.837  -1.515  21.957  0.00  0.00    +0.189 C 
BRANCH  21  22
ATOM     22  O   UNL     1       9.893  -1.024  21.142  0.00  0.00    -0.392 OA
ATOM     23  H   UNL     1      10.362  -0.329  21.658  0.00  0.00    +0.210 HD
ENDBRANCH  21  22
ENDBRANCH   1  21
TORSDOF 9
ENDMDL
