MODEL 1
REMARK VINA RESULT:      -8.3      0.000      0.000
REMARK  Name = 
REMARK  3 active torsions:
REMARK  status: ('A' for Active; 'I' for Inactive)
REMARK    1  A    between atoms: N_12  and  N_15
REMARK    2  A    between atoms: C_16  and  C_18
REMARK    3  A    between atoms: C_21  and  C_24
REMARK                            x       y       z     vdW  Elec       q    Type
REMARK                         _______ _______ _______ _____ _____    ______ ____
ROOT
ATOM      1  C   UNL     1       5.117  -5.636  22.611  0.00  0.00    +0.009 C 
ATOM      2  C   UNL     1       5.541  -5.601  23.979  0.00  0.00    +0.001 C 
ATOM      3  C   UNL     1       5.896  -4.455  24.953  0.00  0.00    +0.027 C 
ATOM      4  C   UNL     1       6.749  -3.263  24.485  0.00  0.00    +0.097 C 
ATOM      5  C   UNL     1       6.620  -1.800  24.108  0.00  0.00    +0.243 C 
ATOM      6  N   UNL     1       7.895  -1.495  23.582  0.00  0.00    -0.155 N 
ATOM      7  C   UNL     1       8.709  -2.634  23.484  0.00  0.00    +0.243 C 
ATOM      8  O   UNL     1       9.913  -2.759  23.546  0.00  0.00    -0.273 OA
ATOM      9  O   UNL     1       5.724  -1.029  24.412  0.00  0.00    -0.273 OA
ATOM     10  C   UNL     1       7.682  -3.717  23.364  0.00  0.00    +0.097 C 
ATOM     11  C   UNL     1       7.915  -5.216  23.509  0.00  0.00    +0.027 C 
ATOM     12  C   UNL     1       8.022  -5.610  24.996  0.00  0.00    -0.026 C 
ATOM     13  C   UNL     1       6.982  -5.218  25.769  0.00  0.00    -0.026 C 
ATOM     14  C   UNL     1       6.652  -5.885  22.880  0.00  0.00    +0.001 C 
ENDROOT
BRANCH   6  15
ATOM     15  N   UNL     1       8.401  -0.187  23.417  0.00  0.00    -0.221 N 
ATOM     16  H   UNL     1       8.254   0.256  22.513  0.00  0.00    +0.174 HD
ATOM     17  C   UNL     1       8.955   0.425  24.511  0.00  0.00    +0.261 C 
ATOM     18  O   UNL     1       9.125  -0.127  25.596  0.00  0.00    -0.269 OA
BRANCH  17  19
ATOM     19  C   UNL     1       9.376   1.852  24.406  0.00  0.00    +0.038 A 
ATOM     20  C   UNL     1       8.582   2.903  24.874  0.00  0.00    +0.013 A 
ATOM     21  C   UNL     1       8.966   4.234  24.630  0.00  0.00    +0.013 A 
ATOM     22  C   UNL     1      10.152   4.527  23.926  0.00  0.00    +0.055 A 
ATOM     23  C   UNL     1      10.948   3.468  23.487  0.00  0.00    +0.013 A 
ATOM     24  C   UNL     1      10.564   2.146  23.713  0.00  0.00    +0.013 A 
BRANCH  22  25
ATOM     25  C   UNL     1      10.534   5.967  23.643  0.00  0.00    +0.417 C 
ATOM     26  F   UNL     1      11.651   6.065  22.870  0.00  0.00    -0.166 F 
ATOM     27  F   UNL     1      10.802   6.670  24.778  0.00  0.00    -0.166 F 
ATOM     28  F   UNL     1       9.566   6.669  22.990  0.00  0.00    -0.166 F 
ENDBRANCH  22  25
ENDBRANCH  17  19
ENDBRANCH   6  15
TORSDOF 3
ENDMDL
MODEL 2
REMARK VINA RESULT:      -7.7      0.863      2.668
REMARK  Name = 
REMARK  3 active torsions:
REMARK  status: ('A' for Active; 'I' for Inactive)
REMARK    1  A    between atoms: N_12  and  N_15
REMARK    2  A    between atoms: C_16  and  C_18
REMARK    3  A    between atoms: C_21  and  C_24
REMARK                            x       y       z     vdW  Elec       q    Type
REMARK                         _______ _______ _______ _____ _____    ______ ____
ROOT
ATOM      1  C   UNL     1       7.091  -5.576  27.194  0.00  0.00    +0.009 C 
ATOM      2  C   UNL     1       6.422  -5.739  25.939  0.00  0.00    +0.001 C 
ATOM      3  C   UNL     1       6.619  -5.112  24.539  0.00  0.00    +0.027 C 
ATOM      4  C   UNL     1       6.893  -3.607  24.386  0.00  0.00    +0.097 C 
ATOM      5  C   UNL     1       8.019  -2.641  24.074  0.00  0.00    +0.243 C 
ATOM      6  N   UNL     1       7.444  -1.382  24.351  0.00  0.00    -0.155 N 
ATOM      7  C   UNL     1       6.163  -1.502  24.912  0.00  0.00    +0.243 C 
ATOM      8  O   UNL     1       5.200  -0.767  24.860  0.00  0.00    -0.273 OA
ATOM      9  O   UNL     1       9.068  -2.882  23.496  0.00  0.00    -0.273 OA
ATOM     10  C   UNL     1       6.250  -2.854  25.550  0.00  0.00    +0.097 C 
ATOM     11  C   UNL     1       5.091  -3.688  26.081  0.00  0.00    +0.027 C 
ATOM     12  C   UNL     1       4.344  -4.383  24.924  0.00  0.00    -0.026 C 
ATOM     13  C   UNL     1       5.123  -5.127  24.104  0.00  0.00    -0.026 C 
ATOM     14  C   UNL     1       5.753  -4.765  26.998  0.00  0.00    +0.001 C 
ENDROOT
BRANCH   6  15
ATOM     15  N   UNL     1       7.956  -0.149  23.890  0.00  0.00    -0.221 N 
ATOM     16  H   UNL     1       7.533   0.245  23.053  0.00  0.00    +0.174 HD
ATOM     17  C   UNL     1       8.905   0.475  24.657  0.00  0.00    +0.261 C 
ATOM     18  O   UNL     1       9.405  -0.017  25.667  0.00  0.00    -0.269 OA
BRANCH  17  19
ATOM     19  C   UNL     1       9.368   1.838  24.271  0.00  0.00    +0.038 A 
ATOM     20  C   UNL     1      10.564   2.056  23.581  0.00  0.00    +0.013 A 
ATOM     21  C   UNL     1      11.017   3.369  23.361  0.00  0.00    +0.013 A 
ATOM     22  C   UNL     1      10.274   4.477  23.816  0.00  0.00    +0.055 A 
ATOM     23  C   UNL     1       9.068   4.245  24.481  0.00  0.00    +0.013 A 
ATOM     24  C   UNL     1       8.622   2.945  24.716  0.00  0.00    +0.013 A 
BRANCH  22  25
ATOM     25  C   UNL     1      10.793   5.884  23.598  0.00  0.00    +0.417 C 
ATOM     26  F   UNL     1       9.824   6.733  23.158  0.00  0.00    -0.166 F 
ATOM     27  F   UNL     1      11.786   5.937  22.667  0.00  0.00    -0.166 F 
ATOM     28  F   UNL     1      11.307   6.456  24.723  0.00  0.00    -0.166 F 
ENDBRANCH  22  25
ENDBRANCH  17  19
ENDBRANCH   6  15
TORSDOF 3
ENDMDL
MODEL 3
REMARK VINA RESULT:      -7.6      1.141      1.894
REMARK  Name = 
REMARK  3 active torsions:
REMARK  status: ('A' for Active; 'I' for Inactive)
REMARK    1  A    between atoms: N_12  and  N_15
REMARK    2  A    between atoms: C_16  and  C_18
REMARK    3  A    between atoms: C_21  and  C_24
REMARK                            x       y       z     vdW  Elec       q    Type
REMARK                         _______ _______ _______ _____ _____    ______ ____
ROOT
ATOM      1  C   UNL     1       4.199  -5.090  25.923  0.00  0.00    +0.009 C 
ATOM      2  C   UNL     1       5.426  -5.189  26.655  0.00  0.00    +0.001 C 
ATOM      3  C   UNL     1       6.469  -4.151  27.128  0.00  0.00    +0.027 C 
ATOM      4  C   UNL     1       6.924  -3.016  26.194  0.00  0.00    +0.097 C 
ATOM      5  C   UNL     1       6.748  -1.525  25.982  0.00  0.00    +0.243 C 
ATOM      6  N   UNL     1       7.373  -1.306  24.734  0.00  0.00    -0.155 N 
ATOM      7  C   UNL     1       7.775  -2.508  24.131  0.00  0.00    +0.243 C 
ATOM      8  O   UNL     1       8.689  -2.750  23.372  0.00  0.00    -0.273 OA
ATOM      9  O   UNL     1       6.380  -0.695  26.798  0.00  0.00    -0.273 OA
ATOM     10  C   UNL     1       6.813  -3.478  24.742  0.00  0.00    +0.097 C 
ATOM     11  C   UNL     1       6.907  -4.998  24.713  0.00  0.00    +0.027 C 
ATOM     12  C   UNL     1       7.930  -5.502  25.751  0.00  0.00    -0.026 C 
ATOM     13  C   UNL     1       7.724  -5.067  27.017  0.00  0.00    -0.026 C 
ATOM     14  C   UNL     1       5.480  -5.501  25.100  0.00  0.00    +0.001 C 
ENDROOT
BRANCH   6  15
ATOM     15  N   UNL     1       7.788  -0.044  24.257  0.00  0.00    -0.221 N 
ATOM     16  H   UNL     1       7.134   0.467  23.668  0.00  0.00    +0.174 HD
ATOM     17  C   UNL     1       8.988   0.444  24.703  0.00  0.00    +0.261 C 
ATOM     18  O   UNL     1       9.766  -0.188  25.415  0.00  0.00    -0.269 OA
BRANCH  17  19
ATOM     19  C   UNL     1       9.392   1.829  24.326  0.00  0.00    +0.038 A 
ATOM     20  C   UNL     1      10.613   2.110  23.704  0.00  0.00    +0.013 A 
ATOM     21  C   UNL     1      11.000   3.445  23.492  0.00  0.00    +0.013 A 
ATOM     22  C   UNL     1      10.168   4.512  23.889  0.00  0.00    +0.055 A 
ATOM     23  C   UNL     1       8.941   4.216  24.485  0.00  0.00    +0.013 A 
ATOM     24  C   UNL     1       8.558   2.894  24.711  0.00  0.00    +0.013 A 
BRANCH  22  25
ATOM     25  C   UNL     1      10.616   5.945  23.682  0.00  0.00    +0.417 C 
ATOM     26  F   UNL     1       9.607   6.746  23.241  0.00  0.00    -0.166 F 
ATOM     27  F   UNL     1      11.610   6.054  22.757  0.00  0.00    -0.166 F 
ATOM     28  F   UNL     1      11.095   6.535  24.813  0.00  0.00    -0.166 F 
ENDBRANCH  22  25
ENDBRANCH  17  19
ENDBRANCH   6  15
TORSDOF 3
ENDMDL
MODEL 4
REMARK VINA RESULT:      -7.6      6.331      9.669
REMARK  Name = 
REMARK  3 active torsions:
REMARK  status: ('A' for Active; 'I' for Inactive)
REMARK    1  A    between atoms: N_12  and  N_15
REMARK    2  A    between atoms: C_16  and  C_18
REMARK    3  A    between atoms: C_21  and  C_24
REMARK                            x       y       z     vdW  Elec       q    Type
REMARK                         _______ _______ _______ _____ _____    ______ ____
ROOT
ATOM      1  C   UNL     1      10.441   0.761  24.997  0.00  0.00    +0.009 C 
ATOM      2  C   UNL     1       9.796   1.319  23.847  0.00  0.00    +0.001 C 
ATOM      3  C   UNL     1       8.346   1.271  23.313  0.00  0.00    +0.027 C 
ATOM      4  C   UNL     1       7.549  -0.044  23.327  0.00  0.00    +0.097 C 
ATOM      5  C   UNL     1       6.423  -0.729  24.077  0.00  0.00    +0.243 C 
ATOM      6  N   UNL     1       6.456  -2.045  23.565  0.00  0.00    -0.155 N 
ATOM      7  C   UNL     1       7.547  -2.247  22.706  0.00  0.00    +0.243 C 
ATOM      8  O   UNL     1       7.685  -2.987  21.755  0.00  0.00    -0.273 OA
ATOM      9  O   UNL     1       5.558  -0.207  24.761  0.00  0.00    -0.273 OA
ATOM     10  C   UNL     1       8.514  -1.223  23.216  0.00  0.00    +0.097 C 
ATOM     11  C   UNL     1       9.783  -0.743  22.524  0.00  0.00    +0.027 C 
ATOM     12  C   UNL     1       9.448   0.266  21.406  0.00  0.00    -0.026 C 
ATOM     13  C   UNL     1       8.693   1.321  21.794  0.00  0.00    -0.026 C 
ATOM     14  C   UNL     1      10.608  -0.029  23.642  0.00  0.00    +0.001 C 
ENDROOT
BRANCH   6  15
ATOM     15  N   UNL     1       5.399  -2.974  23.677  0.00  0.00    -0.221 N 
ATOM     16  H   UNL     1       4.547  -2.772  23.158  0.00  0.00    +0.174 HD
ATOM     17  C   UNL     1       5.632  -4.125  24.384  0.00  0.00    +0.261 C 
ATOM     18  O   UNL     1       6.669  -4.352  25.004  0.00  0.00    -0.269 OA
BRANCH  17  19
ATOM     19  C   UNL     1       4.585  -5.185  24.408  0.00  0.00    +0.038 A 
ATOM     20  C   UNL     1       4.663  -6.297  25.252  0.00  0.00    +0.013 A 
ATOM     21  C   UNL     1       3.718  -7.332  25.138  0.00  0.00    +0.013 A 
ATOM     22  C   UNL     1       2.678  -7.261  24.188  0.00  0.00    +0.055 A 
ATOM     23  C   UNL     1       2.596  -6.133  23.370  0.00  0.00    +0.013 A 
ATOM     24  C   UNL     1       3.540  -5.111  23.468  0.00  0.00    +0.013 A 
BRANCH  22  25
ATOM     25  C   UNL     1       1.687  -8.400  24.057  0.00  0.00    +0.417 C 
ATOM     26  F   UNL     1       2.081  -9.512  24.739  0.00  0.00    -0.166 F 
ATOM     27  F   UNL     1       1.514  -8.798  22.766  0.00  0.00    -0.166 F 
ATOM     28  F   UNL     1       0.443  -8.098  24.523  0.00  0.00    -0.166 F 
ENDBRANCH  22  25
ENDBRANCH  17  19
ENDBRANCH   6  15
TORSDOF 3
ENDMDL
MODEL 5
REMARK VINA RESULT:      -7.4      4.819      9.123
REMARK  Name = 
REMARK  3 active torsions:
REMARK  status: ('A' for Active; 'I' for Inactive)
REMARK    1  A    between atoms: N_12  and  N_15
REMARK    2  A    between atoms: C_16  and  C_18
REMARK    3  A    between atoms: C_21  and  C_24
REMARK                            x       y       z     vdW  Elec       q    Type
REMARK                         _______ _______ _______ _____ _____    ______ ____
ROOT
ATOM      1  C   UNL     1      10.183   6.358  23.511  0.00  0.00    +0.009 C 
ATOM      2  C   UNL     1       9.222   6.147  24.550  0.00  0.00    +0.001 C 
ATOM      3  C   UNL     1       8.689   4.885  25.266  0.00  0.00    +0.027 C 
ATOM      4  C   UNL     1       8.349   3.615  24.468  0.00  0.00    +0.097 C 
ATOM      5  C   UNL     1       8.885   2.226  24.183  0.00  0.00    +0.243 C 
ATOM      6  N   UNL     1       8.042   1.766  23.148  0.00  0.00    -0.155 N 
ATOM      7  C   UNL     1       7.163   2.767  22.703  0.00  0.00    +0.243 C 
ATOM      8  O   UNL     1       6.050   2.694  22.227  0.00  0.00    -0.273 OA
ATOM      9  O   UNL     1       9.681   1.583  24.849  0.00  0.00    -0.273 OA
ATOM     10  C   UNL     1       7.931   4.004  23.051  0.00  0.00    +0.097 C 
ATOM     11  C   UNL     1       7.397   5.430  23.081  0.00  0.00    +0.027 C 
ATOM     12  C   UNL     1       6.587   5.683  24.370  0.00  0.00    -0.026 C 
ATOM     13  C   UNL     1       7.240   5.399  25.521  0.00  0.00    -0.026 C 
ATOM     14  C   UNL     1       8.667   6.339  23.076  0.00  0.00    +0.001 C 
ENDROOT
BRANCH   6  15
ATOM     15  N   UNL     1       7.898   0.412  22.774  0.00  0.00    -0.221 N 
ATOM     16  H   UNL     1       8.463   0.084  21.994  0.00  0.00    +0.174 HD
ATOM     17  C   UNL     1       7.094  -0.382  23.549  0.00  0.00    +0.261 C 
ATOM     18  O   UNL     1       6.418   0.032  24.489  0.00  0.00    -0.269 OA
BRANCH  17  19
ATOM     19  C   UNL     1       7.026  -1.844  23.262  0.00  0.00    +0.038 A 
ATOM     20  C   UNL     1       7.938  -2.756  23.803  0.00  0.00    +0.013 A 
ATOM     21  C   UNL     1       7.909  -4.101  23.393  0.00  0.00    +0.013 A 
ATOM     22  C   UNL     1       6.963  -4.550  22.449  0.00  0.00    +0.055 A 
ATOM     23  C   UNL     1       6.043  -3.634  21.936  0.00  0.00    +0.013 A 
ATOM     24  C   UNL     1       6.077  -2.296  22.328  0.00  0.00    +0.013 A 
BRANCH  22  25
ATOM     25  C   UNL     1       6.968  -5.996  21.994  0.00  0.00    +0.417 C 
ATOM     26  F   UNL     1       8.163  -6.608  22.223  0.00  0.00    -0.166 F 
ATOM     27  F   UNL     1       6.733  -6.126  20.659  0.00  0.00    -0.166 F 
ATOM     28  F   UNL     1       6.030  -6.766  22.613  0.00  0.00    -0.166 F 
ENDBRANCH  22  25
ENDBRANCH  17  19
ENDBRANCH   6  15
TORSDOF 3
ENDMDL
MODEL 6
REMARK VINA RESULT:      -7.2      4.800      9.206
REMARK  Name = 
REMARK  3 active torsions:
REMARK  status: ('A' for Active; 'I' for Inactive)
REMARK    1  A    between atoms: N_12  and  N_15
REMARK    2  A    between atoms: C_16  and  C_18
REMARK    3  A    between atoms: C_21  and  C_24
REMARK                            x       y       z     vdW  Elec       q    Type
REMARK                         _______ _______ _______ _____ _____    ______ ____
ROOT
ATOM      1  C   UNL     1       7.316   6.639  22.065  0.00  0.00    +0.009 C 
ATOM      2  C   UNL     1       8.306   7.014  23.029  0.00  0.00    +0.001 C 
ATOM      3  C   UNL     1       9.453   6.249  23.729  0.00  0.00    +0.027 C 
ATOM      4  C   UNL     1       9.232   4.824  24.265  0.00  0.00    +0.097 C 
ATOM      5  C   UNL     1       9.567   3.381  23.944  0.00  0.00    +0.243 C 
ATOM      6  N   UNL     1       8.775   2.659  24.864  0.00  0.00    -0.155 N 
ATOM      7  C   UNL     1       7.920   3.499  25.593  0.00  0.00    +0.243 C 
ATOM      8  O   UNL     1       7.465   3.394  26.713  0.00  0.00    -0.273 OA
ATOM      9  O   UNL     1      10.474   2.966  23.240  0.00  0.00    -0.273 OA
ATOM     10  C   UNL     1       7.762   4.648  24.646  0.00  0.00    +0.097 C 
ATOM     11  C   UNL     1       7.180   6.019  24.964  0.00  0.00    +0.027 C 
ATOM     12  C   UNL     1       8.213   6.893  25.705  0.00  0.00    -0.026 C 
ATOM     13  C   UNL     1       9.408   7.021  25.082  0.00  0.00    -0.026 C 
ATOM     14  C   UNL     1       6.859   6.656  23.575  0.00  0.00    +0.001 C 
ENDROOT
BRANCH   6  15
ATOM     15  N   UNL     1       8.984   1.306  25.212  0.00  0.00    -0.221 N 
ATOM     16  H   UNL     1       9.519   1.122  26.057  0.00  0.00    +0.174 HD
ATOM     17  C   UNL     1       8.367   0.349  24.450  0.00  0.00    +0.261 C 
ATOM     18  O   UNL     1       7.723   0.590  23.431  0.00  0.00    -0.269 OA
BRANCH  17  19
ATOM     19  C   UNL     1       8.457  -1.079  24.869  0.00  0.00    +0.038 A 
ATOM     20  C   UNL     1       9.143  -2.039  24.118  0.00  0.00    +0.013 A 
ATOM     21  C   UNL     1       9.083  -3.394  24.490  0.00  0.00    +0.013 A 
ATOM     22  C   UNL     1       8.346  -3.802  25.620  0.00  0.00    +0.055 A 
ATOM     23  C   UNL     1       7.687  -2.831  26.375  0.00  0.00    +0.013 A 
ATOM     24  C   UNL     1       7.731  -1.488  26.003  0.00  0.00    +0.013 A 
BRANCH  22  25
ATOM     25  C   UNL     1       8.265  -5.271  25.987  0.00  0.00    +0.417 C 
ATOM     26  F   UNL     1       7.185  -5.886  25.431  0.00  0.00    -0.166 F 
ATOM     27  F   UNL     1       8.157  -5.470  27.330  0.00  0.00    -0.166 F 
ATOM     28  F   UNL     1       9.351  -5.992  25.590  0.00  0.00    -0.166 F 
ENDBRANCH  22  25
ENDBRANCH  17  19
ENDBRANCH   6  15
TORSDOF 3
ENDMDL
MODEL 7
REMARK VINA RESULT:      -7.2      5.004      9.144
REMARK  Name = 
REMARK  3 active torsions:
REMARK  status: ('A' for Active; 'I' for Inactive)
REMARK    1  A    between atoms: N_12  and  N_15
REMARK    2  A    between atoms: C_16  and  C_18
REMARK    3  A    between atoms: C_21  and  C_24
REMARK                            x       y       z     vdW  Elec       q    Type
REMARK                         _______ _______ _______ _____ _____    ______ ____
ROOT
ATOM      1  C   UNL     1       7.194   6.780  22.096  0.00  0.00    +0.009 C 
ATOM      2  C   UNL     1       8.185   6.404  23.059  0.00  0.00    +0.001 C 
ATOM      3  C   UNL     1       8.931   5.083  23.358  0.00  0.00    +0.027 C 
ATOM      4  C   UNL     1       8.178   3.742  23.363  0.00  0.00    +0.097 C 
ATOM      5  C   UNL     1       7.995   2.492  22.525  0.00  0.00    +0.243 C 
ATOM      6  N   UNL     1       6.936   1.824  23.178  0.00  0.00    -0.155 N 
ATOM      7  C   UNL     1       6.391   2.594  24.217  0.00  0.00    +0.243 C 
ATOM      8  O   UNL     1       5.855   2.266  25.254  0.00  0.00    -0.273 OA
ATOM      9  O   UNL     1       8.738   2.062  21.657  0.00  0.00    -0.273 OA
ATOM     10  C   UNL     1       6.721   3.980  23.757  0.00  0.00    +0.097 C 
ATOM     11  C   UNL     1       6.649   5.257  24.584  0.00  0.00    +0.027 C 
ATOM     12  C   UNL     1       7.873   5.375  25.515  0.00  0.00    -0.026 C 
ATOM     13  C   UNL     1       9.074   5.281  24.897  0.00  0.00    -0.026 C 
ATOM     14  C   UNL     1       6.673   6.418  23.540  0.00  0.00    +0.001 C 
ENDROOT
BRANCH   6  15
ATOM     15  N   UNL     1       6.622   0.458  23.004  0.00  0.00    -0.221 N 
ATOM     16  H   UNL     1       5.876   0.234  22.350  0.00  0.00    +0.174 HD
ATOM     17  C   UNL     1       7.409  -0.464  23.643  0.00  0.00    +0.261 C 
ATOM     18  O   UNL     1       8.307  -0.174  24.431  0.00  0.00    -0.269 OA
BRANCH  17  19
ATOM     19  C   UNL     1       7.190  -1.914  23.374  0.00  0.00    +0.038 A 
ATOM     20  C   UNL     1       8.110  -2.895  23.757  0.00  0.00    +0.013 A 
ATOM     21  C   UNL     1       7.917  -4.230  23.360  0.00  0.00    +0.013 A 
ATOM     22  C   UNL     1       6.797  -4.600  22.587  0.00  0.00    +0.055 A 
ATOM     23  C   UNL     1       5.874  -3.615  22.234  0.00  0.00    +0.013 A 
ATOM     24  C   UNL     1       6.068  -2.287  22.611  0.00  0.00    +0.013 A 
BRANCH  22  25
ATOM     25  C   UNL     1       6.622  -6.039  22.140  0.00  0.00    +0.417 C 
ATOM     26  F   UNL     1       6.174  -6.133  20.858  0.00  0.00    -0.166 F 
ATOM     27  F   UNL     1       5.720  -6.717  22.902  0.00  0.00    -0.166 F 
ATOM     28  F   UNL     1       7.772  -6.768  22.188  0.00  0.00    -0.166 F 
ENDBRANCH  22  25
ENDBRANCH  17  19
ENDBRANCH   6  15
TORSDOF 3
ENDMDL
MODEL 8
REMARK VINA RESULT:      -7.1      4.776      9.117
REMARK  Name = 
REMARK  3 active torsions:
REMARK  status: ('A' for Active; 'I' for Inactive)
REMARK    1  A    between atoms: N_12  and  N_15
REMARK    2  A    between atoms: C_16  and  C_18
REMARK    3  A    between atoms: C_21  and  C_24
REMARK                            x       y       z     vdW  Elec       q    Type
REMARK                         _______ _______ _______ _____ _____    ______ ____
ROOT
ATOM      1  C   UNL     1      10.420   6.368  24.952  0.00  0.00    +0.009 C 
ATOM      2  C   UNL     1       9.022   6.674  25.003  0.00  0.00    +0.001 C 
ATOM      3  C   UNL     1       7.762   5.842  25.338  0.00  0.00    +0.027 C 
ATOM      4  C   UNL     1       7.599   4.413  24.795  0.00  0.00    +0.097 C 
ATOM      5  C   UNL     1       7.670   2.967  25.246  0.00  0.00    +0.243 C 
ATOM      6  N   UNL     1       7.589   2.251  24.032  0.00  0.00    -0.155 N 
ATOM      7  C   UNL     1       7.613   3.103  22.918  0.00  0.00    +0.243 C 
ATOM      8  O   UNL     1       7.125   2.984  21.814  0.00  0.00    -0.273 OA
ATOM      9  O   UNL     1       7.572   2.537  26.385  0.00  0.00    -0.273 OA
ATOM     10  C   UNL     1       8.348   4.285  23.470  0.00  0.00    +0.097 C 
ATOM     11  C   UNL     1       8.454   5.669  22.842  0.00  0.00    +0.027 C 
ATOM     12  C   UNL     1       7.162   6.477  23.082  0.00  0.00    -0.026 C 
ATOM     13  C   UNL     1       6.780   6.575  24.377  0.00  0.00    -0.026 C 
ATOM     14  C   UNL     1       9.646   6.359  23.578  0.00  0.00    +0.001 C 
ENDROOT
BRANCH   6  15
ATOM     15  N   UNL     1       7.261   0.881  23.930  0.00  0.00    -0.221 N 
ATOM     16  H   UNL     1       6.272   0.643  23.897  0.00  0.00    +0.174 HD
ATOM     17  C   UNL     1       8.289  -0.012  23.779  0.00  0.00    +0.261 C 
ATOM     18  O   UNL     1       9.479   0.295  23.823  0.00  0.00    -0.269 OA
BRANCH  17  19
ATOM     19  C   UNL     1       7.971  -1.448  23.534  0.00  0.00    +0.038 A 
ATOM     20  C   UNL     1       8.716  -2.487  24.100  0.00  0.00    +0.013 A 
ATOM     21  C   UNL     1       8.455  -3.818  23.729  0.00  0.00    +0.013 A 
ATOM     22  C   UNL     1       7.441  -4.125  22.799  0.00  0.00    +0.055 A 
ATOM     23  C   UNL     1       6.688  -3.080  22.262  0.00  0.00    +0.013 A 
ATOM     24  C   UNL     1       6.952  -1.757  22.614  0.00  0.00    +0.013 A 
BRANCH  22  25
ATOM     25  C   UNL     1       7.196  -5.563  22.386  0.00  0.00    +0.417 C 
ATOM     26  F   UNL     1       8.273  -6.362  22.622  0.00  0.00    -0.166 F 
ATOM     27  F   UNL     1       6.925  -5.687  21.056  0.00  0.00    -0.166 F 
ATOM     28  F   UNL     1       6.149  -6.146  23.034  0.00  0.00    -0.166 F 
ENDBRANCH  22  25
ENDBRANCH  17  19
ENDBRANCH   6  15
TORSDOF 3
ENDMDL
MODEL 9
REMARK VINA RESULT:      -6.9      2.080      3.444
REMARK  Name = 
REMARK  3 active torsions:
REMARK  status: ('A' for Active; 'I' for Inactive)
REMARK    1  A    between atoms: N_12  and  N_15
REMARK    2  A    between atoms: C_16  and  C_18
REMARK    3  A    between atoms: C_21  and  C_24
REMARK                            x       y       z     vdW  Elec       q    Type
REMARK                         _______ _______ _______ _____ _____    ______ ____
ROOT
ATOM      1  C   UNL     1       5.296  -6.563  28.396  0.00  0.00    +0.009 C 
ATOM      2  C   UNL     1       4.799  -6.805  27.075  0.00  0.00    +0.001 C 
ATOM      3  C   UNL     1       5.292  -6.409  25.664  0.00  0.00    +0.027 C 
ATOM      4  C   UNL     1       5.815  -4.990  25.386  0.00  0.00    +0.097 C 
ATOM      5  C   UNL     1       7.110  -4.237  25.153  0.00  0.00    +0.243 C 
ATOM      6  N   UNL     1       6.703  -2.886  25.186  0.00  0.00    -0.155 N 
ATOM      7  C   UNL     1       5.352  -2.753  25.540  0.00  0.00    +0.243 C 
ATOM      8  O   UNL     1       4.531  -1.910  25.247  0.00  0.00    -0.273 OA
ATOM      9  O   UNL     1       8.182  -4.695  24.787  0.00  0.00    -0.273 OA
ATOM     10  C   UNL     1       5.134  -4.004  26.334  0.00  0.00    +0.097 C 
ATOM     11  C   UNL     1       3.796  -4.593  26.761  0.00  0.00    +0.027 C 
ATOM     12  C   UNL     1       3.126  -5.333  25.585  0.00  0.00    -0.026 C 
ATOM     13  C   UNL     1       3.891  -6.281  24.994  0.00  0.00    -0.026 C 
ATOM     14  C   UNL     1       4.143  -5.612  27.891  0.00  0.00    +0.001 C 
ENDROOT
BRANCH   6  15
ATOM     15  N   UNL     1       7.461  -1.809  24.677  0.00  0.00    -0.221 N 
ATOM     16  H   UNL     1       7.308  -1.553  23.704  0.00  0.00    +0.174 HD
ATOM     17  C   UNL     1       8.263  -1.123  25.551  0.00  0.00    +0.261 C 
ATOM     18  O   UNL     1       8.436  -1.447  26.724  0.00  0.00    -0.269 OA
BRANCH  17  19
ATOM     19  C   UNL     1       8.972   0.100  25.077  0.00  0.00    +0.038 A 
ATOM     20  C   UNL     1       8.323   1.328  24.919  0.00  0.00    +0.013 A 
ATOM     21  C   UNL     1       9.007   2.413  24.343  0.00  0.00    +0.013 A 
ATOM     22  C   UNL     1      10.349   2.285  23.930  0.00  0.00    +0.055 A 
ATOM     23  C   UNL     1      10.993   1.061  24.117  0.00  0.00    +0.013 A 
ATOM     24  C   UNL     1      10.314  -0.023  24.674  0.00  0.00    +0.013 A 
BRANCH  22  25
ATOM     25  C   UNL     1      11.061   3.456  23.280  0.00  0.00    +0.417 C 
ATOM     26  F   UNL     1      12.336   3.605  23.735  0.00  0.00    -0.166 F 
ATOM     27  F   UNL     1      10.439   4.644  23.519  0.00  0.00    -0.166 F 
ATOM     28  F   UNL     1      11.157   3.352  21.925  0.00  0.00    -0.166 F 
ENDBRANCH  22  25
ENDBRANCH  17  19
ENDBRANCH   6  15
TORSDOF 3
ENDMDL
