MODEL 1
REMARK VINA RESULT:      -5.9      0.000      0.000
REMARK  Name = 
REMARK  4 active torsions:
REMARK  status: ('A' for Active; 'I' for Inactive)
REMARK    1  A    between atoms: C_1  and  C_2
REMARK    2  A    between atoms: N_4  and  C_10
REMARK    3  A    between atoms: C_14  and  C_17
REMARK    4  A    between atoms: C_17  and  O_18
REMARK                            x       y       z     vdW  Elec       q    Type
REMARK                         _______ _______ _______ _____ _____    ______ ____
ROOT
ATOM      1  C   UNL     1       5.366  -3.944  27.813  0.00  0.00    +0.051 C 
ATOM      2  C   UNL     1       6.597  -4.223  27.015  0.00  0.00    +0.030 A 
ATOM      3  C   UNL     1       7.369  -5.432  27.391  0.00  0.00    +0.257 A 
ATOM      4  O   UNL     1       6.986  -6.206  28.261  0.00  0.00    -0.267 OA
ATOM      5  N   UNL     1       8.523  -5.641  26.699  0.00  0.00    -0.275 N 
ATOM      6  H   UNL     1       9.047  -6.472  26.923  0.00  0.00    +0.173 HD
ATOM      7  C   UNL     1       8.947  -4.930  25.614  0.00  0.00    +0.332 A 
ATOM      8  O   UNL     1       9.937  -5.305  24.984  0.00  0.00    -0.246 OA
ATOM      9  N   UNL     1       8.187  -3.814  25.284  0.00  0.00    -0.270 N 
ATOM     10  C   UNL     1       7.042  -3.484  25.987  0.00  0.00    +0.102 A 
ENDROOT
BRANCH   9  11
ATOM     11  C   UNL     1       8.612  -3.100  24.097  0.00  0.00    +0.248 C 
ATOM     12  O   UNL     1       9.533  -2.025  24.380  0.00  0.00    -0.343 OA
ATOM     13  C   UNL     1       9.264  -0.988  23.402  0.00  0.00    +0.169 C 
ATOM     14  C   UNL     1       7.826  -1.197  23.055  0.00  0.00    +0.007 C 
ATOM     15  C   UNL     1       7.454  -2.414  23.452  0.00  0.00    +0.025 C 
BRANCH  13  16
ATOM     16  C   UNL     1      10.190  -1.154  22.182  0.00  0.00    +0.191 C 
BRANCH  16  17
ATOM     17  O   UNL     1       9.533  -0.842  20.958  0.00  0.00    -0.392 OA
ATOM     18  H   UNL     1       9.786   0.067  20.720  0.00  0.00    +0.210 HD
ENDBRANCH  16  17
ENDBRANCH  13  16
ENDBRANCH   9  11
TORSDOF 3
ENDMDL
MODEL 2
REMARK VINA RESULT:      -5.9      3.017      3.231
REMARK  Name = 
REMARK  4 active torsions:
REMARK  status: ('A' for Active; 'I' for Inactive)
REMARK    1  A    between atoms: C_1  and  C_2
REMARK    2  A    between atoms: N_4  and  C_10
REMARK    3  A    between atoms: C_14  and  C_17
REMARK    4  A    between atoms: C_17  and  O_18
REMARK                            x       y       z     vdW  Elec       q    Type
REMARK                         _______ _______ _______ _____ _____    ______ ____
ROOT
ATOM      1  C   UNL     1       5.534  -6.054  26.441  0.00  0.00    +0.051 C 
ATOM      2  C   UNL     1       5.673  -5.747  24.986  0.00  0.00    +0.030 A 
ATOM      3  C   UNL     1       4.975  -6.658  24.047  0.00  0.00    +0.257 A 
ATOM      4  O   UNL     1       4.262  -7.575  24.438  0.00  0.00    -0.267 OA
ATOM      5  N   UNL     1       5.162  -6.407  22.722  0.00  0.00    -0.275 N 
ATOM      6  H   UNL     1       4.674  -7.000  22.070  0.00  0.00    +0.173 HD
ATOM      7  C   UNL     1       5.804  -5.323  22.195  0.00  0.00    +0.332 A 
ATOM      8  O   UNL     1       5.783  -5.131  20.979  0.00  0.00    -0.246 OA
ATOM      9  N   UNL     1       6.430  -4.483  23.109  0.00  0.00    -0.270 N 
ATOM     10  C   UNL     1       6.357  -4.713  24.472  0.00  0.00    +0.102 A 
ENDROOT
BRANCH   9  11
ATOM     11  C   UNL     1       7.058  -3.306  22.544  0.00  0.00    +0.248 C 
ATOM     12  O   UNL     1       8.335  -3.000  23.144  0.00  0.00    -0.343 OA
ATOM     13  C   UNL     1       8.458  -1.555  23.130  0.00  0.00    +0.169 C 
ATOM     14  C   UNL     1       7.041  -1.082  23.158  0.00  0.00    +0.007 C 
ATOM     15  C   UNL     1       6.238  -2.090  22.818  0.00  0.00    +0.025 C 
BRANCH  13  16
ATOM     16  C   UNL     1       9.202  -1.097  21.861  0.00  0.00    +0.191 C 
BRANCH  16  17
ATOM     17  O   UNL     1      10.467  -1.736  21.716  0.00  0.00    -0.392 OA
ATOM     18  H   UNL     1      11.112  -1.045  21.484  0.00  0.00    +0.210 HD
ENDBRANCH  16  17
ENDBRANCH  13  16
ENDBRANCH   9  11
TORSDOF 3
ENDMDL
MODEL 3
REMARK VINA RESULT:      -5.8      2.018      5.942
REMARK  Name = 
REMARK  4 active torsions:
REMARK  status: ('A' for Active; 'I' for Inactive)
REMARK    1  A    between atoms: C_1  and  C_2
REMARK    2  A    between atoms: N_4  and  C_10
REMARK    3  A    between atoms: C_14  and  C_17
REMARK    4  A    between atoms: C_17  and  O_18
REMARK                            x       y       z     vdW  Elec       q    Type
REMARK                         _______ _______ _______ _____ _____    ______ ____
ROOT
ATOM      1  C   UNL     1      10.970   1.077  24.482  0.00  0.00    +0.051 C 
ATOM      2  C   UNL     1      10.063   0.031  23.924  0.00  0.00    +0.030 A 
ATOM      3  C   UNL     1       9.669   0.185  22.503  0.00  0.00    +0.257 A 
ATOM      4  O   UNL     1      10.116   1.082  21.796  0.00  0.00    -0.267 OA
ATOM      5  N   UNL     1       8.790  -0.738  22.024  0.00  0.00    -0.275 N 
ATOM      6  H   UNL     1       8.533  -0.664  21.053  0.00  0.00    +0.173 HD
ATOM      7  C   UNL     1       8.365  -1.856  22.682  0.00  0.00    +0.332 A 
ATOM      8  O   UNL     1       7.682  -2.692  22.090  0.00  0.00    -0.246 OA
ATOM      9  N   UNL     1       8.770  -1.972  24.007  0.00  0.00    -0.270 N 
ATOM     10  C   UNL     1       9.598  -1.033  24.597  0.00  0.00    +0.102 A 
ENDROOT
BRANCH   9  11
ATOM     11  C   UNL     1       8.360  -3.190  24.678  0.00  0.00    +0.248 C 
ATOM     12  O   UNL     1       8.206  -3.027  26.105  0.00  0.00    -0.343 OA
ATOM     13  C   UNL     1       8.586  -4.293  26.703  0.00  0.00    +0.169 C 
ATOM     14  C   UNL     1       9.547  -4.873  25.718  0.00  0.00    +0.007 C 
ATOM     15  C   UNL     1       9.413  -4.239  24.553  0.00  0.00    +0.025 C 
BRANCH  13  16
ATOM     16  C   UNL     1       7.343  -5.181  26.901  0.00  0.00    +0.191 C 
BRANCH  16  17
ATOM     17  O   UNL     1       7.539  -6.170  27.907  0.00  0.00    -0.392 OA
ATOM     18  H   UNL     1       8.483  -6.157  28.142  0.00  0.00    +0.210 HD
ENDBRANCH  16  17
ENDBRANCH  13  16
ENDBRANCH   9  11
TORSDOF 3
ENDMDL
MODEL 4
REMARK VINA RESULT:      -5.7      2.676      3.489
REMARK  Name = 
REMARK  4 active torsions:
REMARK  status: ('A' for Active; 'I' for Inactive)
REMARK    1  A    between atoms: C_1  and  C_2
REMARK    2  A    between atoms: N_4  and  C_10
REMARK    3  A    between atoms: C_14  and  C_17
REMARK    4  A    between atoms: C_17  and  O_18
REMARK                            x       y       z     vdW  Elec       q    Type
REMARK                         _______ _______ _______ _____ _____    ______ ____
ROOT
ATOM      1  C   UNL     1       6.450  -5.897  21.495  0.00  0.00    +0.051 C 
ATOM      2  C   UNL     1       6.644  -4.866  22.558  0.00  0.00    +0.030 A 
ATOM      3  C   UNL     1       5.974  -5.119  23.856  0.00  0.00    +0.257 A 
ATOM      4  O   UNL     1       5.350  -6.152  24.078  0.00  0.00    -0.267 OA
ATOM      5  N   UNL     1       6.104  -4.142  24.795  0.00  0.00    -0.275 N 
ATOM      6  H   UNL     1       5.677  -4.309  25.692  0.00  0.00    +0.173 HD
ATOM      7  C   UNL     1       6.904  -3.040  24.699  0.00  0.00    +0.332 A 
ATOM      8  O   UNL     1       7.048  -2.301  25.674  0.00  0.00    -0.246 OA
ATOM      9  N   UNL     1       7.528  -2.847  23.472  0.00  0.00    -0.270 N 
ATOM     10  C   UNL     1       7.383  -3.752  22.435  0.00  0.00    +0.102 A 
ENDROOT
BRANCH   9  11
ATOM     11  C   UNL     1       8.419  -1.707  23.399  0.00  0.00    +0.248 C 
ATOM     12  O   UNL     1       8.279  -0.954  22.175  0.00  0.00    -0.343 OA
ATOM     13  C   UNL     1       9.598  -0.437  21.860  0.00  0.00    +0.169 C 
ATOM     14  C   UNL     1      10.522  -1.425  22.493  0.00  0.00    +0.007 C 
ATOM     15  C   UNL     1       9.842  -2.152  23.381  0.00  0.00    +0.025 C 
BRANCH  13  16
ATOM     16  C   UNL     1       9.766   0.979  22.443  0.00  0.00    +0.191 C 
BRANCH  16  17
ATOM     17  O   UNL     1       9.792   1.980  21.430  0.00  0.00    -0.392 OA
ATOM     18  H   UNL     1      10.724   2.227  21.295  0.00  0.00    +0.210 HD
ENDBRANCH  16  17
ENDBRANCH  13  16
ENDBRANCH   9  11
TORSDOF 3
ENDMDL
MODEL 5
REMARK VINA RESULT:      -5.6      2.310      5.788
REMARK  Name = 
REMARK  4 active torsions:
REMARK  status: ('A' for Active; 'I' for Inactive)
REMARK    1  A    between atoms: C_1  and  C_2
REMARK    2  A    between atoms: N_4  and  C_10
REMARK    3  A    between atoms: C_14  and  C_17
REMARK    4  A    between atoms: C_17  and  O_18
REMARK                            x       y       z     vdW  Elec       q    Type
REMARK                         _______ _______ _______ _____ _____    ______ ____
ROOT
ATOM      1  C   UNL     1       9.553   0.467  21.756  0.00  0.00    +0.051 C 
ATOM      2  C   UNL     1       9.398   0.034  23.177  0.00  0.00    +0.030 A 
ATOM      3  C   UNL     1      10.001   0.913  24.207  0.00  0.00    +0.257 A 
ATOM      4  O   UNL     1      10.538   1.978  23.922  0.00  0.00    -0.267 OA
ATOM      5  N   UNL     1       9.910   0.474  25.493  0.00  0.00    -0.275 N 
ATOM      6  H   UNL     1      10.291   1.072  26.208  0.00  0.00    +0.173 HD
ATOM      7  C   UNL     1       9.198  -0.609  25.921  0.00  0.00    +0.332 A 
ATOM      8  O   UNL     1       9.073  -0.821  27.128  0.00  0.00    -0.246 OA
ATOM      9  N   UNL     1       8.634  -1.398  24.925  0.00  0.00    -0.270 N 
ATOM     10  C   UNL     1       8.749  -1.067  23.586  0.00  0.00    +0.102 A 
ENDROOT
BRANCH   9  11
ATOM     11  C   UNL     1       7.833  -2.512  25.392  0.00  0.00    +0.248 C 
ATOM     12  O   UNL     1       8.608  -3.705  25.638  0.00  0.00    -0.343 OA
ATOM     13  C   UNL     1       7.746  -4.826  25.314  0.00  0.00    +0.169 C 
ATOM     14  C   UNL     1       6.808  -4.265  24.296  0.00  0.00    +0.007 C 
ATOM     15  C   UNL     1       6.857  -2.933  24.346  0.00  0.00    +0.025 C 
BRANCH  13  16
ATOM     16  C   UNL     1       7.014  -5.316  26.578  0.00  0.00    +0.191 C 
BRANCH  16  17
ATOM     17  O   UNL     1       7.901  -5.912  27.520  0.00  0.00    -0.392 OA
ATOM     18  H   UNL     1       8.712  -5.375  27.528  0.00  0.00    +0.210 HD
ENDBRANCH  16  17
ENDBRANCH  13  16
ENDBRANCH   9  11
TORSDOF 3
ENDMDL
MODEL 6
REMARK VINA RESULT:      -5.6      4.921      7.967
REMARK  Name = 
REMARK  4 active torsions:
REMARK  status: ('A' for Active; 'I' for Inactive)
REMARK    1  A    between atoms: C_1  and  C_2
REMARK    2  A    between atoms: N_4  and  C_10
REMARK    3  A    between atoms: C_14  and  C_17
REMARK    4  A    between atoms: C_17  and  O_18
REMARK                            x       y       z     vdW  Elec       q    Type
REMARK                         _______ _______ _______ _____ _____    ______ ____
ROOT
ATOM      1  C   UNL     1      12.600   4.977  23.172  0.00  0.00    +0.051 C 
ATOM      2  C   UNL     1      11.289   4.340  23.497  0.00  0.00    +0.030 A 
ATOM      3  C   UNL     1      10.232   5.233  24.029  0.00  0.00    +0.257 A 
ATOM      4  O   UNL     1      10.394   6.444  24.133  0.00  0.00    -0.267 OA
ATOM      5  N   UNL     1       9.064   4.630  24.382  0.00  0.00    -0.275 N 
ATOM      6  H   UNL     1       8.325   5.226  24.720  0.00  0.00    +0.173 HD
ATOM      7  C   UNL     1       8.736   3.324  24.156  0.00  0.00    +0.332 A 
ATOM      8  O   UNL     1       7.593   2.931  24.390  0.00  0.00    -0.246 OA
ATOM      9  N   UNL     1       9.749   2.524  23.640  0.00  0.00    -0.270 N 
ATOM     10  C   UNL     1      10.994   3.041  23.329  0.00  0.00    +0.102 A 
ENDROOT
BRANCH   9  11
ATOM     11  C   UNL     1       9.373   1.154  23.350  0.00  0.00    +0.248 C 
ATOM     12  O   UNL     1      10.424   0.205  23.632  0.00  0.00    -0.343 OA
ATOM     13  C   UNL     1      10.291  -0.856  22.652  0.00  0.00    +0.169 C 
ATOM     14  C   UNL     1       9.648  -0.178  21.487  0.00  0.00    +0.007 C 
ATOM     15  C   UNL     1       9.118   0.977  21.892  0.00  0.00    +0.025 C 
BRANCH  13  16
ATOM     16  C   UNL     1       9.423  -1.995  23.218  0.00  0.00    +0.191 C 
BRANCH  16  17
ATOM     17  O   UNL     1      10.200  -2.991  23.876  0.00  0.00    -0.392 OA
ATOM     18  H   UNL     1      11.076  -2.997  23.453  0.00  0.00    +0.210 HD
ENDBRANCH  16  17
ENDBRANCH  13  16
ENDBRANCH   9  11
TORSDOF 3
ENDMDL
MODEL 7
REMARK VINA RESULT:      -5.6      2.125      3.227
REMARK  Name = 
REMARK  4 active torsions:
REMARK  status: ('A' for Active; 'I' for Inactive)
REMARK    1  A    between atoms: C_1  and  C_2
REMARK    2  A    between atoms: N_4  and  C_10
REMARK    3  A    between atoms: C_14  and  C_17
REMARK    4  A    between atoms: C_17  and  O_18
REMARK                            x       y       z     vdW  Elec       q    Type
REMARK                         _______ _______ _______ _____ _____    ______ ____
ROOT
ATOM      1  C   UNL     1       8.598  -5.453  24.359  0.00  0.00    +0.051 C 
ATOM      2  C   UNL     1       8.614  -4.045  24.856  0.00  0.00    +0.030 A 
ATOM      3  C   UNL     1       8.360  -3.851  26.304  0.00  0.00    +0.257 A 
ATOM      4  O   UNL     1       8.213  -4.795  27.072  0.00  0.00    -0.267 OA
ATOM      5  N   UNL     1       8.313  -2.560  26.733  0.00  0.00    -0.275 N 
ATOM      6  H   UNL     1       8.167  -2.410  27.718  0.00  0.00    +0.173 HD
ATOM      7  C   UNL     1       8.620  -1.457  25.989  0.00  0.00    +0.332 A 
ATOM      8  O   UNL     1       8.681  -0.352  26.530  0.00  0.00    -0.246 OA
ATOM      9  N   UNL     1       8.869  -1.683  24.641  0.00  0.00    -0.270 N 
ATOM     10  C   UNL     1       8.856  -2.960  24.106  0.00  0.00    +0.102 A 
ENDROOT
BRANCH   9  11
ATOM     11  C   UNL     1       9.250  -0.514  23.873  0.00  0.00    +0.248 C 
ATOM     12  O   UNL     1       8.128   0.143  23.245  0.00  0.00    -0.343 OA
ATOM     13  C   UNL     1       8.623   0.691  21.996  0.00  0.00    +0.169 C 
ATOM     14  C   UNL     1       9.761  -0.210  21.644  0.00  0.00    +0.007 C 
ATOM     15  C   UNL     1      10.122  -0.900  22.726  0.00  0.00    +0.025 C 
BRANCH  13  16
ATOM     16  C   UNL     1       9.072   2.151  22.198  0.00  0.00    +0.191 C 
BRANCH  16  17
ATOM     17  O   UNL     1      10.320   2.424  21.568  0.00  0.00    -0.392 OA
ATOM     18  H   UNL     1      10.269   2.069  20.664  0.00  0.00    +0.210 HD
ENDBRANCH  16  17
ENDBRANCH  13  16
ENDBRANCH   9  11
TORSDOF 3
ENDMDL
MODEL 8
REMARK VINA RESULT:      -5.5      2.172      2.746
REMARK  Name = 
REMARK  4 active torsions:
REMARK  status: ('A' for Active; 'I' for Inactive)
REMARK    1  A    between atoms: C_1  and  C_2
REMARK    2  A    between atoms: N_4  and  C_10
REMARK    3  A    between atoms: C_14  and  C_17
REMARK    4  A    between atoms: C_17  and  O_18
REMARK                            x       y       z     vdW  Elec       q    Type
REMARK                         _______ _______ _______ _____ _____    ______ ____
ROOT
ATOM      1  C   UNL     1       4.592  -3.593  23.889  0.00  0.00    +0.051 C 
ATOM      2  C   UNL     1       6.080  -3.507  23.986  0.00  0.00    +0.030 A 
ATOM      3  C   UNL     1       6.783  -4.721  24.463  0.00  0.00    +0.257 A 
ATOM      4  O   UNL     1       6.190  -5.768  24.700  0.00  0.00    -0.267 OA
ATOM      5  N   UNL     1       8.132  -4.610  24.610  0.00  0.00    -0.275 N 
ATOM      6  H   UNL     1       8.630  -5.433  24.908  0.00  0.00    +0.173 HD
ATOM      7  C   UNL     1       8.895  -3.545  24.224  0.00  0.00    +0.332 A 
ATOM      8  O   UNL     1      10.123  -3.621  24.276  0.00  0.00    -0.246 OA
ATOM      9  N   UNL     1       8.198  -2.433  23.766  0.00  0.00    -0.270 N 
ATOM     10  C   UNL     1       6.818  -2.434  23.663  0.00  0.00    +0.102 A 
ENDROOT
BRANCH   9  11
ATOM     11  C   UNL     1       9.019  -1.331  23.305  0.00  0.00    +0.248 C 
ATOM     12  O   UNL     1       8.347  -0.055  23.373  0.00  0.00    -0.343 OA
ATOM     13  C   UNL     1       8.846   0.730  22.259  0.00  0.00    +0.169 C 
ATOM     14  C   UNL     1       9.238  -0.301  21.252  0.00  0.00    +0.007 C 
ATOM     15  C   UNL     1       9.341  -1.485  21.857  0.00  0.00    +0.025 C 
BRANCH  13  16
ATOM     16  C   UNL     1      10.040   1.592  22.710  0.00  0.00    +0.191 C 
BRANCH  16  17
ATOM     17  O   UNL     1      10.463   2.501  21.698  0.00  0.00    -0.392 OA
ATOM     18  H   UNL     1      10.930   3.229  22.143  0.00  0.00    +0.210 HD
ENDBRANCH  16  17
ENDBRANCH  13  16
ENDBRANCH   9  11
TORSDOF 3
ENDMDL
MODEL 9
REMARK VINA RESULT:      -5.4      3.165      5.376
REMARK  Name = 
REMARK  4 active torsions:
REMARK  status: ('A' for Active; 'I' for Inactive)
REMARK    1  A    between atoms: C_1  and  C_2
REMARK    2  A    between atoms: N_4  and  C_10
REMARK    3  A    between atoms: C_14  and  C_17
REMARK    4  A    between atoms: C_17  and  O_18
REMARK                            x       y       z     vdW  Elec       q    Type
REMARK                         _______ _______ _______ _____ _____    ______ ____
ROOT
ATOM      1  C   UNL     1       9.818   0.997  21.860  0.00  0.00    +0.051 C 
ATOM      2  C   UNL     1       9.466  -0.059  22.856  0.00  0.00    +0.030 A 
ATOM      3  C   UNL     1      10.109   0.048  24.188  0.00  0.00    +0.257 A 
ATOM      4  O   UNL     1      10.837   0.987  24.488  0.00  0.00    -0.267 OA
ATOM      5  N   UNL     1       9.831  -0.956  25.066  0.00  0.00    -0.275 N 
ATOM      6  H   UNL     1      10.238  -0.886  25.985  0.00  0.00    +0.173 HD
ATOM      7  C   UNL     1       8.915  -1.951  24.881  0.00  0.00    +0.332 A 
ATOM      8  O   UNL     1       8.648  -2.717  25.808  0.00  0.00    -0.246 OA
ATOM      9  N   UNL     1       8.322  -2.005  23.625  0.00  0.00    -0.270 N 
ATOM     10  C   UNL     1       8.610  -1.071  22.646  0.00  0.00    +0.102 A 
ENDROOT
BRANCH   9  11
ATOM     11  C   UNL     1       7.310  -3.029  23.459  0.00  0.00    +0.248 C 
ATOM     12  O   UNL     1       7.742  -4.125  22.623  0.00  0.00    -0.343 OA
ATOM     13  C   UNL     1       6.564  -4.591  21.918  0.00  0.00    +0.169 C 
ATOM     14  C   UNL     1       5.693  -3.379  21.850  0.00  0.00    +0.007 C 
ATOM     15  C   UNL     1       6.122  -2.483  22.740  0.00  0.00    +0.025 C 
BRANCH  13  16
ATOM     16  C   UNL     1       5.901  -5.745  22.694  0.00  0.00    +0.191 C 
BRANCH  16  17
ATOM     17  O   UNL     1       4.581  -6.017  22.235  0.00  0.00    -0.392 OA
ATOM     18  H   UNL     1       4.258  -5.211  21.795  0.00  0.00    +0.210 HD
ENDBRANCH  16  17
ENDBRANCH  13  16
ENDBRANCH   9  11
TORSDOF 3
ENDMDL
