MODEL 1
REMARK VINA RESULT:      -6.7      0.000      0.000
REMARK  Name = 
REMARK  8 active torsions:
REMARK  status: ('A' for Active; 'I' for Inactive)
REMARK    1  A    between atoms: C_1  and  C_2
REMARK    2  A    between atoms: C_2  and  C_3
REMARK    3  A    between atoms: C_2  and  N_4
REMARK    4  A    between atoms: N_13  and  C1*_14
REMARK    5  A    between atoms: C2*_16  and  O2*_26
REMARK    6  A    between atoms: C3*_18  and  O3*_25
REMARK    7  A    between atoms: C4*_20  and  C5*_23
REMARK    8  A    between atoms: C5*_23  and  O5*_24
REMARK                            x       y       z     vdW  Elec       q    Type
REMARK                         _______ _______ _______ _____ _____    ______ ____
ROOT
ATOM      1  N   UNL     1      10.565   4.543  23.142  0.00  0.00    -0.312 N 
ATOM      2  H   UNL     1      10.118   5.371  22.725  0.00  0.00    +0.149 HD
ATOM      3  C   UNL     1       9.630   4.063  24.010  0.00  0.00    +0.199 A 
ATOM      4  N   UNL     1       9.481   2.716  24.332  0.00  0.00    -0.283 N 
ATOM      5  C   UNL     1       8.328   2.624  25.098  0.00  0.00    +0.074 A 
ATOM      6  C   UNL     1       7.749   3.885  24.998  0.00  0.00    +0.092 A 
ATOM      7  C   UNL     1       6.466   4.124  25.530  0.00  0.00    +0.051 A 
ATOM      8  C   UNL     1       5.831   3.102  26.239  0.00  0.00    +0.061 A 
ATOM      9 CL   UNL     1       4.287   3.458  26.933  0.00  0.00    -0.082 Cl
ATOM     10  C   UNL     1       6.452   1.857  26.394  0.00  0.00    +0.061 A 
ATOM     11 CL   UNL     1       5.727   0.577  27.308  0.00  0.00    -0.082 Cl
ATOM     12  C   UNL     1       7.701   1.593  25.809  0.00  0.00    +0.049 A 
ATOM     13  N   UNL     1       8.562   4.748  24.328  0.00  0.00    -0.214 NA
ENDROOT
BRANCH   4  14
ATOM     14  C1* UNL     1      10.304   1.636  23.781  0.00  0.00    +0.254 C 
ATOM     15  O4* UNL     1      10.087   0.359  24.460  0.00  0.00    -0.346 OA
ATOM     16  C4* UNL     1       9.332  -0.525  23.573  0.00  0.00    +0.177 C 
ATOM     17  C3* UNL     1       8.960   0.290  22.340  0.00  0.00    +0.178 C 
ATOM     18  C2* UNL     1      10.079   1.318  22.294  0.00  0.00    +0.195 C 
BRANCH  17  19
ATOM     19  O3* UNL     1       7.699   0.928  22.531  0.00  0.00    -0.386 OA
ATOM     20  H3* UNL     1       7.021   0.232  22.431  0.00  0.00    +0.210 HD
ENDBRANCH  17  19
BRANCH  18  21
ATOM     21  O2* UNL     1       9.760   2.375  21.401  0.00  0.00    -0.385 OA
ATOM     22  H2* UNL     1       9.083   2.045  20.773  0.00  0.00    +0.210 HD
ENDBRANCH  18  21
BRANCH  16  23
ATOM     23  C5* UNL     1      10.169  -1.751  23.164  0.00  0.00    +0.190 C 
BRANCH  23  24
ATOM     24  O5* UNL     1      10.368  -1.858  21.758  0.00  0.00    -0.392 OA
ATOM     25  H5* UNL     1       9.719  -1.288  21.317  0.00  0.00    +0.210 HD
ENDBRANCH  23  24
ENDBRANCH  16  23
ENDBRANCH   4  14
BRANCH   1  27
ATOM     26  C   UNL     1      12.923   5.340  22.493  0.00  0.00    +0.027 C 
ATOM     27  C   UNL     1      11.887   5.053  23.577  0.00  0.00    +0.067 C 
ATOM     28  C   UNL     1      11.637   6.289  24.439  0.00  0.00    +0.027 C 
ENDBRANCH   1  27
TORSDOF 6
ENDMDL
MODEL 2
REMARK VINA RESULT:      -6.5      4.923      7.517
REMARK  Name = 
REMARK  8 active torsions:
REMARK  status: ('A' for Active; 'I' for Inactive)
REMARK    1  A    between atoms: C_1  and  C_2
REMARK    2  A    between atoms: C_2  and  C_3
REMARK    3  A    between atoms: C_2  and  N_4
REMARK    4  A    between atoms: N_13  and  C1*_14
REMARK    5  A    between atoms: C2*_16  and  O2*_26
REMARK    6  A    between atoms: C3*_18  and  O3*_25
REMARK    7  A    between atoms: C4*_20  and  C5*_23
REMARK    8  A    between atoms: C5*_23  and  O5*_24
REMARK                            x       y       z     vdW  Elec       q    Type
REMARK                         _______ _______ _______ _____ _____    ______ ____
ROOT
ATOM      1  N   UNL     1       5.941  -3.277  27.205  0.00  0.00    -0.312 N 
ATOM      2  H   UNL     1       6.440  -3.157  28.097  0.00  0.00    +0.149 HD
ATOM      3  C   UNL     1       6.613  -2.468  26.338  0.00  0.00    +0.199 A 
ATOM      4  N   UNL     1       6.742  -2.720  24.974  0.00  0.00    -0.283 N 
ATOM      5  C   UNL     1       7.629  -1.774  24.484  0.00  0.00    +0.074 A 
ATOM      6  C   UNL     1       8.139  -1.160  25.625  0.00  0.00    +0.092 A 
ATOM      7  C   UNL     1       9.198  -0.237  25.524  0.00  0.00    +0.051 A 
ATOM      8  C   UNL     1       9.661   0.120  24.255  0.00  0.00    +0.061 A 
ATOM      9 CL   UNL     1      10.917   1.306  24.173  0.00  0.00    -0.082 Cl
ATOM     10  C   UNL     1       9.095  -0.451  23.109  0.00  0.00    +0.061 A 
ATOM     11 CL   UNL     1       9.599  -0.002  21.515  0.00  0.00    -0.082 Cl
ATOM     12  C   UNL     1       8.084  -1.421  23.208  0.00  0.00    +0.049 A 
ATOM     13  N   UNL     1       7.503  -1.601  26.746  0.00  0.00    -0.214 NA
ENDROOT
BRANCH   4  14
ATOM     14  C1* UNL     1       6.175  -3.886  24.289  0.00  0.00    +0.254 C 
ATOM     15  O4* UNL     1       6.323  -3.814  22.837  0.00  0.00    -0.346 OA
ATOM     16  C4* UNL     1       7.347  -4.770  22.418  0.00  0.00    +0.177 C 
ATOM     17  C3* UNL     1       7.943  -5.369  23.685  0.00  0.00    +0.178 C 
ATOM     18  C2* UNL     1       6.789  -5.244  24.666  0.00  0.00    +0.195 C 
BRANCH  17  19
ATOM     19  O3* UNL     1       9.059  -4.595  24.121  0.00  0.00    -0.386 OA
ATOM     20  H3* UNL     1       9.062  -3.786  23.573  0.00  0.00    +0.210 HD
ENDBRANCH  17  19
BRANCH  18  21
ATOM     21  O2* UNL     1       7.230  -5.458  25.998  0.00  0.00    -0.385 OA
ATOM     22  H2* UNL     1       7.041  -4.645  26.512  0.00  0.00    +0.210 HD
ENDBRANCH  18  21
BRANCH  16  23
ATOM     23  C5* UNL     1       6.744  -5.882  21.540  0.00  0.00    +0.190 C 
BRANCH  23  24
ATOM     24  O5* UNL     1       5.320  -5.903  21.550  0.00  0.00    -0.392 OA
ATOM     25  H5* UNL     1       5.016  -6.204  20.679  0.00  0.00    +0.210 HD
ENDBRANCH  23  24
ENDBRANCH  16  23
ENDBRANCH   4  14
BRANCH   1  27
ATOM     26  C   UNL     1       3.815  -1.844  26.992  0.00  0.00    +0.027 C 
ATOM     27  C   UNL     1       4.522  -3.063  27.578  0.00  0.00    +0.067 C 
ATOM     28  C   UNL     1       3.767  -4.349  27.247  0.00  0.00    +0.027 C 
ENDBRANCH   1  27
TORSDOF 6
ENDMDL
MODEL 3
REMARK VINA RESULT:      -6.3      7.626     10.167
REMARK  Name = 
REMARK  8 active torsions:
REMARK  status: ('A' for Active; 'I' for Inactive)
REMARK    1  A    between atoms: C_1  and  C_2
REMARK    2  A    between atoms: C_2  and  C_3
REMARK    3  A    between atoms: C_2  and  N_4
REMARK    4  A    between atoms: N_13  and  C1*_14
REMARK    5  A    between atoms: C2*_16  and  O2*_26
REMARK    6  A    between atoms: C3*_18  and  O3*_25
REMARK    7  A    between atoms: C4*_20  and  C5*_23
REMARK    8  A    between atoms: C5*_23  and  O5*_24
REMARK                            x       y       z     vdW  Elec       q    Type
REMARK                         _______ _______ _______ _____ _____    ______ ____
ROOT
ATOM      1  N   UNL     1       2.668  -5.747  23.620  0.00  0.00    -0.312 N 
ATOM      2  H   UNL     1       2.117  -5.061  23.085  0.00  0.00    +0.149 HD
ATOM      3  C   UNL     1       3.953  -5.314  23.494  0.00  0.00    +0.199 A 
ATOM      4  N   UNL     1       4.937  -5.493  24.464  0.00  0.00    -0.283 N 
ATOM      5  C   UNL     1       6.040  -4.768  24.038  0.00  0.00    +0.074 A 
ATOM      6  C   UNL     1       5.567  -4.028  22.957  0.00  0.00    +0.092 A 
ATOM      7  C   UNL     1       6.379  -3.046  22.357  0.00  0.00    +0.051 A 
ATOM      8  C   UNL     1       7.694  -2.895  22.803  0.00  0.00    +0.061 A 
ATOM      9 CL   UNL     1       8.678  -1.725  21.994  0.00  0.00    -0.082 Cl
ATOM     10  C   UNL     1       8.183  -3.691  23.845  0.00  0.00    +0.061 A 
ATOM     11 CL   UNL     1       9.820  -3.576  24.398  0.00  0.00    -0.082 Cl
ATOM     12  C   UNL     1       7.357  -4.625  24.491  0.00  0.00    +0.049 A 
ATOM     13  N   UNL     1       4.289  -4.379  22.643  0.00  0.00    -0.214 NA
ENDROOT
BRANCH   4  14
ATOM     14  C1* UNL     1       4.724  -6.167  25.747  0.00  0.00    +0.254 C 
ATOM     15  O4* UNL     1       5.967  -6.382  26.485  0.00  0.00    -0.346 OA
ATOM     16  C4* UNL     1       6.010  -5.458  27.618  0.00  0.00    +0.177 C 
ATOM     17  C3* UNL     1       4.794  -4.549  27.498  0.00  0.00    +0.178 C 
ATOM     18  C2* UNL     1       3.813  -5.432  26.744  0.00  0.00    +0.195 C 
BRANCH  17  19
ATOM     19  O3* UNL     1       5.117  -3.388  26.734  0.00  0.00    -0.386 OA
ATOM     20  H3* UNL     1       5.240  -3.692  25.813  0.00  0.00    +0.210 HD
ENDBRANCH  17  19
BRANCH  18  21
ATOM     21  O2* UNL     1       2.721  -4.670  26.251  0.00  0.00    -0.385 OA
ATOM     22  H2* UNL     1       2.021  -5.296  25.970  0.00  0.00    +0.210 HD
ENDBRANCH  18  21
BRANCH  16  23
ATOM     23  C5* UNL     1       5.974  -6.218  28.957  0.00  0.00    +0.190 C 
BRANCH  23  24
ATOM     24  O5* UNL     1       6.070  -7.631  28.810  0.00  0.00    -0.392 OA
ATOM     25  H5* UNL     1       6.744  -7.819  28.139  0.00  0.00    +0.210 HD
ENDBRANCH  23  24
ENDBRANCH  16  23
ENDBRANCH   4  14
BRANCH   1  27
ATOM     26  C   UNL     1       2.019  -8.193  24.085  0.00  0.00    +0.027 C 
ATOM     27  C   UNL     1       2.196  -7.049  23.091  0.00  0.00    +0.067 C 
ATOM     28  C   UNL     1       0.903  -6.785  22.321  0.00  0.00    +0.027 C 
ENDBRANCH   1  27
TORSDOF 6
ENDMDL
MODEL 4
REMARK VINA RESULT:      -6.3      3.512      6.268
REMARK  Name = 
REMARK  8 active torsions:
REMARK  status: ('A' for Active; 'I' for Inactive)
REMARK    1  A    between atoms: C_1  and  C_2
REMARK    2  A    between atoms: C_2  and  C_3
REMARK    3  A    between atoms: C_2  and  N_4
REMARK    4  A    between atoms: N_13  and  C1*_14
REMARK    5  A    between atoms: C2*_16  and  O2*_26
REMARK    6  A    between atoms: C3*_18  and  O3*_25
REMARK    7  A    between atoms: C4*_20  and  C5*_23
REMARK    8  A    between atoms: C5*_23  and  O5*_24
REMARK                            x       y       z     vdW  Elec       q    Type
REMARK                         _______ _______ _______ _____ _____    ______ ____
ROOT
ATOM      1  N   UNL     1       7.728  -4.239  23.174  0.00  0.00    -0.312 N 
ATOM      2  H   UNL     1       7.792  -5.045  23.813  0.00  0.00    +0.149 HD
ATOM      3  C   UNL     1       7.111  -3.276  23.916  0.00  0.00    +0.199 A 
ATOM      4  N   UNL     1       7.335  -1.910  23.763  0.00  0.00    -0.283 N 
ATOM      5  C   UNL     1       6.662  -1.286  24.803  0.00  0.00    +0.074 A 
ATOM      6  C   UNL     1       6.267  -2.333  25.632  0.00  0.00    +0.092 A 
ATOM      7  C   UNL     1       5.683  -2.067  26.886  0.00  0.00    +0.051 A 
ATOM      8  C   UNL     1       5.422  -0.741  27.239  0.00  0.00    +0.061 A 
ATOM      9 CL   UNL     1       4.644  -0.462  28.758  0.00  0.00    -0.082 Cl
ATOM     10  C   UNL     1       5.761   0.302  26.369  0.00  0.00    +0.061 A 
ATOM     11 CL   UNL     1       5.411   1.957  26.741  0.00  0.00    -0.082 Cl
ATOM     12  C   UNL     1       6.404   0.046  25.147  0.00  0.00    +0.049 A 
ATOM     13  N   UNL     1       6.553  -3.540  25.069  0.00  0.00    -0.214 NA
ENDROOT
BRANCH   4  14
ATOM     14  C1* UNL     1       8.260  -1.325  22.789  0.00  0.00    +0.254 C 
ATOM     15  O4* UNL     1       8.136   0.129  22.695  0.00  0.00    -0.346 OA
ATOM     16  C4* UNL     1       9.301   0.745  23.329  0.00  0.00    +0.177 C 
ATOM     17  C3* UNL     1      10.118  -0.381  23.951  0.00  0.00    +0.178 C 
ATOM     18  C2* UNL     1       9.755  -1.561  23.064  0.00  0.00    +0.195 C 
BRANCH  17  19
ATOM     19  O3* UNL     1       9.699  -0.613  25.294  0.00  0.00    -0.386 OA
ATOM     20  H3* UNL     1      10.210   0.004  25.852  0.00  0.00    +0.210 HD
ENDBRANCH  17  19
BRANCH  18  21
ATOM     21  O2* UNL     1      10.164  -2.785  23.655  0.00  0.00    -0.385 OA
ATOM     22  H2* UNL     1      11.017  -2.628  24.112  0.00  0.00    +0.210 HD
ENDBRANCH  18  21
BRANCH  16  23
ATOM     23  C5* UNL     1      10.153   1.512  22.301  0.00  0.00    +0.190 C 
BRANCH  23  24
ATOM     24  O5* UNL     1       9.380   2.172  21.304  0.00  0.00    -0.392 OA
ATOM     25  H5* UNL     1       9.639   1.819  20.438  0.00  0.00    +0.210 HD
ENDBRANCH  23  24
ENDBRANCH  16  23
ENDBRANCH   4  14
BRANCH   1  27
ATOM     26  C   UNL     1       6.756  -6.303  21.984  0.00  0.00    +0.027 C 
ATOM     27  C   UNL     1       7.131  -4.824  21.950  0.00  0.00    +0.067 C 
ATOM     28  C   UNL     1       5.929  -3.960  21.573  0.00  0.00    +0.027 C 
ENDBRANCH   1  27
TORSDOF 6
ENDMDL
MODEL 5
REMARK VINA RESULT:      -6.1      3.866      6.277
REMARK  Name = 
REMARK  8 active torsions:
REMARK  status: ('A' for Active; 'I' for Inactive)
REMARK    1  A    between atoms: C_1  and  C_2
REMARK    2  A    between atoms: C_2  and  C_3
REMARK    3  A    between atoms: C_2  and  N_4
REMARK    4  A    between atoms: N_13  and  C1*_14
REMARK    5  A    between atoms: C2*_16  and  O2*_26
REMARK    6  A    between atoms: C3*_18  and  O3*_25
REMARK    7  A    between atoms: C4*_20  and  C5*_23
REMARK    8  A    between atoms: C5*_23  and  O5*_24
REMARK                            x       y       z     vdW  Elec       q    Type
REMARK                         _______ _______ _______ _____ _____    ______ ____
ROOT
ATOM      1  N   UNL     1       9.767   0.081  23.493  0.00  0.00    -0.312 N 
ATOM      2  H   UNL     1      10.663  -0.425  23.481  0.00  0.00    +0.149 HD
ATOM      3  C   UNL     1       8.839  -0.882  23.229  0.00  0.00    +0.199 A 
ATOM      4  N   UNL     1       7.535  -0.866  23.719  0.00  0.00    -0.283 N 
ATOM      5  C   UNL     1       6.975  -2.087  23.375  0.00  0.00    +0.074 A 
ATOM      6  C   UNL     1       8.048  -2.834  22.898  0.00  0.00    +0.092 A 
ATOM      7  C   UNL     1       7.885  -4.200  22.595  0.00  0.00    +0.051 A 
ATOM      8  C   UNL     1       6.611  -4.764  22.691  0.00  0.00    +0.061 A 
ATOM      9 CL   UNL     1       6.443  -6.427  22.245  0.00  0.00    -0.082 Cl
ATOM     10  C   UNL     1       5.524  -3.987  23.106  0.00  0.00    +0.061 A 
ATOM     11 CL   UNL     1       3.917  -4.628  23.191  0.00  0.00    -0.082 Cl
ATOM     12  C   UNL     1       5.693  -2.642  23.473  0.00  0.00    +0.049 A 
ATOM     13  N   UNL     1       9.177  -2.077  22.818  0.00  0.00    -0.214 NA
ENDROOT
BRANCH   4  14
ATOM     14  C1* UNL     1       6.986   0.184  24.582  0.00  0.00    +0.254 C 
ATOM     15  O4* UNL     1       5.551   0.032  24.812  0.00  0.00    -0.346 OA
ATOM     16  C4* UNL     1       5.338  -0.426  26.185  0.00  0.00    +0.177 C 
ATOM     17  C3* UNL     1       6.713  -0.686  26.787  0.00  0.00    +0.178 C 
ATOM     18  C2* UNL     1       7.590   0.270  25.994  0.00  0.00    +0.195 C 
BRANCH  17  19
ATOM     19  O3* UNL     1       7.106  -2.037  26.557  0.00  0.00    -0.386 OA
ATOM     20  H3* UNL     1       7.705  -2.022  25.785  0.00  0.00    +0.210 HD
ENDBRANCH  17  19
BRANCH  18  21
ATOM     21  O2* UNL     1       8.965  -0.032  26.177  0.00  0.00    -0.385 OA
ATOM     22  H2* UNL     1       9.135  -0.085  27.141  0.00  0.00    +0.210 HD
ENDBRANCH  18  21
BRANCH  16  23
ATOM     23  C5* UNL     1       4.588   0.633  27.014  0.00  0.00    +0.190 C 
BRANCH  23  24
ATOM     24  O5* UNL     1       3.436   1.154  26.360  0.00  0.00    -0.392 OA
ATOM     25  H5* UNL     1       3.018   1.799  26.952  0.00  0.00    +0.210 HD
ENDBRANCH  23  24
ENDBRANCH  16  23
ENDBRANCH   4  14
BRANCH   1  27
ATOM     26  C   UNL     1       9.001   1.495  21.485  0.00  0.00    +0.027 C 
ATOM     27  C   UNL     1      10.015   1.234  22.595  0.00  0.00    +0.067 C 
ATOM     28  C   UNL     1      10.192   2.468  23.479  0.00  0.00    +0.027 C 
ENDBRANCH   1  27
TORSDOF 6
ENDMDL
MODEL 6
REMARK VINA RESULT:      -5.8      6.368      8.787
REMARK  Name = 
REMARK  8 active torsions:
REMARK  status: ('A' for Active; 'I' for Inactive)
REMARK    1  A    between atoms: C_1  and  C_2
REMARK    2  A    between atoms: C_2  and  C_3
REMARK    3  A    between atoms: C_2  and  N_4
REMARK    4  A    between atoms: N_13  and  C1*_14
REMARK    5  A    between atoms: C2*_16  and  O2*_26
REMARK    6  A    between atoms: C3*_18  and  O3*_25
REMARK    7  A    between atoms: C4*_20  and  C5*_23
REMARK    8  A    between atoms: C5*_23  and  O5*_24
REMARK                            x       y       z     vdW  Elec       q    Type
REMARK                         _______ _______ _______ _____ _____    ______ ____
ROOT
ATOM      1  N   UNL     1       6.333  -5.626  23.067  0.00  0.00    -0.312 N 
ATOM      2  H   UNL     1       6.377  -6.642  22.908  0.00  0.00    +0.149 HD
ATOM      3  C   UNL     1       5.766  -5.507  24.301  0.00  0.00    +0.199 A 
ATOM      4  N   UNL     1       6.040  -4.470  25.190  0.00  0.00    -0.283 N 
ATOM      5  C   UNL     1       5.409  -4.801  26.380  0.00  0.00    +0.074 A 
ATOM      6  C   UNL     1       4.988  -6.114  26.191  0.00  0.00    +0.092 A 
ATOM      7  C   UNL     1       4.434  -6.845  27.260  0.00  0.00    +0.051 A 
ATOM      8  C   UNL     1       4.231  -6.201  28.482  0.00  0.00    +0.061 A 
ATOM      9 CL   UNL     1       3.488  -7.115  29.748  0.00  0.00    -0.082 Cl
ATOM     10  C   UNL     1       4.595  -4.859  28.643  0.00  0.00    +0.061 A 
ATOM     11 CL   UNL     1       4.316  -4.003  30.122  0.00  0.00    -0.082 Cl
ATOM     12  C   UNL     1       5.208  -4.145  27.600  0.00  0.00    +0.049 A 
ATOM     13  N   UNL     1       5.217  -6.524  24.912  0.00  0.00    -0.214 NA
ENDROOT
BRANCH   4  14
ATOM     14  C1* UNL     1       6.972  -3.371  24.921  0.00  0.00    +0.254 C 
ATOM     15  O4* UNL     1       6.927  -2.331  25.947  0.00  0.00    -0.346 OA
ATOM     16  C4* UNL     1       8.141  -2.414  26.758  0.00  0.00    +0.177 C 
ATOM     17  C3* UNL     1       8.909  -3.643  26.286  0.00  0.00    +0.178 C 
ATOM     18  C2* UNL     1       8.457  -3.761  24.840  0.00  0.00    +0.195 C 
BRANCH  17  19
ATOM     19  O3* UNL     1       8.512  -4.791  27.033  0.00  0.00    -0.386 OA
ATOM     20  H3* UNL     1       9.072  -4.805  27.834  0.00  0.00    +0.210 HD
ENDBRANCH  17  19
BRANCH  18  21
ATOM     21  O2* UNL     1       8.812  -5.025  24.300  0.00  0.00    -0.385 OA
ATOM     22  H2* UNL     1       9.480  -5.429  24.892  0.00  0.00    +0.210 HD
ENDBRANCH  18  21
BRANCH  16  23
ATOM     23  C5* UNL     1       9.008  -1.152  26.593  0.00  0.00    +0.190 C 
BRANCH  23  24
ATOM     24  O5* UNL     1       9.095  -0.366  27.777  0.00  0.00    -0.392 OA
ATOM     25  H5* UNL     1       9.686   0.382  27.599  0.00  0.00    +0.210 HD
ENDBRANCH  23  24
ENDBRANCH  16  23
ENDBRANCH   4  14
BRANCH   1  27
ATOM     26  C   UNL     1       5.834  -3.626  21.528  0.00  0.00    +0.027 C 
ATOM     27  C   UNL     1       5.695  -5.115  21.830  0.00  0.00    +0.067 C 
ATOM     28  C   UNL     1       6.213  -5.963  20.669  0.00  0.00    +0.027 C 
ENDBRANCH   1  27
TORSDOF 6
ENDMDL
MODEL 7
REMARK VINA RESULT:      -5.7      5.434      8.004
REMARK  Name = 
REMARK  8 active torsions:
REMARK  status: ('A' for Active; 'I' for Inactive)
REMARK    1  A    between atoms: C_1  and  C_2
REMARK    2  A    between atoms: C_2  and  C_3
REMARK    3  A    between atoms: C_2  and  N_4
REMARK    4  A    between atoms: N_13  and  C1*_14
REMARK    5  A    between atoms: C2*_16  and  O2*_26
REMARK    6  A    between atoms: C3*_18  and  O3*_25
REMARK    7  A    between atoms: C4*_20  and  C5*_23
REMARK    8  A    between atoms: C5*_23  and  O5*_24
REMARK                            x       y       z     vdW  Elec       q    Type
REMARK                         _______ _______ _______ _____ _____    ______ ____
ROOT
ATOM      1  N   UNL     1       5.399  -4.084  23.390  0.00  0.00    -0.312 N 
ATOM      2  H   UNL     1       4.850  -3.779  22.574  0.00  0.00    +0.149 HD
ATOM      3  C   UNL     1       6.472  -3.244  23.402  0.00  0.00    +0.199 A 
ATOM      4  N   UNL     1       7.135  -2.839  24.558  0.00  0.00    -0.283 N 
ATOM      5  C   UNL     1       8.042  -1.866  24.166  0.00  0.00    +0.074 A 
ATOM      6  C   UNL     1       7.707  -1.599  22.841  0.00  0.00    +0.092 A 
ATOM      7  C   UNL     1       8.324  -0.537  22.151  0.00  0.00    +0.051 A 
ATOM      8  C   UNL     1       9.341   0.178  22.787  0.00  0.00    +0.061 A 
ATOM      9 CL   UNL     1      10.118   1.430  21.880  0.00  0.00    -0.082 Cl
ATOM     10  C   UNL     1       9.719  -0.142  24.095  0.00  0.00    +0.061 A 
ATOM     11 CL   UNL     1      11.009   0.682  24.906  0.00  0.00    -0.082 Cl
ATOM     12  C   UNL     1       9.062  -1.156  24.811  0.00  0.00    +0.049 A 
ATOM     13  N   UNL     1       6.745  -2.453  22.396  0.00  0.00    -0.214 NA
ENDROOT
BRANCH   4  14
ATOM     14  C1* UNL     1       6.768  -3.257  25.914  0.00  0.00    +0.254 C 
ATOM     15  O4* UNL     1       5.732  -4.288  25.924  0.00  0.00    -0.346 OA
ATOM     16  C4* UNL     1       6.339  -5.564  26.300  0.00  0.00    +0.177 C 
ATOM     17  C3* UNL     1       7.841  -5.331  26.405  0.00  0.00    +0.178 C 
ATOM     18  C2* UNL     1       7.906  -3.854  26.758  0.00  0.00    +0.195 C 
BRANCH  17  19
ATOM     19  O3* UNL     1       8.468  -5.575  25.147  0.00  0.00    -0.386 OA
ATOM     20  H3* UNL     1       9.395  -5.814  25.344  0.00  0.00    +0.210 HD
ENDBRANCH  17  19
BRANCH  18  21
ATOM     21  O2* UNL     1       9.224  -3.351  26.597  0.00  0.00    -0.385 OA
ATOM     22  H2* UNL     1       9.164  -2.496  26.121  0.00  0.00    +0.210 HD
ENDBRANCH  18  21
BRANCH  16  23
ATOM     23  C5* UNL     1       5.787  -6.068  27.646  0.00  0.00    +0.190 C 
BRANCH  23  24
ATOM     24  O5* UNL     1       6.803  -6.441  28.572  0.00  0.00    -0.392 OA
ATOM     25  H5* UNL     1       7.650  -6.458  28.100  0.00  0.00    +0.210 HD
ENDBRANCH  23  24
ENDBRANCH  16  23
ENDBRANCH   4  14
BRANCH   1  27
ATOM     26  C   UNL     1       4.276  -6.398  23.443  0.00  0.00    +0.027 C 
ATOM     27  C   UNL     1       5.518  -5.548  23.191  0.00  0.00    +0.067 C 
ATOM     28  C   UNL     1       6.060  -5.772  21.781  0.00  0.00    +0.027 C 
ENDBRANCH   1  27
TORSDOF 6
ENDMDL
MODEL 8
REMARK VINA RESULT:      -5.7      3.253      5.830
REMARK  Name = 
REMARK  8 active torsions:
REMARK  status: ('A' for Active; 'I' for Inactive)
REMARK    1  A    between atoms: C_1  and  C_2
REMARK    2  A    between atoms: C_2  and  C_3
REMARK    3  A    between atoms: C_2  and  N_4
REMARK    4  A    between atoms: N_13  and  C1*_14
REMARK    5  A    between atoms: C2*_16  and  O2*_26
REMARK    6  A    between atoms: C3*_18  and  O3*_25
REMARK    7  A    between atoms: C4*_20  and  C5*_23
REMARK    8  A    between atoms: C5*_23  and  O5*_24
REMARK                            x       y       z     vdW  Elec       q    Type
REMARK                         _______ _______ _______ _____ _____    ______ ____
ROOT
ATOM      1  N   UNL     1       8.862  -0.623  24.373  0.00  0.00    -0.312 N 
ATOM      2  H   UNL     1       9.534  -1.073  23.734  0.00  0.00    +0.149 HD
ATOM      3  C   UNL     1       9.254   0.682  24.401  0.00  0.00    +0.199 A 
ATOM      4  N   UNL     1       8.384   1.754  24.586  0.00  0.00    -0.283 N 
ATOM      5  C   UNL     1       9.134   2.903  24.378  0.00  0.00    +0.074 A 
ATOM      6  C   UNL     1      10.342   2.436  23.869  0.00  0.00    +0.092 A 
ATOM      7  C   UNL     1      11.309   3.341  23.390  0.00  0.00    +0.051 A 
ATOM      8  C   UNL     1      11.074   4.712  23.522  0.00  0.00    +0.061 A 
ATOM      9 CL   UNL     1      12.316   5.787  22.982  0.00  0.00    -0.082 Cl
ATOM     10  C   UNL     1       9.884   5.172  24.099  0.00  0.00    +0.061 A 
ATOM     11 CL   UNL     1       9.569   6.859  24.331  0.00  0.00    -0.082 Cl
ATOM     12  C   UNL     1       8.888   4.274  24.517  0.00  0.00    +0.049 A 
ATOM     13  N   UNL     1      10.392   1.076  23.892  0.00  0.00    -0.214 NA
ENDROOT
BRANCH   4  14
ATOM     14  C1* UNL     1       6.936   1.626  24.772  0.00  0.00    +0.254 C 
ATOM     15  O4* UNL     1       6.296   2.896  25.106  0.00  0.00    -0.346 OA
ATOM     16  C4* UNL     1       5.538   3.363  23.945  0.00  0.00    +0.177 C 
ATOM     17  C3* UNL     1       5.827   2.395  22.805  0.00  0.00    +0.178 C 
ATOM     18  C2* UNL     1       6.150   1.113  23.554  0.00  0.00    +0.195 C 
BRANCH  17  19
ATOM     19  O3* UNL     1       6.957   2.838  22.055  0.00  0.00    -0.386 OA
ATOM     20  H3* UNL     1       7.732   2.372  22.426  0.00  0.00    +0.210 HD
ENDBRANCH  17  19
BRANCH  18  21
ATOM     21  O2* UNL     1       6.755   0.160  22.692  0.00  0.00    -0.385 OA
ATOM     22  H2* UNL     1       7.654  -0.026  23.033  0.00  0.00    +0.210 HD
ENDBRANCH  18  21
BRANCH  16  23
ATOM     23  C5* UNL     1       4.027   3.393  24.243  0.00  0.00    +0.190 C 
BRANCH  23  24
ATOM     24  O5* UNL     1       3.237   2.778  23.230  0.00  0.00    -0.392 OA
ATOM     25  H5* UNL     1       3.227   3.364  22.458  0.00  0.00    +0.210 HD
ENDBRANCH  23  24
ENDBRANCH  16  23
ENDBRANCH   4  14
BRANCH   1  27
ATOM     26  C   UNL     1       7.981  -1.131  26.736  0.00  0.00    +0.027 C 
ATOM     27  C   UNL     1       8.887  -1.503  25.566  0.00  0.00    +0.067 C 
ATOM     28  C   UNL     1       8.610  -2.927  25.086  0.00  0.00    +0.027 C 
ENDBRANCH   1  27
TORSDOF 6
ENDMDL
MODEL 9
REMARK VINA RESULT:      -5.7      8.294     10.788
REMARK  Name = 
REMARK  8 active torsions:
REMARK  status: ('A' for Active; 'I' for Inactive)
REMARK    1  A    between atoms: C_1  and  C_2
REMARK    2  A    between atoms: C_2  and  C_3
REMARK    3  A    between atoms: C_2  and  N_4
REMARK    4  A    between atoms: N_13  and  C1*_14
REMARK    5  A    between atoms: C2*_16  and  O2*_26
REMARK    6  A    between atoms: C3*_18  and  O3*_25
REMARK    7  A    between atoms: C4*_20  and  C5*_23
REMARK    8  A    between atoms: C5*_23  and  O5*_24
REMARK                            x       y       z     vdW  Elec       q    Type
REMARK                         _______ _______ _______ _____ _____    ______ ____
ROOT
ATOM      1  N   UNL     1       4.259  -7.080  27.971  0.00  0.00    -0.312 N 
ATOM      2  H   UNL     1       5.029  -7.708  28.243  0.00  0.00    +0.149 HD
ATOM      3  C   UNL     1       4.859  -6.141  27.187  0.00  0.00    +0.199 A 
ATOM      4  N   UNL     1       4.229  -5.486  26.131  0.00  0.00    -0.283 N 
ATOM      5  C   UNL     1       5.212  -4.750  25.487  0.00  0.00    +0.074 A 
ATOM      6  C   UNL     1       6.401  -5.187  26.064  0.00  0.00    +0.092 A 
ATOM      7  C   UNL     1       7.641  -4.766  25.546  0.00  0.00    +0.051 A 
ATOM      8  C   UNL     1       7.654  -3.832  24.507  0.00  0.00    +0.061 A 
ATOM      9 CL   UNL     1       9.198  -3.291  23.945  0.00  0.00    -0.082 Cl
ATOM     10  C   UNL     1       6.454  -3.346  23.978  0.00  0.00    +0.061 A 
ATOM     11 CL   UNL     1       6.420  -2.150  22.726  0.00  0.00    -0.082 Cl
ATOM     12  C   UNL     1       5.214  -3.813  24.447  0.00  0.00    +0.049 A 
ATOM     13  N   UNL     1       6.160  -6.037  27.101  0.00  0.00    -0.214 NA
ENDROOT
BRANCH   4  14
ATOM     14  C1* UNL     1       2.841  -5.719  25.721  0.00  0.00    +0.254 C 
ATOM     15  O4* UNL     1       2.360  -4.720  24.768  0.00  0.00    -0.346 OA
ATOM     16  C4* UNL     1       2.262  -5.337  23.446  0.00  0.00    +0.177 C 
ATOM     17  C3* UNL     1       2.828  -6.746  23.568  0.00  0.00    +0.178 C 
ATOM     18  C2* UNL     1       2.567  -7.065  25.031  0.00  0.00    +0.195 C 
BRANCH  17  19
ATOM     19  O3* UNL     1       4.229  -6.742  23.296  0.00  0.00    -0.386 OA
ATOM     20  H3* UNL     1       4.363  -7.343  22.539  0.00  0.00    +0.210 HD
ENDBRANCH  17  19
BRANCH  18  21
ATOM     21  O2* UNL     1       3.297  -8.212  25.438  0.00  0.00    -0.385 OA
ATOM     22  H2* UNL     1       3.901  -7.944  26.161  0.00  0.00    +0.210 HD
ENDBRANCH  18  21
BRANCH  16  23
ATOM     23  C5* UNL     1       0.801  -5.393  22.965  0.00  0.00    +0.190 C 
BRANCH  23  24
ATOM     24  O5* UNL     1       0.645  -6.022  21.697  0.00  0.00    -0.392 OA
ATOM     25  H5* UNL     1       0.004  -6.744  21.794  0.00  0.00    +0.210 HD
ENDBRANCH  23  24
ENDBRANCH  16  23
ENDBRANCH   4  14
BRANCH   1  27
ATOM     26  C   UNL     1       2.578  -7.751  29.799  0.00  0.00    +0.027 C 
ATOM     27  C   UNL     1       3.608  -6.761  29.264  0.00  0.00    +0.067 C 
ATOM     28  C   UNL     1       4.719  -6.518  30.284  0.00  0.00    +0.027 C 
ENDBRANCH   1  27
TORSDOF 6
ENDMDL
