MODEL 1
REMARK VINA RESULT:      -5.9      0.000      0.000
REMARK  Name = 
REMARK  5 active torsions:
REMARK  status: ('A' for Active; 'I' for Inactive)
REMARK    1  A    between atoms: C3*_2  and  O3*_22
REMARK    2  A    between atoms: C4*_4  and  C5*_20
REMARK    3  A    between atoms: C1*_7  and  N_9
REMARK    4  A    between atoms: C_11  and  C_17
REMARK    5  A    between atoms: C5*_20  and  O5*_21
REMARK                            x       y       z     vdW  Elec       q    Type
REMARK                         _______ _______ _______ _____ _____    ______ ____
ROOT
ATOM      1  N   UNL     1       9.228  -1.943  24.138  0.00  0.00    -0.273 N 
ATOM      2  C   UNL     1      10.123  -1.272  23.318  0.00  0.00    +0.331 A 
ATOM      3  O   UNL     1      10.669  -1.779  22.342  0.00  0.00    -0.246 OA
ATOM      4  N   UNL     1      10.342   0.041  23.634  0.00  0.00    -0.274 N 
ATOM      5  H   UNL     1      10.937   0.553  23.005  0.00  0.00    +0.173 HD
ATOM      6  C   UNL     1       9.585   0.785  24.494  0.00  0.00    +0.261 A 
ATOM      7  O   UNL     1       9.645   2.011  24.504  0.00  0.00    -0.267 OA
ATOM      8  C   UNL     1       8.660   0.025  25.387  0.00  0.00    +0.056 A 
ATOM      9  C   UNL     1       8.551  -1.289  25.150  0.00  0.00    +0.106 A 
ENDROOT
BRANCH   1  11
ATOM     10  C2* UNL     1       7.391  -3.597  23.982  0.00  0.00    +0.088 C 
ATOM     11  C1* UNL     1       8.875  -3.311  23.766  0.00  0.00    +0.226 C 
ATOM     12  O4* UNL     1       9.615  -4.264  24.555  0.00  0.00    -0.348 OA
ATOM     13  C4* UNL     1       8.686  -5.168  25.191  0.00  0.00    +0.175 C 
ATOM     14  C3* UNL     1       7.395  -5.051  24.386  0.00  0.00    +0.150 C 
BRANCH  14  15
ATOM     15  O3* UNL     1       6.229  -5.445  25.084  0.00  0.00    -0.389 OA
ATOM     16  H3* UNL     1       5.457  -4.970  24.730  0.00  0.00    +0.210 HD
ENDBRANCH  14  15
BRANCH  13  17
ATOM     17  C5* UNL     1       8.525  -4.804  26.677  0.00  0.00    +0.190 C 
BRANCH  17  18
ATOM     18  O5* UNL     1       7.955  -5.880  27.422  0.00  0.00    -0.392 OA
ATOM     19  H5* UNL     1       8.632  -6.200  28.042  0.00  0.00    +0.210 HD
ENDBRANCH  17  18
ENDBRANCH  13  17
ENDBRANCH   1  11
BRANCH   8  20
ATOM     20  C   UNL     1       7.828   0.741  26.342  0.00  0.00    +0.022 C 
ATOM     21  C   UNL     1       7.286   0.227  27.453  0.00  0.00    +0.052 C 
ATOM     22 BR   UNL     1       6.183   1.185  28.599  0.00  0.00    -0.059 Br
ENDBRANCH   8  20
TORSDOF 5
ENDMDL
MODEL 2
REMARK VINA RESULT:      -5.8      2.710      5.358
REMARK  Name = 
REMARK  5 active torsions:
REMARK  status: ('A' for Active; 'I' for Inactive)
REMARK    1  A    between atoms: C3*_2  and  O3*_22
REMARK    2  A    between atoms: C4*_4  and  C5*_20
REMARK    3  A    between atoms: C1*_7  and  N_9
REMARK    4  A    between atoms: C_11  and  C_17
REMARK    5  A    between atoms: C5*_20  and  O5*_21
REMARK                            x       y       z     vdW  Elec       q    Type
REMARK                         _______ _______ _______ _____ _____    ______ ____
ROOT
ATOM      1  N   UNL     1       8.477  -3.919  24.896  0.00  0.00    -0.273 N 
ATOM      2  C   UNL     1       9.243  -4.960  25.400  0.00  0.00    +0.331 A 
ATOM      3  O   UNL     1      10.397  -5.192  25.051  0.00  0.00    -0.246 OA
ATOM      4  N   UNL     1       8.644  -5.716  26.371  0.00  0.00    -0.274 N 
ATOM      5  H   UNL     1       9.216  -6.431  26.790  0.00  0.00    +0.173 HD
ATOM      6  C   UNL     1       7.501  -5.383  27.042  0.00  0.00    +0.261 A 
ATOM      7  O   UNL     1       7.188  -5.940  28.090  0.00  0.00    -0.267 OA
ATOM      8  C   UNL     1       6.684  -4.282  26.449  0.00  0.00    +0.056 A 
ATOM      9  C   UNL     1       7.227  -3.630  25.412  0.00  0.00    +0.106 A 
ENDROOT
BRANCH   1  11
ATOM     10  C2* UNL     1       9.476  -1.675  24.581  0.00  0.00    +0.088 C 
ATOM     11  C1* UNL     1       9.119  -3.016  23.944  0.00  0.00    +0.226 C 
ATOM     12  O4* UNL     1       8.248  -2.743  22.828  0.00  0.00    -0.348 OA
ATOM     13  C4* UNL     1       8.099  -1.314  22.690  0.00  0.00    +0.175 C 
ATOM     14  C3* UNL     1       9.283  -0.709  23.437  0.00  0.00    +0.150 C 
BRANCH  14  15
ATOM     15  O3* UNL     1       9.095   0.629  23.856  0.00  0.00    -0.389 OA
ATOM     16  H3* UNL     1       8.202   0.928  23.611  0.00  0.00    +0.210 HD
ENDBRANCH  14  15
BRANCH  13  17
ATOM     17  C5* UNL     1       6.730  -0.869  23.234  0.00  0.00    +0.190 C 
BRANCH  17  18
ATOM     18  O5* UNL     1       6.364   0.421  22.741  0.00  0.00    -0.392 OA
ATOM     19  H5* UNL     1       6.572   0.443  21.790  0.00  0.00    +0.210 HD
ENDBRANCH  17  18
ENDBRANCH  13  17
ENDBRANCH   1  11
BRANCH   8  20
ATOM     20  C   UNL     1       5.446  -3.875  27.094  0.00  0.00    +0.022 C 
ATOM     21  C   UNL     1       4.219  -4.321  26.794  0.00  0.00    +0.052 C 
ATOM     22 BR   UNL     1       2.671  -3.713  27.620  0.00  0.00    -0.059 Br
ENDBRANCH   8  20
TORSDOF 5
ENDMDL
MODEL 3
REMARK VINA RESULT:      -5.6      2.583      3.549
REMARK  Name = 
REMARK  5 active torsions:
REMARK  status: ('A' for Active; 'I' for Inactive)
REMARK    1  A    between atoms: C3*_2  and  O3*_22
REMARK    2  A    between atoms: C4*_4  and  C5*_20
REMARK    3  A    between atoms: C1*_7  and  N_9
REMARK    4  A    between atoms: C_11  and  C_17
REMARK    5  A    between atoms: C5*_20  and  O5*_21
REMARK                            x       y       z     vdW  Elec       q    Type
REMARK                         _______ _______ _______ _____ _____    ______ ____
ROOT
ATOM      1  N   UNL     1       8.162  -3.528  23.873  0.00  0.00    -0.273 N 
ATOM      2  C   UNL     1       9.464  -3.378  24.327  0.00  0.00    +0.331 A 
ATOM      3  O   UNL     1      10.211  -4.317  24.587  0.00  0.00    -0.246 OA
ATOM      4  N   UNL     1       9.907  -2.087  24.434  0.00  0.00    -0.274 N 
ATOM      5  H   UNL     1      10.870  -1.971  24.698  0.00  0.00    +0.173 HD
ATOM      6  C   UNL     1       9.286  -0.991  23.903  0.00  0.00    +0.261 A 
ATOM      7  O   UNL     1       9.875   0.078  23.773  0.00  0.00    -0.267 OA
ATOM      8  C   UNL     1       7.873  -1.182  23.460  0.00  0.00    +0.056 A 
ATOM      9  C   UNL     1       7.407  -2.438  23.481  0.00  0.00    +0.106 A 
ENDROOT
BRANCH   1  11
ATOM     10  C2* UNL     1       7.308  -5.110  22.170  0.00  0.00    +0.088 C 
ATOM     11  C1* UNL     1       7.690  -4.889  23.631  0.00  0.00    +0.226 C 
ATOM     12  O4* UNL     1       6.524  -5.177  24.429  0.00  0.00    -0.348 OA
ATOM     13  C4* UNL     1       5.463  -5.630  23.560  0.00  0.00    +0.175 C 
ATOM     14  C3* UNL     1       6.156  -6.080  22.277  0.00  0.00    +0.150 C 
BRANCH  14  15
ATOM     15  O3* UNL     1       5.324  -6.095  21.133  0.00  0.00    -0.389 OA
ATOM     16  H3* UNL     1       5.265  -5.200  20.757  0.00  0.00    +0.210 HD
ENDBRANCH  14  15
BRANCH  13  17
ATOM     17  C5* UNL     1       4.435  -4.505  23.348  0.00  0.00    +0.190 C 
BRANCH  17  18
ATOM     18  O5* UNL     1       3.179  -5.020  22.905  0.00  0.00    -0.392 OA
ATOM     19  H5* UNL     1       3.361  -5.727  22.261  0.00  0.00    +0.210 HD
ENDBRANCH  17  18
ENDBRANCH  13  17
ENDBRANCH   1  11
BRANCH   8  20
ATOM     20  C   UNL     1       7.137  -0.062  22.896  0.00  0.00    +0.022 C 
ATOM     21  C   UNL     1       6.773   1.050  23.549  0.00  0.00    +0.052 C 
ATOM     22 BR   UNL     1       5.780   2.418  22.781  0.00  0.00    -0.059 Br
ENDBRANCH   8  20
TORSDOF 5
ENDMDL
MODEL 4
REMARK VINA RESULT:      -5.6      3.496      6.215
REMARK  Name = 
REMARK  5 active torsions:
REMARK  status: ('A' for Active; 'I' for Inactive)
REMARK    1  A    between atoms: C3*_2  and  O3*_22
REMARK    2  A    between atoms: C4*_4  and  C5*_20
REMARK    3  A    between atoms: C1*_7  and  N_9
REMARK    4  A    between atoms: C_11  and  C_17
REMARK    5  A    between atoms: C5*_20  and  O5*_21
REMARK                            x       y       z     vdW  Elec       q    Type
REMARK                         _______ _______ _______ _____ _____    ______ ____
ROOT
ATOM      1  N   UNL     1       6.373  -4.706  23.191  0.00  0.00    -0.273 N 
ATOM      2  C   UNL     1       5.630  -5.391  22.240  0.00  0.00    +0.331 A 
ATOM      3  O   UNL     1       5.802  -5.284  21.030  0.00  0.00    -0.246 OA
ATOM      4  N   UNL     1       4.693  -6.257  22.736  0.00  0.00    -0.274 N 
ATOM      5  H   UNL     1       4.196  -6.807  22.055  0.00  0.00    +0.173 HD
ATOM      6  C   UNL     1       4.612  -6.678  24.033  0.00  0.00    +0.261 A 
ATOM      7  O   UNL     1       3.954  -7.666  24.346  0.00  0.00    -0.267 OA
ATOM      8  C   UNL     1       5.395  -5.892  25.033  0.00  0.00    +0.056 A 
ATOM      9  C   UNL     1       6.218  -4.956  24.541  0.00  0.00    +0.106 A 
ENDROOT
BRANCH   1  11
ATOM     10  C2* UNL     1       8.494  -3.582  23.796  0.00  0.00    +0.088 C 
ATOM     11  C1* UNL     1       7.463  -3.862  22.707  0.00  0.00    +0.226 C 
ATOM     12  O4* UNL     1       6.962  -2.589  22.251  0.00  0.00    -0.348 OA
ATOM     13  C4* UNL     1       7.669  -1.535  22.940  0.00  0.00    +0.175 C 
ATOM     14  C3* UNL     1       8.948  -2.181  23.463  0.00  0.00    +0.150 C 
BRANCH  14  15
ATOM     15  O3* UNL     1       9.544  -1.507  24.556  0.00  0.00    -0.389 OA
ATOM     16  H3* UNL     1       8.852  -1.120  25.121  0.00  0.00    +0.210 HD
ENDBRANCH  14  15
BRANCH  13  17
ATOM     17  C5* UNL     1       6.781  -0.934  24.043  0.00  0.00    +0.190 C 
BRANCH  17  18
ATOM     18  O5* UNL     1       7.281   0.326  24.491  0.00  0.00    -0.392 OA
ATOM     19  H5* UNL     1       7.256   0.324  25.464  0.00  0.00    +0.210 HD
ENDBRANCH  17  18
ENDBRANCH  13  17
ENDBRANCH   1  11
BRANCH   8  20
ATOM     20  C   UNL     1       5.353  -6.266  26.438  0.00  0.00    +0.022 C 
ATOM     21  C   UNL     1       6.023  -5.669  27.432  0.00  0.00    +0.052 C 
ATOM     22 BR   UNL     1       5.969  -6.237  29.199  0.00  0.00    -0.059 Br
ENDBRANCH   8  20
TORSDOF 5
ENDMDL
MODEL 5
REMARK VINA RESULT:      -5.6      1.886      5.542
REMARK  Name = 
REMARK  5 active torsions:
REMARK  status: ('A' for Active; 'I' for Inactive)
REMARK    1  A    between atoms: C3*_2  and  O3*_22
REMARK    2  A    between atoms: C4*_4  and  C5*_20
REMARK    3  A    between atoms: C1*_7  and  N_9
REMARK    4  A    between atoms: C_11  and  C_17
REMARK    5  A    between atoms: C5*_20  and  O5*_21
REMARK                            x       y       z     vdW  Elec       q    Type
REMARK                         _______ _______ _______ _____ _____    ______ ____
ROOT
ATOM      1  N   UNL     1       9.600  -0.747  24.090  0.00  0.00    -0.273 N 
ATOM      2  C   UNL     1       9.816  -2.100  23.868  0.00  0.00    +0.331 A 
ATOM      3  O   UNL     1      10.607  -2.540  23.039  0.00  0.00    -0.246 OA
ATOM      4  N   UNL     1       9.114  -2.950  24.679  0.00  0.00    -0.274 N 
ATOM      5  H   UNL     1       9.314  -3.930  24.571  0.00  0.00    +0.173 HD
ATOM      6  C   UNL     1       8.444  -2.589  25.814  0.00  0.00    +0.261 A 
ATOM      7  O   UNL     1       8.096  -3.423  26.645  0.00  0.00    -0.267 OA
ATOM      8  C   UNL     1       8.197  -1.128  25.999  0.00  0.00    +0.056 A 
ATOM      9  C   UNL     1       8.789  -0.308  25.119  0.00  0.00    +0.106 A 
ENDROOT
BRANCH   1  11
ATOM     10  C2* UNL     1      10.593   1.521  24.063  0.00  0.00    +0.088 C 
ATOM     11  C1* UNL     1      10.418   0.194  23.329  0.00  0.00    +0.226 C 
ATOM     12  O4* UNL     1       9.811   0.485  22.054  0.00  0.00    -0.348 OA
ATOM     13  C4* UNL     1       9.664   1.915  21.921  0.00  0.00    +0.175 C 
ATOM     14  C3* UNL     1      10.638   2.517  22.930  0.00  0.00    +0.150 C 
BRANCH  14  15
ATOM     15  O3* UNL     1      10.331   3.839  23.329  0.00  0.00    -0.389 OA
ATOM     16  H3* UNL     1      10.648   4.468  22.657  0.00  0.00    +0.210 HD
ENDBRANCH  14  15
BRANCH  13  17
ATOM     17  C5* UNL     1       8.199   2.322  22.157  0.00  0.00    +0.190 C 
BRANCH  17  18
ATOM     18  O5* UNL     1       8.004   3.722  21.957  0.00  0.00    -0.392 OA
ATOM     19  H5* UNL     1       7.098   3.936  22.240  0.00  0.00    +0.210 HD
ENDBRANCH  17  18
ENDBRANCH  13  17
ENDBRANCH   1  11
BRANCH   8  20
ATOM     20  C   UNL     1       7.480  -0.660  27.174  0.00  0.00    +0.022 C 
ATOM     21  C   UNL     1       7.115   0.604  27.423  0.00  0.00    +0.052 C 
ATOM     22 BR   UNL     1       6.250   1.142  28.975  0.00  0.00    -0.059 Br
ENDBRANCH   8  20
TORSDOF 5
ENDMDL
MODEL 6
REMARK VINA RESULT:      -5.6      3.075      6.029
REMARK  Name = 
REMARK  5 active torsions:
REMARK  status: ('A' for Active; 'I' for Inactive)
REMARK    1  A    between atoms: C3*_2  and  O3*_22
REMARK    2  A    between atoms: C4*_4  and  C5*_20
REMARK    3  A    between atoms: C1*_7  and  N_9
REMARK    4  A    between atoms: C_11  and  C_17
REMARK    5  A    between atoms: C5*_20  and  O5*_21
REMARK                            x       y       z     vdW  Elec       q    Type
REMARK                         _______ _______ _______ _____ _____    ______ ____
ROOT
ATOM      1  N   UNL     1       8.926  -1.178  24.991  0.00  0.00    -0.273 N 
ATOM      2  C   UNL     1       8.589  -1.385  26.321  0.00  0.00    +0.331 A 
ATOM      3  O   UNL     1       8.946  -0.653  27.239  0.00  0.00    -0.246 OA
ATOM      4  N   UNL     1       7.774  -2.457  26.562  0.00  0.00    -0.274 N 
ATOM      5  H   UNL     1       7.470  -2.576  27.514  0.00  0.00    +0.173 HD
ATOM      6  C   UNL     1       7.082  -3.156  25.613  0.00  0.00    +0.261 A 
ATOM      7  O   UNL     1       6.152  -3.897  25.914  0.00  0.00    -0.267 OA
ATOM      8  C   UNL     1       7.499  -2.934  24.196  0.00  0.00    +0.056 A 
ATOM      9  C   UNL     1       8.397  -1.963  23.984  0.00  0.00    +0.106 A 
ENDROOT
BRANCH   1  11
ATOM     10  C2* UNL     1       8.793   1.221  24.390  0.00  0.00    +0.088 C 
ATOM     11  C1* UNL     1       9.695   0.024  24.676  0.00  0.00    +0.226 C 
ATOM     12  O4* UNL     1      10.515  -0.184  23.508  0.00  0.00    -0.348 OA
ATOM     13  C4* UNL     1      10.227   0.851  22.543  0.00  0.00    +0.175 C 
ATOM     14  C3* UNL     1       9.573   1.975  23.341  0.00  0.00    +0.150 C 
BRANCH  14  15
ATOM     15  O3* UNL     1       8.777   2.857  22.571  0.00  0.00    -0.389 OA
ATOM     16  H3* UNL     1       9.342   3.531  22.154  0.00  0.00    +0.210 HD
ENDBRANCH  14  15
BRANCH  13  17
ATOM     17  C5* UNL     1       9.341   0.294  21.416  0.00  0.00    +0.190 C 
BRANCH  17  18
ATOM     18  O5* UNL     1       9.755  -1.014  21.020  0.00  0.00    -0.392 OA
ATOM     19  H5* UNL     1       8.985  -1.460  20.626  0.00  0.00    +0.210 HD
ENDBRANCH  17  18
ENDBRANCH  13  17
ENDBRANCH   1  11
BRANCH   8  20
ATOM     20  C   UNL     1       6.822  -3.649  23.125  0.00  0.00    +0.022 C 
ATOM     21  C   UNL     1       7.200  -4.823  22.602  0.00  0.00    +0.052 C 
ATOM     22 BR   UNL     1       6.321  -5.653  21.192  0.00  0.00    -0.059 Br
ENDBRANCH   8  20
TORSDOF 5
ENDMDL
MODEL 7
REMARK VINA RESULT:      -5.4      2.961      3.326
REMARK  Name = 
REMARK  5 active torsions:
REMARK  status: ('A' for Active; 'I' for Inactive)
REMARK    1  A    between atoms: C3*_2  and  O3*_22
REMARK    2  A    between atoms: C4*_4  and  C5*_20
REMARK    3  A    between atoms: C1*_7  and  N_9
REMARK    4  A    between atoms: C_11  and  C_17
REMARK    5  A    between atoms: C5*_20  and  O5*_21
REMARK                            x       y       z     vdW  Elec       q    Type
REMARK                         _______ _______ _______ _____ _____    ______ ____
ROOT
ATOM      1  N   UNL     1       8.538  -1.542  22.972  0.00  0.00    -0.273 N 
ATOM      2  C   UNL     1       9.906  -1.422  22.778  0.00  0.00    +0.331 A 
ATOM      3  O   UNL     1      10.680  -2.374  22.750  0.00  0.00    -0.246 OA
ATOM      4  N   UNL     1      10.363  -0.149  22.568  0.00  0.00    -0.274 N 
ATOM      5  H   UNL     1      11.343  -0.060  22.360  0.00  0.00    +0.173 HD
ATOM      6  C   UNL     1       9.581   0.936  22.286  0.00  0.00    +0.261 A 
ATOM      7  O   UNL     1      10.059   1.965  21.818  0.00  0.00    -0.267 OA
ATOM      8  C   UNL     1       8.118   0.781  22.543  0.00  0.00    +0.056 A 
ATOM      9  C   UNL     1       7.699  -0.448  22.874  0.00  0.00    +0.106 A 
ENDROOT
BRANCH   1  11
ATOM     10  C2* UNL     1       6.838  -3.123  22.111  0.00  0.00    +0.088 C 
ATOM     11  C1* UNL     1       7.994  -2.893  23.081  0.00  0.00    +0.226 C 
ATOM     12  O4* UNL     1       7.494  -3.139  24.411  0.00  0.00    -0.348 OA
ATOM     13  C4* UNL     1       6.120  -3.575  24.322  0.00  0.00    +0.175 C 
ATOM     14  C3* UNL     1       5.943  -4.060  22.886  0.00  0.00    +0.150 C 
BRANCH  14  15
ATOM     15  O3* UNL     1       4.604  -4.069  22.428  0.00  0.00    -0.389 OA
ATOM     16  H3* UNL     1       4.005  -4.270  23.167  0.00  0.00    +0.210 HD
ENDBRANCH  14  15
BRANCH  13  17
ATOM     17  C5* UNL     1       5.173  -2.426  24.709  0.00  0.00    +0.190 C 
BRANCH  17  18
ATOM     18  O5* UNL     1       3.851  -2.901  24.968  0.00  0.00    -0.392 OA
ATOM     19  H5* UNL     1       3.670  -2.764  25.914  0.00  0.00    +0.210 HD
ENDBRANCH  17  18
ENDBRANCH  13  17
ENDBRANCH   1  11
BRANCH   8  20
ATOM     20  C   UNL     1       7.218   1.893  22.281  0.00  0.00    +0.022 C 
ATOM     21  C   UNL     1       6.094   2.172  22.955  0.00  0.00    +0.052 C 
ATOM     22 BR   UNL     1       4.958   3.577  22.528  0.00  0.00    -0.059 Br
ENDBRANCH   8  20
TORSDOF 5
ENDMDL
MODEL 8
REMARK VINA RESULT:      -5.3      1.950      5.296
REMARK  Name = 
REMARK  5 active torsions:
REMARK  status: ('A' for Active; 'I' for Inactive)
REMARK    1  A    between atoms: C3*_2  and  O3*_22
REMARK    2  A    between atoms: C4*_4  and  C5*_20
REMARK    3  A    between atoms: C1*_7  and  N_9
REMARK    4  A    between atoms: C_11  and  C_17
REMARK    5  A    between atoms: C5*_20  and  O5*_21
REMARK                            x       y       z     vdW  Elec       q    Type
REMARK                         _______ _______ _______ _____ _____    ______ ____
ROOT
ATOM      1  N   UNL     1       8.715  -2.116  24.459  0.00  0.00    -0.273 N 
ATOM      2  C   UNL     1       8.896  -3.488  24.562  0.00  0.00    +0.331 A 
ATOM      3  O   UNL     1       9.980  -4.048  24.425  0.00  0.00    -0.246 OA
ATOM      4  N   UNL     1       7.776  -4.209  24.878  0.00  0.00    -0.274 N 
ATOM      5  H   UNL     1       7.912  -5.195  25.021  0.00  0.00    +0.173 HD
ATOM      6  C   UNL     1       6.601  -3.684  25.338  0.00  0.00    +0.261 A 
ATOM      7  O   UNL     1       5.755  -4.388  25.881  0.00  0.00    -0.267 OA
ATOM      8  C   UNL     1       6.428  -2.210  25.176  0.00  0.00    +0.056 A 
ATOM      9  C   UNL     1       7.496  -1.529  24.741  0.00  0.00    +0.106 A 
ENDROOT
BRANCH   1  11
ATOM     10  C2* UNL     1       9.795   0.064  24.918  0.00  0.00    +0.088 C 
ATOM     11  C1* UNL     1       9.906  -1.299  24.240  0.00  0.00    +0.226 C 
ATOM     12  O4* UNL     1      10.115  -1.064  22.833  0.00  0.00    -0.348 OA
ATOM     13  C4* UNL     1      10.212   0.359  22.606  0.00  0.00    +0.175 C 
ATOM     14  C3* UNL     1      10.546   0.963  23.966  0.00  0.00    +0.150 C 
BRANCH  14  15
ATOM     15  O3* UNL     1      10.212   2.332  24.101  0.00  0.00    -0.389 OA
ATOM     16  H3* UNL     1       9.301   2.417  24.432  0.00  0.00    +0.210 HD
ENDBRANCH  14  15
BRANCH  13  17
ATOM     17  C5* UNL     1       8.901   0.889  21.998  0.00  0.00    +0.190 C 
BRANCH  17  18
ATOM     18  O5* UNL     1       9.090   2.156  21.368  0.00  0.00    -0.392 OA
ATOM     19  H5* UNL     1       8.292   2.347  20.845  0.00  0.00    +0.210 HD
ENDBRANCH  17  18
ENDBRANCH  13  17
ENDBRANCH   1  11
BRANCH   8  20
ATOM     20  C   UNL     1       5.200  -1.574  25.627  0.00  0.00    +0.022 C 
ATOM     21  C   UNL     1       5.048  -0.867  26.755  0.00  0.00    +0.052 C 
ATOM     22 BR   UNL     1       3.434  -0.131  27.301  0.00  0.00    -0.059 Br
ENDBRANCH   8  20
TORSDOF 5
ENDMDL
MODEL 9
REMARK VINA RESULT:      -5.2      2.828      5.597
REMARK  Name = 
REMARK  5 active torsions:
REMARK  status: ('A' for Active; 'I' for Inactive)
REMARK    1  A    between atoms: C3*_2  and  O3*_22
REMARK    2  A    between atoms: C4*_4  and  C5*_20
REMARK    3  A    between atoms: C1*_7  and  N_9
REMARK    4  A    between atoms: C_11  and  C_17
REMARK    5  A    between atoms: C5*_20  and  O5*_21
REMARK                            x       y       z     vdW  Elec       q    Type
REMARK                         _______ _______ _______ _____ _____    ______ ____
ROOT
ATOM      1  N   UNL     1       8.382  -1.612  23.261  0.00  0.00    -0.273 N 
ATOM      2  C   UNL     1       9.735  -1.893  23.385  0.00  0.00    +0.331 A 
ATOM      3  O   UNL     1      10.628  -1.139  23.010  0.00  0.00    -0.246 OA
ATOM      4  N   UNL     1      10.037  -3.073  24.009  0.00  0.00    -0.274 N 
ATOM      5  H   UNL     1      11.015  -3.253  24.164  0.00  0.00    +0.173 HD
ATOM      6  C   UNL     1       9.159  -3.839  24.722  0.00  0.00    +0.261 A 
ATOM      7  O   UNL     1       9.548  -4.709  25.495  0.00  0.00    -0.267 OA
ATOM      8  C   UNL     1       7.710  -3.531  24.533  0.00  0.00    +0.056 A 
ATOM      9  C   UNL     1       7.422  -2.441  23.810  0.00  0.00    +0.106 A 
ENDROOT
BRANCH   1  11
ATOM     10  C2* UNL     1       9.054   0.197  21.710  0.00  0.00    +0.088 C 
ATOM     11  C1* UNL     1       8.018  -0.309  22.709  0.00  0.00    +0.226 C 
ATOM     12  O4* UNL     1       7.912   0.679  23.754  0.00  0.00    -0.348 OA
ATOM     13  C4* UNL     1       8.764   1.798  23.430  0.00  0.00    +0.175 C 
ATOM     14  C3* UNL     1       9.018   1.690  21.929  0.00  0.00    +0.150 C 
BRANCH  14  15
ATOM     15  O3* UNL     1      10.183   2.355  21.480  0.00  0.00    -0.389 OA
ATOM     16  H3* UNL     1      10.316   3.170  21.994  0.00  0.00    +0.210 HD
ENDBRANCH  14  15
BRANCH  13  17
ATOM     17  C5* UNL     1      10.046   1.752  24.280  0.00  0.00    +0.190 C 
BRANCH  17  18
ATOM     18  O5* UNL     1       9.921   0.836  25.369  0.00  0.00    -0.392 OA
ATOM     19  H5* UNL     1       9.008   0.897  25.701  0.00  0.00    +0.210 HD
ENDBRANCH  17  18
ENDBRANCH  13  17
ENDBRANCH   1  11
BRANCH   8  20
ATOM     20  C   UNL     1       6.708  -4.309  25.245  0.00  0.00    +0.022 C 
ATOM     21  C   UNL     1       6.149  -5.450  24.820  0.00  0.00    +0.052 C 
ATOM     22 BR   UNL     1       4.830  -6.362  25.755  0.00  0.00    -0.059 Br
ENDBRANCH   8  20
TORSDOF 5
ENDMDL
