MODEL 1
REMARK VINA RESULT:      -6.2      0.000      0.000
REMARK  Name = 
REMARK  24 active torsions:
REMARK  status: ('A' for Active; 'I' for Inactive)
REMARK    1  A    between atoms: C_1  and  C_2
REMARK    2  A    between atoms: C_2  and  C_3
REMARK    3  A    between atoms: C_2  and  C_4
REMARK    4  A    between atoms: C_6  and  C_9
REMARK    5  A    between atoms: C_9  and  N_10
REMARK    6  A    between atoms: N_10  and  C_11
REMARK    7  A    between atoms: N_14  and  C_15
REMARK    8  A    between atoms: C_15  and  C_16
REMARK    9  A    between atoms: C_15  and  C_19
REMARK   10  A    between atoms: C_16  and  C_17
REMARK   11  A    between atoms: C_16  and  C_18
REMARK   12  A    between atoms: N_21  and  C_22
REMARK   13  A    between atoms: C_22  and  C_24
REMARK   14  A    between atoms: C_22  and  C_31
REMARK   15  A    between atoms: C_24  and  C_25
REMARK   16  A    between atoms: C_31  and  C_32
REMARK   17  A    between atoms: C_32  and  C_33
REMARK   18  A    between atoms: C_32  and  O_52
REMARK   19  A    between atoms: C_33  and  C_35
REMARK   20  A    between atoms: C_33  and  N_42
REMARK   21  A    between atoms: C_35  and  C_36
REMARK   22  A    between atoms: C_43  and  O_45
REMARK   23  A    between atoms: O_45  and  C_46
REMARK   24  A    between atoms: C_46  and  C_47
REMARK                            x       y       z     vdW  Elec       q    Type
REMARK                         _______ _______ _______ _____ _____    ______ ____
ROOT
ATOM      1  C   UNL     1       7.470  -1.510  26.271  0.00  0.00    +0.080 C 
ENDROOT
BRANCH   1   3
ATOM      2  C   UNL     1       5.201  -0.510  26.569  0.00  0.00    +0.234 C 
ATOM      3  N   UNL     1       6.442  -0.853  27.064  0.00  0.00    -0.311 N 
ATOM      4  H   UNL     1       6.691  -0.461  27.963  0.00  0.00    +0.149 HD
ATOM      5  O   UNL     1       4.835  -0.802  25.434  0.00  0.00    -0.274 OA
BRANCH   2   6
ATOM      6  C   UNL     1       4.343   0.333  27.547  0.00  0.00    +0.163 C 
BRANCH   6   9
ATOM      7  N   UNL     1       3.487   3.627  26.013  0.00  0.00    -0.283 N 
ATOM      8  C   UNL     1       4.237   2.736  26.777  0.00  0.00    +0.303 C 
ATOM      9  N   UNL     1       3.703   1.470  26.848  0.00  0.00    -0.288 N 
ATOM     10  H   UNL     1       2.898   1.245  26.298  0.00  0.00    +0.151 HD
ATOM     11  O   UNL     1       5.288   3.029  27.329  0.00  0.00    -0.253 OA
ATOM     12  C   UNL     1       2.224   3.303  25.354  0.00  0.00    +0.134 C 
BRANCH   7  13
ATOM     13  C   UNL     1       3.899   5.037  25.968  0.00  0.00    +0.164 C 
BRANCH  13  17
ATOM     14  C   UNL     1       7.080   6.035  24.483  0.00  0.00    +0.081 A 
ATOM     15  S   UNL     1       6.641   5.212  23.033  0.00  0.00    -0.080 S 
ATOM     16  C   UNL     1       5.146   4.773  23.735  0.00  0.00    +0.071 A 
ATOM     17  C   UNL     1       5.033   5.304  25.004  0.00  0.00    +0.066 A 
ATOM     18  N   UNL     1       6.146   6.047  25.417  0.00  0.00    -0.247 NA
BRANCH  14  20
ATOM     19  C   UNL     1       9.176   6.166  25.889  0.00  0.00    +0.014 C 
ATOM     20  C   UNL     1       8.477   6.613  24.606  0.00  0.00    +0.038 C 
ATOM     21  C   UNL     1       9.323   6.252  23.382  0.00  0.00    +0.014 C 
ENDBRANCH  14  20
ENDBRANCH  13  17
ENDBRANCH   7  13
ENDBRANCH   6   9
BRANCH   6  22
ATOM     22  C   UNL     1       3.292  -0.589  28.224  0.00  0.00    +0.012 C 
ATOM     23  C   UNL     1       1.949   0.113  28.484  0.00  0.00    +0.009 C 
ATOM     24  C   UNL     1       3.820  -1.198  29.527  0.00  0.00    +0.009 C 
ENDBRANCH   6  22
ENDBRANCH   2   6
ENDBRANCH   1   3
BRANCH   1  25
ATOM     25  C   UNL     1       7.445  -3.023  26.553  0.00  0.00    +0.055 C 
BRANCH  25  26
ATOM     26  C   UNL     1       7.303  -3.918  25.300  0.00  0.00    +0.137 C 
BRANCH  26  27
ATOM     27  O   UNL     1       8.522  -4.653  25.128  0.00  0.00    -0.390 OA
ATOM     28  H   UNL     1       8.397  -5.291  24.402  0.00  0.00    +0.210 HD
ENDBRANCH  26  27
BRANCH  26  29
ATOM     29  C   UNL     1       6.884  -3.188  23.989  0.00  0.00    +0.109 C 
BRANCH  29  30
ATOM     30  N   UNL     1       5.803  -3.895  23.299  0.00  0.00    -0.275 N 
ATOM     31  H   UNL     1       4.853  -3.556  23.396  0.00  0.00    +0.152 HD
ATOM     32  C   UNL     1       5.997  -5.109  22.715  0.00  0.00    +0.401 C 
ATOM     33  O   UNL     1       7.088  -5.661  22.617  0.00  0.00    -0.226 OA
BRANCH  32  34
ATOM     34  O   UNL     1       4.825  -5.633  22.269  0.00  0.00    -0.445 OA
BRANCH  34  35
ATOM     35  C   UNL     1       3.662  -5.267  23.028  0.00  0.00    +0.278 C 
BRANCH  35  36
ATOM     36  C   UNL     1       3.053  -6.513  23.577  0.00  0.00    +0.046 A 
ATOM     37  S   UNL     1       1.560  -7.123  22.987  0.00  0.00    -0.077 S 
ATOM     38  C   UNL     1       1.697  -8.457  24.055  0.00  0.00    +0.156 A 
ATOM     39  N   UNL     1       2.776  -8.489  24.806  0.00  0.00    -0.255 NA
ATOM     40  C   UNL     1       3.553  -7.379  24.531  0.00  0.00    +0.125 A 
ENDBRANCH  35  36
ENDBRANCH  34  35
ENDBRANCH  32  34
ENDBRANCH  29  30
BRANCH  29  41
ATOM     41  C   UNL     1       8.036  -2.828  23.013  0.00  0.00    +0.060 C 
BRANCH  41  42
ATOM     42  C   UNL     1       8.098  -1.425  22.454  0.00  0.00    -0.046 A 
ATOM     43  C   UNL     1       9.209  -1.022  21.699  0.00  0.00    +0.004 A 
ATOM     44  C   UNL     1       9.308   0.284  21.213  0.00  0.00    +0.000 A 
ATOM     45  C   UNL     1       8.298   1.206  21.475  0.00  0.00    +0.000 A 
ATOM     46  C   UNL     1       7.190   0.822  22.229  0.00  0.00    +0.000 A 
ATOM     47  C   UNL     1       7.095  -0.482  22.722  0.00  0.00    +0.004 A 
ENDBRANCH  41  42
ENDBRANCH  29  41
ENDBRANCH  26  29
ENDBRANCH  25  26
ENDBRANCH   1  25
BRANCH   1  48
ATOM     48  C   UNL     1       8.837  -0.865  26.606  0.00  0.00    +0.057 C 
BRANCH  48  49
ATOM     49  C   UNL     1       9.212   0.328  25.764  0.00  0.00    -0.046 A 
ATOM     50  C   UNL     1       8.353   1.433  25.686  0.00  0.00    +0.004 A 
ATOM     51  C   UNL     1       8.677   2.528  24.885  0.00  0.00    +0.000 A 
ATOM     52  C   UNL     1       9.865   2.531  24.157  0.00  0.00    +0.000 A 
ATOM     53  C   UNL     1      10.726   1.438  24.225  0.00  0.00    +0.000 A 
ATOM     54  C   UNL     1      10.399   0.338  25.019  0.00  0.00    +0.004 A 
ENDBRANCH  48  49
ENDBRANCH   1  48
TORSDOF 19
ENDMDL
MODEL 2
REMARK VINA RESULT:      -6.2      2.809      8.847
REMARK  Name = 
REMARK  24 active torsions:
REMARK  status: ('A' for Active; 'I' for Inactive)
REMARK    1  A    between atoms: C_1  and  C_2
REMARK    2  A    between atoms: C_2  and  C_3
REMARK    3  A    between atoms: C_2  and  C_4
REMARK    4  A    between atoms: C_6  and  C_9
REMARK    5  A    between atoms: C_9  and  N_10
REMARK    6  A    between atoms: N_10  and  C_11
REMARK    7  A    between atoms: N_14  and  C_15
REMARK    8  A    between atoms: C_15  and  C_16
REMARK    9  A    between atoms: C_15  and  C_19
REMARK   10  A    between atoms: C_16  and  C_17
REMARK   11  A    between atoms: C_16  and  C_18
REMARK   12  A    between atoms: N_21  and  C_22
REMARK   13  A    between atoms: C_22  and  C_24
REMARK   14  A    between atoms: C_22  and  C_31
REMARK   15  A    between atoms: C_24  and  C_25
REMARK   16  A    between atoms: C_31  and  C_32
REMARK   17  A    between atoms: C_32  and  C_33
REMARK   18  A    between atoms: C_32  and  O_52
REMARK   19  A    between atoms: C_33  and  C_35
REMARK   20  A    between atoms: C_33  and  N_42
REMARK   21  A    between atoms: C_35  and  C_36
REMARK   22  A    between atoms: C_43  and  O_45
REMARK   23  A    between atoms: O_45  and  C_46
REMARK   24  A    between atoms: C_46  and  C_47
REMARK                            x       y       z     vdW  Elec       q    Type
REMARK                         _______ _______ _______ _____ _____    ______ ____
ROOT
ATOM      1  C   UNL     1       8.259  -2.817  25.958  0.00  0.00    +0.080 C 
ENDROOT
BRANCH   1   3
ATOM      2  C   UNL     1       6.643  -1.085  26.749  0.00  0.00    +0.234 C 
ATOM      3  N   UNL     1       6.930  -2.228  26.032  0.00  0.00    -0.311 N 
ATOM      4  H   UNL     1       6.137  -2.763  25.701  0.00  0.00    +0.149 HD
ATOM      5  O   UNL     1       7.505  -0.427  27.323  0.00  0.00    -0.274 OA
BRANCH   2   6
ATOM      6  C   UNL     1       5.131  -0.750  26.820  0.00  0.00    +0.163 C 
BRANCH   6   9
ATOM      7  N   UNL     1       2.688  -3.215  28.198  0.00  0.00    -0.283 N 
ATOM      8  C   UNL     1       3.148  -2.230  27.326  0.00  0.00    +0.303 C 
ATOM      9  N   UNL     1       4.402  -1.752  27.630  0.00  0.00    -0.288 N 
ATOM     10  H   UNL     1       4.927  -2.182  28.365  0.00  0.00    +0.151 HD
ATOM     11  O   UNL     1       2.516  -1.827  26.360  0.00  0.00    -0.253 OA
ATOM     12  C   UNL     1       3.421  -3.704  29.364  0.00  0.00    +0.134 C 
BRANCH   7  13
ATOM     13  C   UNL     1       1.314  -3.710  28.041  0.00  0.00    +0.164 C 
BRANCH  13  17
ATOM     14  C   UNL     1       1.184  -6.351  25.525  0.00  0.00    +0.081 A 
ATOM     15  S   UNL     1       1.373  -7.526  26.773  0.00  0.00    -0.080 S 
ATOM     16  C   UNL     1       1.408  -6.278  27.941  0.00  0.00    +0.071 A 
ATOM     17  C   UNL     1       1.231  -5.047  27.340  0.00  0.00    +0.066 A 
ATOM     18  N   UNL     1       1.083  -5.104  25.949  0.00  0.00    -0.247 NA
BRANCH  14  20
ATOM     19  C   UNL     1       1.364  -5.637  23.108  0.00  0.00    +0.014 C 
ATOM     20  C   UNL     1       1.210  -6.806  24.078  0.00  0.00    +0.038 C 
ATOM     21  C   UNL     1       2.318  -7.838  23.854  0.00  0.00    +0.014 C 
ENDBRANCH  14  20
ENDBRANCH  13  17
ENDBRANCH   7  13
ENDBRANCH   6   9
BRANCH   6  22
ATOM     22  C   UNL     1       4.956   0.685  27.391  0.00  0.00    +0.012 C 
ATOM     23  C   UNL     1       4.541   0.701  28.870  0.00  0.00    +0.009 C 
ATOM     24  C   UNL     1       3.965   1.512  26.564  0.00  0.00    +0.009 C 
ENDBRANCH   6  22
ENDBRANCH   2   6
ENDBRANCH   1   3
BRANCH   1  25
ATOM     25  C   UNL     1       9.133  -1.988  25.000  0.00  0.00    +0.055 C 
BRANCH  25  26
ATOM     26  C   UNL     1       9.064  -2.419  23.517  0.00  0.00    +0.137 C 
BRANCH  26  27
ATOM     27  O   UNL     1      10.390  -2.384  22.973  0.00  0.00    -0.390 OA
ATOM     28  H   UNL     1      10.710  -1.463  23.000  0.00  0.00    +0.210 HD
ENDBRANCH  26  27
BRANCH  26  29
ATOM     29  C   UNL     1       8.059  -1.630  22.627  0.00  0.00    +0.109 C 
BRANCH  29  30
ATOM     30  N   UNL     1       8.095  -0.194  22.915  0.00  0.00    -0.275 N 
ATOM     31  H   UNL     1       7.364   0.212  23.486  0.00  0.00    +0.152 HD
ATOM     32  C   UNL     1       8.948   0.647  22.268  0.00  0.00    +0.401 C 
ATOM     33  O   UNL     1       9.818   0.278  21.485  0.00  0.00    -0.226 OA
BRANCH  32  34
ATOM     34  O   UNL     1       8.701   1.942  22.591  0.00  0.00    -0.445 OA
BRANCH  34  35
ATOM     35  C   UNL     1       9.148   2.345  23.895  0.00  0.00    +0.278 C 
BRANCH  35  36
ATOM     36  C   UNL     1       9.993   3.564  23.742  0.00  0.00    +0.046 A 
ATOM     37  S   UNL     1       9.397   5.129  24.124  0.00  0.00    -0.077 S 
ATOM     38  C   UNL     1      10.929   5.793  23.735  0.00  0.00    +0.156 A 
ATOM     39  N   UNL     1      11.852   4.938  23.355  0.00  0.00    -0.255 NA
ATOM     40  C   UNL     1      11.318   3.663  23.360  0.00  0.00    +0.125 A 
ENDBRANCH  35  36
ENDBRANCH  34  35
ENDBRANCH  32  34
ENDBRANCH  29  30
BRANCH  29  41
ATOM     41  C   UNL     1       6.601  -2.164  22.610  0.00  0.00    +0.060 C 
BRANCH  41  42
ATOM     42  C   UNL     1       6.375  -3.637  22.354  0.00  0.00    -0.046 A 
ATOM     43  C   UNL     1       5.120  -4.206  22.610  0.00  0.00    +0.004 A 
ATOM     44  C   UNL     1       4.902  -5.573  22.425  0.00  0.00    +0.000 A 
ATOM     45  C   UNL     1       5.937  -6.392  21.982  0.00  0.00    +0.000 A 
ATOM     46  C   UNL     1       7.193  -5.843  21.729  0.00  0.00    +0.000 A 
ATOM     47  C   UNL     1       7.412  -4.476  21.921  0.00  0.00    +0.004 A 
ENDBRANCH  41  42
ENDBRANCH  29  41
ENDBRANCH  26  29
ENDBRANCH  25  26
ENDBRANCH   1  25
BRANCH   1  48
ATOM     48  C   UNL     1       8.119  -4.292  25.509  0.00  0.00    +0.057 C 
BRANCH  48  49
ATOM     49  C   UNL     1       7.092  -5.102  26.260  0.00  0.00    -0.046 A 
ATOM     50  C   UNL     1       5.995  -5.652  25.582  0.00  0.00    +0.004 A 
ATOM     51  C   UNL     1       5.024  -6.375  26.274  0.00  0.00    +0.000 A 
ATOM     52  C   UNL     1       5.141  -6.559  27.650  0.00  0.00    +0.000 A 
ATOM     53  C   UNL     1       6.226  -6.016  28.335  0.00  0.00    +0.000 A 
ATOM     54  C   UNL     1       7.193  -5.284  27.646  0.00  0.00    +0.004 A 
ENDBRANCH  48  49
ENDBRANCH   1  48
TORSDOF 19
ENDMDL
MODEL 3
REMARK VINA RESULT:      -6.1      3.076      5.621
REMARK  Name = 
REMARK  24 active torsions:
REMARK  status: ('A' for Active; 'I' for Inactive)
REMARK    1  A    between atoms: C_1  and  C_2
REMARK    2  A    between atoms: C_2  and  C_3
REMARK    3  A    between atoms: C_2  and  C_4
REMARK    4  A    between atoms: C_6  and  C_9
REMARK    5  A    between atoms: C_9  and  N_10
REMARK    6  A    between atoms: N_10  and  C_11
REMARK    7  A    between atoms: N_14  and  C_15
REMARK    8  A    between atoms: C_15  and  C_16
REMARK    9  A    between atoms: C_15  and  C_19
REMARK   10  A    between atoms: C_16  and  C_17
REMARK   11  A    between atoms: C_16  and  C_18
REMARK   12  A    between atoms: N_21  and  C_22
REMARK   13  A    between atoms: C_22  and  C_24
REMARK   14  A    between atoms: C_22  and  C_31
REMARK   15  A    between atoms: C_24  and  C_25
REMARK   16  A    between atoms: C_31  and  C_32
REMARK   17  A    between atoms: C_32  and  C_33
REMARK   18  A    between atoms: C_32  and  O_52
REMARK   19  A    between atoms: C_33  and  C_35
REMARK   20  A    between atoms: C_33  and  N_42
REMARK   21  A    between atoms: C_35  and  C_36
REMARK   22  A    between atoms: C_43  and  O_45
REMARK   23  A    between atoms: O_45  and  C_46
REMARK   24  A    between atoms: C_46  and  C_47
REMARK                            x       y       z     vdW  Elec       q    Type
REMARK                         _______ _______ _______ _____ _____    ______ ____
ROOT
ATOM      1  C   UNL     1       5.872  -1.228  26.125  0.00  0.00    +0.080 C 
ENDROOT
BRANCH   1   3
ATOM      2  C   UNL     1       5.532   0.764  27.592  0.00  0.00    +0.234 C 
ATOM      3  N   UNL     1       5.149  -0.034  26.534  0.00  0.00    -0.311 N 
ATOM      4  H   UNL     1       4.226   0.136  26.154  0.00  0.00    +0.149 HD
ATOM      5  O   UNL     1       6.562   0.570  28.231  0.00  0.00    -0.274 OA
BRANCH   2   6
ATOM      6  C   UNL     1       4.511   1.877  27.943  0.00  0.00    +0.163 C 
BRANCH   6   9
ATOM      7  N   UNL     1       3.946   4.371  25.223  0.00  0.00    -0.283 N 
ATOM      8  C   UNL     1       4.409   3.915  26.455  0.00  0.00    +0.303 C 
ATOM      9  N   UNL     1       4.082   2.607  26.729  0.00  0.00    -0.288 N 
ATOM     10  H   UNL     1       3.635   2.054  26.025  0.00  0.00    +0.151 HD
ATOM     11  O   UNL     1       5.066   4.596  27.230  0.00  0.00    -0.253 OA
ATOM     12  C   UNL     1       3.151   3.580  24.286  0.00  0.00    +0.134 C 
BRANCH   7  13
ATOM     13  C   UNL     1       4.133   5.787  24.880  0.00  0.00    +0.164 C 
BRANCH  13  17
ATOM     14  C   UNL     1       7.602   6.526  24.020  0.00  0.00    +0.081 A 
ATOM     15  S   UNL     1       7.259   6.137  22.375  0.00  0.00    -0.080 S 
ATOM     16  C   UNL     1       5.631   5.817  22.791  0.00  0.00    +0.071 A 
ATOM     17  C   UNL     1       5.417   6.062  24.133  0.00  0.00    +0.066 A 
ATOM     18  N   UNL     1       6.557   6.490  24.827  0.00  0.00    -0.247 NA
BRANCH  14  20
ATOM     19  C   UNL     1       9.312   6.434  25.878  0.00  0.00    +0.014 C 
ATOM     20  C   UNL     1       9.036   6.811  24.424  0.00  0.00    +0.038 C 
ATOM     21  C   UNL     1      10.015   6.094  23.490  0.00  0.00    +0.014 C 
ENDBRANCH  14  20
ENDBRANCH  13  17
ENDBRANCH   7  13
ENDBRANCH   6   9
BRANCH   6  22
ATOM     22  C   UNL     1       3.303   1.242  28.687  0.00  0.00    +0.012 C 
ATOM     23  C   UNL     1       2.006   1.263  27.863  0.00  0.00    +0.009 C 
ATOM     24  C   UNL     1       3.064   1.897  30.051  0.00  0.00    +0.009 C 
ENDBRANCH   6  22
ENDBRANCH   2   6
ENDBRANCH   1   3
BRANCH   1  25
ATOM     25  C   UNL     1       7.142  -0.820  25.357  0.00  0.00    +0.055 C 
BRANCH  25  26
ATOM     26  C   UNL     1       8.454  -1.437  25.893  0.00  0.00    +0.137 C 
BRANCH  26  27
ATOM     27  O   UNL     1       9.078  -0.485  26.766  0.00  0.00    -0.390 OA
ATOM     28  H   UNL     1       9.967  -0.284  26.418  0.00  0.00    +0.210 HD
ENDBRANCH  26  27
BRANCH  26  29
ATOM     29  C   UNL     1       9.447  -1.962  24.815  0.00  0.00    +0.109 C 
BRANCH  29  30
ATOM     30  N   UNL     1       9.445  -1.114  23.620  0.00  0.00    -0.275 N 
ATOM     31  H   UNL     1       8.911  -1.406  22.810  0.00  0.00    +0.152 HD
ATOM     32  C   UNL     1      10.302  -0.066  23.481  0.00  0.00    +0.401 C 
ATOM     33  O   UNL     1      11.061   0.326  24.363  0.00  0.00    -0.226 OA
BRANCH  32  34
ATOM     34  O   UNL     1      10.217   0.479  22.240  0.00  0.00    -0.445 OA
BRANCH  34  35
ATOM     35  C   UNL     1      10.003   1.898  22.206  0.00  0.00    +0.278 C 
BRANCH  35  36
ATOM     36  C   UNL     1       8.714   2.191  22.896  0.00  0.00    +0.046 A 
ATOM     37  S   UNL     1       7.205   1.714  22.227  0.00  0.00    -0.077 S 
ATOM     38  C   UNL     1       6.408   2.355  23.603  0.00  0.00    +0.156 A 
ATOM     39  N   UNL     1       7.180   2.884  24.526  0.00  0.00    -0.255 NA
ATOM     40  C   UNL     1       8.499   2.790  24.123  0.00  0.00    +0.125 A 
ENDBRANCH  35  36
ENDBRANCH  34  35
ENDBRANCH  32  34
ENDBRANCH  29  30
BRANCH  29  41
ATOM     41  C   UNL     1       9.314  -3.463  24.440  0.00  0.00    +0.060 C 
BRANCH  41  42
ATOM     42  C   UNL     1       8.180  -3.883  23.533  0.00  0.00    -0.046 A 
ATOM     43  C   UNL     1       7.854  -5.240  23.406  0.00  0.00    +0.004 A 
ATOM     44  C   UNL     1       6.840  -5.655  22.539  0.00  0.00    +0.000 A 
ATOM     45  C   UNL     1       6.139  -4.718  21.785  0.00  0.00    +0.000 A 
ATOM     46  C   UNL     1       6.456  -3.365  21.896  0.00  0.00    +0.000 A 
ATOM     47  C   UNL     1       7.475  -2.952  22.758  0.00  0.00    +0.004 A 
ENDBRANCH  41  42
ENDBRANCH  29  41
ENDBRANCH  26  29
ENDBRANCH  25  26
ENDBRANCH   1  25
BRANCH   1  48
ATOM     48  C   UNL     1       4.923  -2.112  25.279  0.00  0.00    +0.057 C 
BRANCH  48  49
ATOM     49  C   UNL     1       5.013  -3.593  25.543  0.00  0.00    -0.046 A 
ATOM     50  C   UNL     1       5.964  -4.091  26.445  0.00  0.00    +0.004 A 
ATOM     51  C   UNL     1       6.076  -5.463  26.672  0.00  0.00    +0.000 A 
ATOM     52  C   UNL     1       5.235  -6.351  26.002  0.00  0.00    +0.000 A 
ATOM     53  C   UNL     1       4.287  -5.867  25.102  0.00  0.00    +0.000 A 
ATOM     54  C   UNL     1       4.181  -4.496  24.867  0.00  0.00    +0.004 A 
ENDBRANCH  48  49
ENDBRANCH   1  48
TORSDOF 19
ENDMDL
MODEL 4
REMARK VINA RESULT:      -6.1      1.998      3.991
REMARK  Name = 
REMARK  24 active torsions:
REMARK  status: ('A' for Active; 'I' for Inactive)
REMARK    1  A    between atoms: C_1  and  C_2
REMARK    2  A    between atoms: C_2  and  C_3
REMARK    3  A    between atoms: C_2  and  C_4
REMARK    4  A    between atoms: C_6  and  C_9
REMARK    5  A    between atoms: C_9  and  N_10
REMARK    6  A    between atoms: N_10  and  C_11
REMARK    7  A    between atoms: N_14  and  C_15
REMARK    8  A    between atoms: C_15  and  C_16
REMARK    9  A    between atoms: C_15  and  C_19
REMARK   10  A    between atoms: C_16  and  C_17
REMARK   11  A    between atoms: C_16  and  C_18
REMARK   12  A    between atoms: N_21  and  C_22
REMARK   13  A    between atoms: C_22  and  C_24
REMARK   14  A    between atoms: C_22  and  C_31
REMARK   15  A    between atoms: C_24  and  C_25
REMARK   16  A    between atoms: C_31  and  C_32
REMARK   17  A    between atoms: C_32  and  C_33
REMARK   18  A    between atoms: C_32  and  O_52
REMARK   19  A    between atoms: C_33  and  C_35
REMARK   20  A    between atoms: C_33  and  N_42
REMARK   21  A    between atoms: C_35  and  C_36
REMARK   22  A    between atoms: C_43  and  O_45
REMARK   23  A    between atoms: O_45  and  C_46
REMARK   24  A    between atoms: C_46  and  C_47
REMARK                            x       y       z     vdW  Elec       q    Type
REMARK                         _______ _______ _______ _____ _____    ______ ____
ROOT
ATOM      1  C   UNL     1       8.228  -3.242  24.185  0.00  0.00    +0.080 C 
ENDROOT
BRANCH   1   3
ATOM      2  C   UNL     1       6.629  -1.448  24.865  0.00  0.00    +0.234 C 
ATOM      3  N   UNL     1       7.556  -2.421  25.180  0.00  0.00    -0.311 N 
ATOM      4  H   UNL     1       7.901  -2.422  26.132  0.00  0.00    +0.149 HD
ATOM      5  O   UNL     1       6.238  -1.250  23.719  0.00  0.00    -0.274 OA
BRANCH   2   6
ATOM      6  C   UNL     1       6.182  -0.589  26.076  0.00  0.00    +0.163 C 
BRANCH   6   9
ATOM      7  N   UNL     1       5.231   2.945  25.338  0.00  0.00    -0.283 N 
ATOM      8  C   UNL     1       5.978   1.923  25.920  0.00  0.00    +0.303 C 
ATOM      9  N   UNL     1       5.523   0.658  25.628  0.00  0.00    -0.288 N 
ATOM     10  H   UNL     1       4.777   0.544  24.971  0.00  0.00    +0.151 HD
ATOM     11  O   UNL     1       6.965   2.113  26.616  0.00  0.00    -0.253 OA
ATOM     12  C   UNL     1       4.042   2.742  24.512  0.00  0.00    +0.134 C 
BRANCH   7  13
ATOM     13  C   UNL     1       5.553   4.337  25.679  0.00  0.00    +0.164 C 
BRANCH  13  17
ATOM     14  C   UNL     1       8.444   5.763  23.966  0.00  0.00    +0.081 A 
ATOM     15  S   UNL     1       7.501   5.903  22.530  0.00  0.00    -0.080 S 
ATOM     16  C   UNL     1       6.150   5.256  23.353  0.00  0.00    +0.071 A 
ATOM     17  C   UNL     1       6.462   5.009  24.676  0.00  0.00    +0.066 A 
ATOM     18  N   UNL     1       7.782   5.325  25.022  0.00  0.00    -0.247 NA
BRANCH  14  20
ATOM     19  C   UNL     1      10.431   6.726  25.195  0.00  0.00    +0.014 C 
ATOM     20  C   UNL     1       9.926   6.079  23.906  0.00  0.00    +0.038 C 
ATOM     21  C   UNL     1      10.737   4.820  23.586  0.00  0.00    +0.014 C 
ENDBRANCH  14  20
ENDBRANCH  13  17
ENDBRANCH   7  13
ENDBRANCH   6   9
BRANCH   6  22
ATOM     22  C   UNL     1       5.247  -1.437  26.983  0.00  0.00    +0.012 C 
ATOM     23  C   UNL     1       4.055  -2.042  26.225  0.00  0.00    +0.009 C 
ATOM     24  C   UNL     1       4.746  -0.640  28.191  0.00  0.00    +0.009 C 
ENDBRANCH   6  22
ENDBRANCH   2   6
ENDBRANCH   1   3
BRANCH   1  25
ATOM     25  C   UNL     1       8.191  -4.716  24.629  0.00  0.00    +0.055 C 
BRANCH  25  26
ATOM     26  C   UNL     1       7.316  -5.001  25.871  0.00  0.00    +0.137 C 
BRANCH  26  27
ATOM     27  O   UNL     1       8.146  -5.579  26.888  0.00  0.00    -0.390 OA
ATOM     28  H   UNL     1       8.696  -6.273  26.479  0.00  0.00    +0.210 HD
ENDBRANCH  26  27
BRANCH  26  29
ATOM     29  C   UNL     1       6.039  -5.856  25.620  0.00  0.00    +0.109 C 
BRANCH  29  30
ATOM     30  N   UNL     1       5.058  -5.135  24.806  0.00  0.00    -0.275 N 
ATOM     31  H   UNL     1       4.420  -4.491  25.260  0.00  0.00    +0.152 HD
ATOM     32  C   UNL     1       4.826  -5.458  23.505  0.00  0.00    +0.401 C 
ATOM     33  O   UNL     1       5.476  -6.286  22.874  0.00  0.00    -0.226 OA
BRANCH  32  34
ATOM     34  O   UNL     1       3.778  -4.756  23.002  0.00  0.00    -0.445 OA
BRANCH  34  35
ATOM     35  C   UNL     1       2.530  -4.942  23.687  0.00  0.00    +0.278 C 
BRANCH  35  36
ATOM     36  C   UNL     1       2.044  -6.323  23.404  0.00  0.00    +0.046 A 
ATOM     37  S   UNL     1       2.000  -7.532  24.623  0.00  0.00    -0.077 S 
ATOM     38  C   UNL     1       1.317  -8.627  23.495  0.00  0.00    +0.156 A 
ATOM     39  N   UNL     1       1.108  -8.157  22.285  0.00  0.00    -0.255 NA
ATOM     40  C   UNL     1       1.522  -6.839  22.232  0.00  0.00    +0.125 A 
ENDBRANCH  35  36
ENDBRANCH  34  35
ENDBRANCH  32  34
ENDBRANCH  29  30
BRANCH  29  41
ATOM     41  C   UNL     1       5.379  -6.480  26.879  0.00  0.00    +0.060 C 
BRANCH  41  42
ATOM     42  C   UNL     1       4.556  -5.587  27.780  0.00  0.00    -0.046 A 
ATOM     43  C   UNL     1       3.176  -5.462  27.568  0.00  0.00    +0.004 A 
ATOM     44  C   UNL     1       2.405  -4.606  28.358  0.00  0.00    +0.000 A 
ATOM     45  C   UNL     1       3.003  -3.863  29.372  0.00  0.00    +0.000 A 
ATOM     46  C   UNL     1       4.375  -3.972  29.592  0.00  0.00    +0.000 A 
ATOM     47  C   UNL     1       5.147  -4.822  28.796  0.00  0.00    +0.004 A 
ENDBRANCH  41  42
ENDBRANCH  29  41
ENDBRANCH  26  29
ENDBRANCH  25  26
ENDBRANCH   1  25
BRANCH   1  48
ATOM     48  C   UNL     1       9.671  -2.712  24.002  0.00  0.00    +0.057 C 
BRANCH  48  49
ATOM     49  C   UNL     1       9.783  -1.344  23.380  0.00  0.00    -0.046 A 
ATOM     50  C   UNL     1       9.425  -1.150  22.038  0.00  0.00    +0.004 A 
ATOM     51  C   UNL     1       9.556   0.106  21.445  0.00  0.00    +0.000 A 
ATOM     52  C   UNL     1      10.041   1.181  22.188  0.00  0.00    +0.000 A 
ATOM     53  C   UNL     1      10.401   0.999  23.521  0.00  0.00    +0.000 A 
ATOM     54  C   UNL     1      10.280  -0.259  24.113  0.00  0.00    +0.004 A 
ENDBRANCH  48  49
ENDBRANCH   1  48
TORSDOF 19
ENDMDL
MODEL 5
REMARK VINA RESULT:      -6.1      2.805      6.103
REMARK  Name = 
REMARK  24 active torsions:
REMARK  status: ('A' for Active; 'I' for Inactive)
REMARK    1  A    between atoms: C_1  and  C_2
REMARK    2  A    between atoms: C_2  and  C_3
REMARK    3  A    between atoms: C_2  and  C_4
REMARK    4  A    between atoms: C_6  and  C_9
REMARK    5  A    between atoms: C_9  and  N_10
REMARK    6  A    between atoms: N_10  and  C_11
REMARK    7  A    between atoms: N_14  and  C_15
REMARK    8  A    between atoms: C_15  and  C_16
REMARK    9  A    between atoms: C_15  and  C_19
REMARK   10  A    between atoms: C_16  and  C_17
REMARK   11  A    between atoms: C_16  and  C_18
REMARK   12  A    between atoms: N_21  and  C_22
REMARK   13  A    between atoms: C_22  and  C_24
REMARK   14  A    between atoms: C_22  and  C_31
REMARK   15  A    between atoms: C_24  and  C_25
REMARK   16  A    between atoms: C_31  and  C_32
REMARK   17  A    between atoms: C_32  and  C_33
REMARK   18  A    between atoms: C_32  and  O_52
REMARK   19  A    between atoms: C_33  and  C_35
REMARK   20  A    between atoms: C_33  and  N_42
REMARK   21  A    between atoms: C_35  and  C_36
REMARK   22  A    between atoms: C_43  and  O_45
REMARK   23  A    between atoms: O_45  and  C_46
REMARK   24  A    between atoms: C_46  and  C_47
REMARK                            x       y       z     vdW  Elec       q    Type
REMARK                         _______ _______ _______ _____ _____    ______ ____
ROOT
ATOM      1  C   UNL     1       7.923  -2.597  24.690  0.00  0.00    +0.080 C 
ENDROOT
BRANCH   1   3
ATOM      2  C   UNL     1       7.110  -0.388  23.859  0.00  0.00    +0.234 C 
ATOM      3  N   UNL     1       8.136  -1.244  24.201  0.00  0.00    -0.311 N 
ATOM      4  H   UNL     1       9.068  -0.963  23.922  0.00  0.00    +0.149 HD
ATOM      5  O   UNL     1       5.926  -0.675  24.013  0.00  0.00    -0.274 OA
BRANCH   2   6
ATOM      6  C   UNL     1       7.584   0.934  23.201  0.00  0.00    +0.163 C 
BRANCH   6   9
ATOM      7  N   UNL     1       5.770   4.149  23.757  0.00  0.00    -0.283 N 
ATOM      8  C   UNL     1       6.504   3.210  23.035  0.00  0.00    +0.303 C 
ATOM      9  N   UNL     1       6.858   2.096  23.760  0.00  0.00    -0.288 N 
ATOM     10  H   UNL     1       6.507   1.984  24.690  0.00  0.00    +0.151 HD
ATOM     11  O   UNL     1       6.801   3.338  21.855  0.00  0.00    -0.253 OA
ATOM     12  C   UNL     1       5.414   4.023  25.168  0.00  0.00    +0.134 C 
BRANCH   7  13
ATOM     13  C   UNL     1       5.443   5.431  23.117  0.00  0.00    +0.164 C 
BRANCH  13  17
ATOM     14  C   UNL     1       2.168   4.493  21.807  0.00  0.00    +0.081 A 
ATOM     15  S   UNL     1       1.810   6.161  21.556  0.00  0.00    -0.080 S 
ATOM     16  C   UNL     1       3.357   6.582  22.151  0.00  0.00    +0.071 A 
ATOM     17  C   UNL     1       4.080   5.448  22.465  0.00  0.00    +0.066 A 
ATOM     18  N   UNL     1       3.390   4.249  22.243  0.00  0.00    -0.247 NA
BRANCH  14  20
ATOM     19  C   UNL     1       1.478   2.415  20.546  0.00  0.00    +0.014 C 
ATOM     20  C   UNL     1       1.076   3.465  21.580  0.00  0.00    +0.038 C 
ATOM     21  C   UNL     1       0.678   2.795  22.898  0.00  0.00    +0.014 C 
ENDBRANCH  14  20
ENDBRANCH  13  17
ENDBRANCH   7  13
ENDBRANCH   6   9
BRANCH   6  22
ATOM     22  C   UNL     1       9.120   1.072  23.392  0.00  0.00    +0.012 C 
ATOM     23  C   UNL     1       9.505   2.054  24.510  0.00  0.00    +0.009 C 
ATOM     24  C   UNL     1       9.825   1.465  22.090  0.00  0.00    +0.009 C 
ENDBRANCH   6  22
ENDBRANCH   2   6
ENDBRANCH   1   3
BRANCH   1  25
ATOM     25  C   UNL     1       8.484  -2.719  26.119  0.00  0.00    +0.055 C 
BRANCH  25  26
ATOM     26  C   UNL     1       7.904  -3.887  26.949  0.00  0.00    +0.137 C 
BRANCH  26  27
ATOM     27  O   UNL     1       8.740  -5.037  26.760  0.00  0.00    -0.390 OA
ATOM     28  H   UNL     1       8.868  -5.470  27.624  0.00  0.00    +0.210 HD
ENDBRANCH  26  27
BRANCH  26  29
ATOM     29  C   UNL     1       6.404  -4.222  26.694  0.00  0.00    +0.109 C 
BRANCH  29  30
ATOM     30  N   UNL     1       5.589  -3.990  27.888  0.00  0.00    -0.275 N 
ATOM     31  H   UNL     1       5.579  -4.691  28.620  0.00  0.00    +0.152 HD
ATOM     32  C   UNL     1       4.680  -2.979  27.953  0.00  0.00    +0.401 C 
ATOM     33  O   UNL     1       4.539  -2.122  27.087  0.00  0.00    -0.226 OA
BRANCH  32  34
ATOM     34  O   UNL     1       3.945  -3.051  29.093  0.00  0.00    -0.445 OA
BRANCH  34  35
ATOM     35  C   UNL     1       2.526  -3.163  28.901  0.00  0.00    +0.278 C 
BRANCH  35  36
ATOM     36  C   UNL     1       2.242  -4.492  28.285  0.00  0.00    +0.046 A 
ATOM     37  S   UNL     1       2.614  -5.959  29.097  0.00  0.00    -0.077 S 
ATOM     38  C   UNL     1       1.946  -6.838  27.785  0.00  0.00    +0.156 A 
ATOM     39  N   UNL     1       1.456  -6.122  26.797  0.00  0.00    -0.255 NA
ATOM     40  C   UNL     1       1.624  -4.780  27.083  0.00  0.00    +0.125 A 
ENDBRANCH  35  36
ENDBRANCH  34  35
ENDBRANCH  32  34
ENDBRANCH  29  30
BRANCH  29  41
ATOM     41  C   UNL     1       6.114  -5.615  26.074  0.00  0.00    +0.060 C 
BRANCH  41  42
ATOM     42  C   UNL     1       4.966  -5.746  25.098  0.00  0.00    -0.046 A 
ATOM     43  C   UNL     1       4.372  -4.595  24.560  0.00  0.00    +0.004 A 
ATOM     44  C   UNL     1       3.281  -4.691  23.694  0.00  0.00    +0.000 A 
ATOM     45  C   UNL     1       2.768  -5.940  23.353  0.00  0.00    +0.000 A 
ATOM     46  C   UNL     1       3.343  -7.092  23.883  0.00  0.00    +0.000 A 
ATOM     47  C   UNL     1       4.430  -6.995  24.756  0.00  0.00    +0.004 A 
ENDBRANCH  41  42
ENDBRANCH  29  41
ENDBRANCH  26  29
ENDBRANCH  25  26
ENDBRANCH   1  25
BRANCH   1  48
ATOM     48  C   UNL     1       8.591  -3.587  23.703  0.00  0.00    +0.057 C 
BRANCH  48  49
ATOM     49  C   UNL     1       7.643  -4.350  22.813  0.00  0.00    -0.046 A 
ATOM     50  C   UNL     1       7.678  -5.751  22.784  0.00  0.00    +0.004 A 
ATOM     51  C   UNL     1       6.826  -6.464  21.940  0.00  0.00    +0.000 A 
ATOM     52  C   UNL     1       5.929  -5.783  21.119  0.00  0.00    +0.000 A 
ATOM     53  C   UNL     1       5.885  -4.391  21.140  0.00  0.00    +0.000 A 
ATOM     54  C   UNL     1       6.743  -3.676  21.976  0.00  0.00    +0.004 A 
ENDBRANCH  48  49
ENDBRANCH   1  48
TORSDOF 19
ENDMDL
MODEL 6
REMARK VINA RESULT:      -6.0      2.953      6.262
REMARK  Name = 
REMARK  24 active torsions:
REMARK  status: ('A' for Active; 'I' for Inactive)
REMARK    1  A    between atoms: C_1  and  C_2
REMARK    2  A    between atoms: C_2  and  C_3
REMARK    3  A    between atoms: C_2  and  C_4
REMARK    4  A    between atoms: C_6  and  C_9
REMARK    5  A    between atoms: C_9  and  N_10
REMARK    6  A    between atoms: N_10  and  C_11
REMARK    7  A    between atoms: N_14  and  C_15
REMARK    8  A    between atoms: C_15  and  C_16
REMARK    9  A    between atoms: C_15  and  C_19
REMARK   10  A    between atoms: C_16  and  C_17
REMARK   11  A    between atoms: C_16  and  C_18
REMARK   12  A    between atoms: N_21  and  C_22
REMARK   13  A    between atoms: C_22  and  C_24
REMARK   14  A    between atoms: C_22  and  C_31
REMARK   15  A    between atoms: C_24  and  C_25
REMARK   16  A    between atoms: C_31  and  C_32
REMARK   17  A    between atoms: C_32  and  C_33
REMARK   18  A    between atoms: C_32  and  O_52
REMARK   19  A    between atoms: C_33  and  C_35
REMARK   20  A    between atoms: C_33  and  N_42
REMARK   21  A    between atoms: C_35  and  C_36
REMARK   22  A    between atoms: C_43  and  O_45
REMARK   23  A    between atoms: O_45  and  C_46
REMARK   24  A    between atoms: C_46  and  C_47
REMARK                            x       y       z     vdW  Elec       q    Type
REMARK                         _______ _______ _______ _____ _____    ______ ____
ROOT
ATOM      1  C   UNL     1       8.776   2.017  22.056  0.00  0.00    +0.080 C 
ENDROOT
BRANCH   1   3
ATOM      2  C   UNL     1       6.654   3.310  22.300  0.00  0.00    +0.234 C 
ATOM      3  N   UNL     1       7.371   2.138  22.415  0.00  0.00    -0.311 N 
ATOM      4  H   UNL     1       6.933   1.393  22.942  0.00  0.00    +0.149 HD
ATOM      5  O   UNL     1       7.125   4.332  21.810  0.00  0.00    -0.274 OA
BRANCH   2   6
ATOM      6  C   UNL     1       5.228   3.239  22.906  0.00  0.00    +0.163 C 
BRANCH   6   9
ATOM      7  N   UNL     1       4.536   2.423  26.483  0.00  0.00    -0.283 N 
ATOM      8  C   UNL     1       4.232   2.589  25.134  0.00  0.00    +0.303 C 
ATOM      9  N   UNL     1       5.284   3.043  24.372  0.00  0.00    -0.288 N 
ATOM     10  H   UNL     1       6.189   3.133  24.789  0.00  0.00    +0.151 HD
ATOM     11  O   UNL     1       3.138   2.341  24.647  0.00  0.00    -0.253 OA
ATOM     12  C   UNL     1       5.832   2.723  27.089  0.00  0.00    +0.134 C 
BRANCH   7  13
ATOM     13  C   UNL     1       3.456   2.059  27.410  0.00  0.00    +0.164 C 
BRANCH  13  17
ATOM     14  C   UNL     1       2.510  -1.465  27.334  0.00  0.00    +0.081 A 
ATOM     15  S   UNL     1       3.883  -1.837  28.308  0.00  0.00    -0.080 S 
ATOM     16  C   UNL     1       4.300  -0.179  28.353  0.00  0.00    +0.071 A 
ATOM     17  C   UNL     1       3.363   0.574  27.674  0.00  0.00    +0.066 A 
ATOM     18  N   UNL     1       2.324  -0.177  27.108  0.00  0.00    -0.247 NA
BRANCH  14  20
ATOM     19  C   UNL     1       0.456  -2.099  26.006  0.00  0.00    +0.014 C 
ATOM     20  C   UNL     1       1.677  -2.602  26.773  0.00  0.00    +0.038 C 
ATOM     21  C   UNL     1       2.530  -3.513  25.887  0.00  0.00    +0.014 C 
ENDBRANCH  14  20
ENDBRANCH  13  17
ENDBRANCH   7  13
ENDBRANCH   6   9
BRANCH   6  22
ATOM     22  C   UNL     1       4.452   4.531  22.530  0.00  0.00    +0.012 C 
ATOM     23  C   UNL     1       4.381   5.551  23.678  0.00  0.00    +0.009 C 
ATOM     24  C   UNL     1       3.040   4.222  22.022  0.00  0.00    +0.009 C 
ENDBRANCH   6  22
ENDBRANCH   2   6
ENDBRANCH   1   3
BRANCH   1  25
ATOM     25  C   UNL     1       9.005   0.679  21.330  0.00  0.00    +0.055 C 
BRANCH  25  26
ATOM     26  C   UNL     1       9.417  -0.497  22.245  0.00  0.00    +0.137 C 
BRANCH  26  27
ATOM     27  O   UNL     1      10.416  -1.271  21.568  0.00  0.00    -0.390 OA
ATOM     28  H   UNL     1       9.998  -2.083  21.227  0.00  0.00    +0.210 HD
ENDBRANCH  26  27
BRANCH  26  29
ATOM     29  C   UNL     1       8.253  -1.393  22.764  0.00  0.00    +0.109 C 
BRANCH  29  30
ATOM     30  N   UNL     1       8.115  -1.310  24.220  0.00  0.00    -0.275 N 
ATOM     31  H   UNL     1       8.664  -1.932  24.802  0.00  0.00    +0.152 HD
ATOM     32  C   UNL     1       7.125  -0.585  24.809  0.00  0.00    +0.401 C 
ATOM     33  O   UNL     1       6.342   0.136  24.198  0.00  0.00    -0.226 OA
BRANCH  32  34
ATOM     34  O   UNL     1       7.109  -0.775  26.153  0.00  0.00    -0.445 OA
BRANCH  34  35
ATOM     35  C   UNL     1       8.132  -1.645  26.662  0.00  0.00    +0.278 C 
BRANCH  35  36
ATOM     36  C   UNL     1       7.662  -3.053  26.517  0.00  0.00    +0.046 A 
ATOM     37  S   UNL     1       8.763  -4.367  26.428  0.00  0.00    -0.077 S 
ATOM     38  C   UNL     1       7.440  -5.454  26.347  0.00  0.00    +0.156 A 
ATOM     39  N   UNL     1       6.243  -4.914  26.395  0.00  0.00    -0.255 NA
ATOM     40  C   UNL     1       6.368  -3.541  26.494  0.00  0.00    +0.125 A 
ENDBRANCH  35  36
ENDBRANCH  34  35
ENDBRANCH  32  34
ENDBRANCH  29  30
BRANCH  29  41
ATOM     41  C   UNL     1       8.262  -2.868  22.282  0.00  0.00    +0.060 C 
BRANCH  41  42
ATOM     42  C   UNL     1       7.057  -3.732  22.576  0.00  0.00    -0.046 A 
ATOM     43  C   UNL     1       7.196  -5.125  22.642  0.00  0.00    +0.004 A 
ATOM     44  C   UNL     1       6.087  -5.946  22.866  0.00  0.00    +0.000 A 
ATOM     45  C   UNL     1       4.824  -5.384  23.026  0.00  0.00    +0.000 A 
ATOM     46  C   UNL     1       4.668  -4.000  22.956  0.00  0.00    +0.000 A 
ATOM     47  C   UNL     1       5.776  -3.181  22.725  0.00  0.00    +0.004 A 
ENDBRANCH  41  42
ENDBRANCH  29  41
ENDBRANCH  26  29
ENDBRANCH  25  26
ENDBRANCH   1  25
BRANCH   1  48
ATOM     48  C   UNL     1       9.626   2.148  23.343  0.00  0.00    +0.057 C 
BRANCH  48  49
ATOM     49  C   UNL     1      10.228   3.509  23.583  0.00  0.00    -0.046 A 
ATOM     50  C   UNL     1      11.563   3.760  23.236  0.00  0.00    +0.004 A 
ATOM     51  C   UNL     1      12.137   5.007  23.485  0.00  0.00    +0.000 A 
ATOM     52  C   UNL     1      11.382   6.016  24.079  0.00  0.00    +0.000 A 
ATOM     53  C   UNL     1      10.055   5.778  24.429  0.00  0.00    +0.000 A 
ATOM     54  C   UNL     1       9.482   4.528  24.190  0.00  0.00    +0.004 A 
ENDBRANCH  48  49
ENDBRANCH   1  48
TORSDOF 19
ENDMDL
MODEL 7
REMARK VINA RESULT:      -6.0      2.763      7.563
REMARK  Name = 
REMARK  24 active torsions:
REMARK  status: ('A' for Active; 'I' for Inactive)
REMARK    1  A    between atoms: C_1  and  C_2
REMARK    2  A    between atoms: C_2  and  C_3
REMARK    3  A    between atoms: C_2  and  C_4
REMARK    4  A    between atoms: C_6  and  C_9
REMARK    5  A    between atoms: C_9  and  N_10
REMARK    6  A    between atoms: N_10  and  C_11
REMARK    7  A    between atoms: N_14  and  C_15
REMARK    8  A    between atoms: C_15  and  C_16
REMARK    9  A    between atoms: C_15  and  C_19
REMARK   10  A    between atoms: C_16  and  C_17
REMARK   11  A    between atoms: C_16  and  C_18
REMARK   12  A    between atoms: N_21  and  C_22
REMARK   13  A    between atoms: C_22  and  C_24
REMARK   14  A    between atoms: C_22  and  C_31
REMARK   15  A    between atoms: C_24  and  C_25
REMARK   16  A    between atoms: C_31  and  C_32
REMARK   17  A    between atoms: C_32  and  C_33
REMARK   18  A    between atoms: C_32  and  O_52
REMARK   19  A    between atoms: C_33  and  C_35
REMARK   20  A    between atoms: C_33  and  N_42
REMARK   21  A    between atoms: C_35  and  C_36
REMARK   22  A    between atoms: C_43  and  O_45
REMARK   23  A    between atoms: O_45  and  C_46
REMARK   24  A    between atoms: C_46  and  C_47
REMARK                            x       y       z     vdW  Elec       q    Type
REMARK                         _______ _______ _______ _____ _____    ______ ____
ROOT
ATOM      1  C   UNL     1       8.340  -1.508  25.560  0.00  0.00    +0.080 C 
ENDROOT
BRANCH   1   3
ATOM      2  C   UNL     1       7.442   0.040  27.301  0.00  0.00    +0.234 C 
ATOM      3  N   UNL     1       7.314  -0.631  26.102  0.00  0.00    -0.311 N 
ATOM      4  H   UNL     1       6.390  -0.641  25.689  0.00  0.00    +0.149 HD
ATOM      5  O   UNL     1       8.468   0.011  27.972  0.00  0.00    -0.274 OA
BRANCH   2   6
ATOM      6  C   UNL     1       6.152   0.774  27.752  0.00  0.00    +0.163 C 
BRANCH   6   9
ATOM      7  N   UNL     1       3.335  -1.648  28.115  0.00  0.00    -0.283 N 
ATOM      8  C   UNL     1       4.135  -0.716  27.458  0.00  0.00    +0.303 C 
ATOM      9  N   UNL     1       5.137  -0.187  28.238  0.00  0.00    -0.288 N 
ATOM     10  H   UNL     1       5.288  -0.552  29.157  0.00  0.00    +0.151 HD
ATOM     11  O   UNL     1       3.987  -0.396  26.287  0.00  0.00    -0.253 OA
ATOM     12  C   UNL     1       3.486  -2.037  29.515  0.00  0.00    +0.134 C 
BRANCH   7  13
ATOM     13  C   UNL     1       2.160  -2.187  27.415  0.00  0.00    +0.164 C 
BRANCH  13  17
ATOM     14  C   UNL     1       3.583  -5.044  25.644  0.00  0.00    +0.081 A 
ATOM     15  S   UNL     1       2.433  -4.811  24.380  0.00  0.00    -0.080 S 
ATOM     16  C   UNL     1       1.793  -3.461  25.212  0.00  0.00    +0.071 A 
ATOM     17  C   UNL     1       2.504  -3.226  26.372  0.00  0.00    +0.066 A 
ATOM     18  N   UNL     1       3.546  -4.133  26.600  0.00  0.00    -0.247 NA
BRANCH  14  20
ATOM     19  C   UNL     1       4.720  -6.760  24.179  0.00  0.00    +0.014 C 
ATOM     20  C   UNL     1       4.481  -6.266  25.604  0.00  0.00    +0.038 C 
ATOM     21  C   UNL     1       5.812  -5.984  26.304  0.00  0.00    +0.014 C 
ENDBRANCH  14  20
ENDBRANCH  13  17
ENDBRANCH   7  13
ENDBRANCH   6   9
BRANCH   6  22
ATOM     22  C   UNL     1       6.519   1.820  28.841  0.00  0.00    +0.012 C 
ATOM     23  C   UNL     1       6.005   1.443  30.240  0.00  0.00    +0.009 C 
ATOM     24  C   UNL     1       6.034   3.225  28.470  0.00  0.00    +0.009 C 
ENDBRANCH   6  22
ENDBRANCH   2   6
ENDBRANCH   1   3
BRANCH   1  25
ATOM     25  C   UNL     1       8.776  -0.991  24.177  0.00  0.00    +0.055 C 
BRANCH  25  26
ATOM     26  C   UNL     1       9.828   0.142  24.206  0.00  0.00    +0.137 C 
BRANCH  26  27
ATOM     27  O   UNL     1      10.429   0.168  25.508  0.00  0.00    -0.390 OA
ATOM     28  H   UNL     1      10.611  -0.749  25.782  0.00  0.00    +0.210 HD
ENDBRANCH  26  27
BRANCH  26  29
ATOM     29  C   UNL     1       9.319   1.551  23.781  0.00  0.00    +0.109 C 
BRANCH  29  30
ATOM     30  N   UNL     1       8.000   1.481  23.149  0.00  0.00    -0.275 N 
ATOM     31  H   UNL     1       7.931   1.164  22.189  0.00  0.00    +0.152 HD
ATOM     32  C   UNL     1       6.895   2.028  23.726  0.00  0.00    +0.401 C 
ATOM     33  O   UNL     1       6.878   2.521  24.850  0.00  0.00    -0.226 OA
BRANCH  32  34
ATOM     34  O   UNL     1       5.824   1.968  22.894  0.00  0.00    -0.445 OA
BRANCH  34  35
ATOM     35  C   UNL     1       5.266   3.237  22.520  0.00  0.00    +0.278 C 
BRANCH  35  36
ATOM     36  C   UNL     1       3.823   3.241  22.897  0.00  0.00    +0.046 A 
ATOM     37  S   UNL     1       2.584   3.396  21.718  0.00  0.00    -0.077 S 
ATOM     38  C   UNL     1       1.406   3.246  22.955  0.00  0.00    +0.156 A 
ATOM     39  N   UNL     1       1.866   3.077  24.175  0.00  0.00    -0.255 NA
ATOM     40  C   UNL     1       3.248   3.072  24.142  0.00  0.00    +0.125 A 
ENDBRANCH  35  36
ENDBRANCH  34  35
ENDBRANCH  32  34
ENDBRANCH  29  30
BRANCH  29  41
ATOM     41  C   UNL     1      10.304   2.405  22.938  0.00  0.00    +0.060 C 
BRANCH  41  42
ATOM     42  C   UNL     1      10.693   3.774  23.448  0.00  0.00    -0.046 A 
ATOM     43  C   UNL     1       9.724   4.603  24.032  0.00  0.00    +0.004 A 
ATOM     44  C   UNL     1      10.051   5.889  24.468  0.00  0.00    +0.000 A 
ATOM     45  C   UNL     1      11.352   6.365  24.326  0.00  0.00    +0.000 A 
ATOM     46  C   UNL     1      12.325   5.555  23.743  0.00  0.00    +0.000 A 
ATOM     47  C   UNL     1      11.995   4.271  23.300  0.00  0.00    +0.004 A 
ENDBRANCH  41  42
ENDBRANCH  29  41
ENDBRANCH  26  29
ENDBRANCH  25  26
ENDBRANCH   1  25
BRANCH   1  48
ATOM     48  C   UNL     1       7.777  -2.949  25.505  0.00  0.00    +0.057 C 
BRANCH  48  49
ATOM     49  C   UNL     1       7.164  -3.353  24.188  0.00  0.00    -0.046 A 
ATOM     50  C   UNL     1       5.935  -2.812  23.788  0.00  0.00    +0.004 A 
ATOM     51  C   UNL     1       5.345  -3.204  22.586  0.00  0.00    +0.000 A 
ATOM     52  C   UNL     1       5.980  -4.139  21.771  0.00  0.00    +0.000 A 
ATOM     53  C   UNL     1       7.202  -4.685  22.160  0.00  0.00    +0.000 A 
ATOM     54  C   UNL     1       7.788  -4.301  23.366  0.00  0.00    +0.004 A 
ENDBRANCH  48  49
ENDBRANCH   1  48
TORSDOF 19
ENDMDL
MODEL 8
REMARK VINA RESULT:      -5.9      2.850      6.106
REMARK  Name = 
REMARK  24 active torsions:
REMARK  status: ('A' for Active; 'I' for Inactive)
REMARK    1  A    between atoms: C_1  and  C_2
REMARK    2  A    between atoms: C_2  and  C_3
REMARK    3  A    between atoms: C_2  and  C_4
REMARK    4  A    between atoms: C_6  and  C_9
REMARK    5  A    between atoms: C_9  and  N_10
REMARK    6  A    between atoms: N_10  and  C_11
REMARK    7  A    between atoms: N_14  and  C_15
REMARK    8  A    between atoms: C_15  and  C_16
REMARK    9  A    between atoms: C_15  and  C_19
REMARK   10  A    between atoms: C_16  and  C_17
REMARK   11  A    between atoms: C_16  and  C_18
REMARK   12  A    between atoms: N_21  and  C_22
REMARK   13  A    between atoms: C_22  and  C_24
REMARK   14  A    between atoms: C_22  and  C_31
REMARK   15  A    between atoms: C_24  and  C_25
REMARK   16  A    between atoms: C_31  and  C_32
REMARK   17  A    between atoms: C_32  and  C_33
REMARK   18  A    between atoms: C_32  and  O_52
REMARK   19  A    between atoms: C_33  and  C_35
REMARK   20  A    between atoms: C_33  and  N_42
REMARK   21  A    between atoms: C_35  and  C_36
REMARK   22  A    between atoms: C_43  and  O_45
REMARK   23  A    between atoms: O_45  and  C_46
REMARK   24  A    between atoms: C_46  and  C_47
REMARK                            x       y       z     vdW  Elec       q    Type
REMARK                         _______ _______ _______ _____ _____    ______ ____
ROOT
ATOM      1  C   UNL     1       6.084  -2.426  26.579  0.00  0.00    +0.080 C 
ENDROOT
BRANCH   1   3
ATOM      2  C   UNL     1       7.378  -0.391  27.225  0.00  0.00    +0.234 C 
ATOM      3  N   UNL     1       6.181  -1.031  26.979  0.00  0.00    -0.311 N 
ATOM      4  H   UNL     1       5.343  -0.544  27.270  0.00  0.00    +0.149 HD
ATOM      5  O   UNL     1       8.467  -0.929  27.050  0.00  0.00    -0.274 OA
BRANCH   2   6
ATOM      6  C   UNL     1       7.221   1.038  27.805  0.00  0.00    +0.163 C 
BRANCH   6   9
ATOM      7  N   UNL     1       5.658   3.809  25.851  0.00  0.00    -0.283 N 
ATOM      8  C   UNL     1       6.524   3.239  26.782  0.00  0.00    +0.303 C 
ATOM      9  N   UNL     1       6.378   1.879  26.926  0.00  0.00    -0.288 N 
ATOM     10  H   UNL     1       5.756   1.385  26.317  0.00  0.00    +0.151 HD
ATOM     11  O   UNL     1       7.359   3.873  27.411  0.00  0.00    -0.253 OA
ATOM     12  C   UNL     1       4.645   3.075  25.096  0.00  0.00    +0.134 C 
BRANCH   7  13
ATOM     13  C   UNL     1       5.642   5.271  25.705  0.00  0.00    +0.164 C 
BRANCH  13  17
ATOM     14  C   UNL     1       8.740   6.426  24.158  0.00  0.00    +0.081 A 
ATOM     15  S   UNL     1       7.972   6.366  22.615  0.00  0.00    -0.080 S 
ATOM     16  C   UNL     1       6.522   5.848  23.358  0.00  0.00    +0.071 A 
ATOM     17  C   UNL     1       6.674   5.790  24.729  0.00  0.00    +0.066 A 
ATOM     18  N   UNL     1       7.952   6.145  25.180  0.00  0.00    -0.247 NA
BRANCH  14  20
ATOM     19  C   UNL     1      10.686   7.036  25.650  0.00  0.00    +0.014 C 
ATOM     20  C   UNL     1      10.226   6.723  24.228  0.00  0.00    +0.038 C 
ATOM     21  C   UNL     1      11.039   5.565  23.644  0.00  0.00    +0.014 C 
ENDBRANCH  14  20
ENDBRANCH  13  17
ENDBRANCH   7  13
ENDBRANCH   6   9
BRANCH   6  22
ATOM     22  C   UNL     1       6.633   0.941  29.240  0.00  0.00    +0.012 C 
ATOM     23  C   UNL     1       5.176   1.420  29.331  0.00  0.00    +0.009 C 
ATOM     24  C   UNL     1       7.492   1.694  30.262  0.00  0.00    +0.009 C 
ENDBRANCH   6  22
ENDBRANCH   2   6
ENDBRANCH   1   3
BRANCH   1  25
ATOM     25  C   UNL     1       6.652  -2.591  25.157  0.00  0.00    +0.055 C 
BRANCH  25  26
ATOM     26  C   UNL     1       7.537  -3.842  24.950  0.00  0.00    +0.137 C 
BRANCH  26  27
ATOM     27  O   UNL     1       8.709  -3.708  25.766  0.00  0.00    -0.390 OA
ATOM     28  H   UNL     1       9.417  -3.312  25.226  0.00  0.00    +0.210 HD
ENDBRANCH  26  27
BRANCH  26  29
ATOM     29  C   UNL     1       7.903  -4.177  23.474  0.00  0.00    +0.109 C 
BRANCH  29  30
ATOM     30  N   UNL     1       8.054  -2.964  22.667  0.00  0.00    -0.275 N 
ATOM     31  H   UNL     1       7.326  -2.719  22.006  0.00  0.00    +0.152 HD
ATOM     32  C   UNL     1       9.229  -2.278  22.614  0.00  0.00    +0.401 C 
ATOM     33  O   UNL     1      10.210  -2.537  23.303  0.00  0.00    -0.226 OA
BRANCH  32  34
ATOM     34  O   UNL     1       9.175  -1.281  21.693  0.00  0.00    -0.445 OA
BRANCH  34  35
ATOM     35  C   UNL     1      10.152  -0.241  21.858  0.00  0.00    +0.278 C 
BRANCH  35  36
ATOM     36  C   UNL     1       9.551   0.833  22.702  0.00  0.00    +0.046 A 
ATOM     37  S   UNL     1       8.375   1.918  22.079  0.00  0.00    -0.077 S 
ATOM     38  C   UNL     1       8.254   2.653  23.623  0.00  0.00    +0.156 A 
ATOM     39  N   UNL     1       9.012   2.143  24.569  0.00  0.00    -0.255 NA
ATOM     40  C   UNL     1       9.753   1.101  24.043  0.00  0.00    +0.125 A 
ENDBRANCH  35  36
ENDBRANCH  34  35
ENDBRANCH  32  34
ENDBRANCH  29  30
BRANCH  29  41
ATOM     41  C   UNL     1       6.991  -5.215  22.766  0.00  0.00    +0.060 C 
BRANCH  41  42
ATOM     42  C   UNL     1       5.601  -5.448  23.314  0.00  0.00    -0.046 A 
ATOM     43  C   UNL     1       5.340  -6.582  24.097  0.00  0.00    +0.004 A 
ATOM     44  C   UNL     1       4.054  -6.841  24.575  0.00  0.00    +0.000 A 
ATOM     45  C   UNL     1       3.009  -5.970  24.277  0.00  0.00    +0.000 A 
ATOM     46  C   UNL     1       3.251  -4.842  23.495  0.00  0.00    +0.000 A 
ATOM     47  C   UNL     1       4.537  -4.587  23.011  0.00  0.00    +0.004 A 
ENDBRANCH  41  42
ENDBRANCH  29  41
ENDBRANCH  26  29
ENDBRANCH  25  26
ENDBRANCH   1  25
BRANCH   1  48
ATOM     48  C   UNL     1       4.603  -2.865  26.682  0.00  0.00    +0.057 C 
BRANCH  48  49
ATOM     49  C   UNL     1       4.372  -4.219  27.303  0.00  0.00    -0.046 A 
ATOM     50  C   UNL     1       5.454  -5.080  27.538  0.00  0.00    +0.004 A 
ATOM     51  C   UNL     1       5.246  -6.347  28.084  0.00  0.00    +0.000 A 
ATOM     52  C   UNL     1       3.956  -6.764  28.403  0.00  0.00    +0.000 A 
ATOM     53  C   UNL     1       2.873  -5.918  28.173  0.00  0.00    +0.000 A 
ATOM     54  C   UNL     1       3.078  -4.654  27.619  0.00  0.00    +0.004 A 
ENDBRANCH  48  49
ENDBRANCH   1  48
TORSDOF 19
ENDMDL
MODEL 9
REMARK VINA RESULT:      -5.9      2.680      8.056
REMARK  Name = 
REMARK  24 active torsions:
REMARK  status: ('A' for Active; 'I' for Inactive)
REMARK    1  A    between atoms: C_1  and  C_2
REMARK    2  A    between atoms: C_2  and  C_3
REMARK    3  A    between atoms: C_2  and  C_4
REMARK    4  A    between atoms: C_6  and  C_9
REMARK    5  A    between atoms: C_9  and  N_10
REMARK    6  A    between atoms: N_10  and  C_11
REMARK    7  A    between atoms: N_14  and  C_15
REMARK    8  A    between atoms: C_15  and  C_16
REMARK    9  A    between atoms: C_15  and  C_19
REMARK   10  A    between atoms: C_16  and  C_17
REMARK   11  A    between atoms: C_16  and  C_18
REMARK   12  A    between atoms: N_21  and  C_22
REMARK   13  A    between atoms: C_22  and  C_24
REMARK   14  A    between atoms: C_22  and  C_31
REMARK   15  A    between atoms: C_24  and  C_25
REMARK   16  A    between atoms: C_31  and  C_32
REMARK   17  A    between atoms: C_32  and  C_33
REMARK   18  A    between atoms: C_32  and  O_52
REMARK   19  A    between atoms: C_33  and  C_35
REMARK   20  A    between atoms: C_33  and  N_42
REMARK   21  A    between atoms: C_35  and  C_36
REMARK   22  A    between atoms: C_43  and  O_45
REMARK   23  A    between atoms: O_45  and  C_46
REMARK   24  A    between atoms: C_46  and  C_47
REMARK                            x       y       z     vdW  Elec       q    Type
REMARK                         _______ _______ _______ _____ _____    ______ ____
ROOT
ATOM      1  C   UNL     1       8.463   1.913  25.282  0.00  0.00    +0.080 C 
ENDROOT
BRANCH   1   3
ATOM      2  C   UNL     1       9.891  -0.003  24.561  0.00  0.00    +0.234 C 
ATOM      3  N   UNL     1       8.684   0.665  24.569  0.00  0.00    -0.311 N 
ATOM      4  H   UNL     1       7.992   0.352  23.900  0.00  0.00    +0.149 HD
ATOM      5  O   UNL     1      10.859   0.364  25.220  0.00  0.00    -0.274 OA
BRANCH   2   6
ATOM      6  C   UNL     1       9.934  -1.214  23.593  0.00  0.00    +0.163 C 
BRANCH   6   9
ATOM      7  N   UNL     1       8.753  -4.028  25.744  0.00  0.00    -0.283 N 
ATOM      8  C   UNL     1       8.747  -2.737  25.221  0.00  0.00    +0.303 C 
ATOM      9  N   UNL     1       9.764  -2.488  24.328  0.00  0.00    -0.288 N 
ATOM     10  H   UNL     1      10.364  -3.237  24.045  0.00  0.00    +0.151 HD
ATOM     11  O   UNL     1       7.910  -1.892  25.504  0.00  0.00    -0.253 OA
ATOM     12  C   UNL     1       9.748  -5.051  25.428  0.00  0.00    +0.134 C 
BRANCH   7  13
ATOM     13  C   UNL     1       7.787  -4.367  26.797  0.00  0.00    +0.164 C 
BRANCH  13  17
ATOM     14  C   UNL     1       5.270  -5.926  24.662  0.00  0.00    +0.081 A 
ATOM     15  S   UNL     1       4.564  -6.655  26.056  0.00  0.00    -0.080 S 
ATOM     16  C   UNL     1       5.736  -5.898  27.045  0.00  0.00    +0.071 A 
ATOM     17  C   UNL     1       6.569  -5.102  26.285  0.00  0.00    +0.066 A 
ATOM     18  N   UNL     1       6.278  -5.110  24.914  0.00  0.00    -0.247 NA
BRANCH  14  20
ATOM     19  C   UNL     1       3.276  -5.933  23.109  0.00  0.00    +0.014 C 
ATOM     20  C   UNL     1       4.747  -6.305  23.290  0.00  0.00    +0.038 C 
ATOM     21  C   UNL     1       5.600  -5.669  22.189  0.00  0.00    +0.014 C 
ENDBRANCH  14  20
ENDBRANCH  13  17
ENDBRANCH   7  13
ENDBRANCH   6   9
BRANCH   6  22
ATOM     22  C   UNL     1       8.842  -1.031  22.503  0.00  0.00    +0.012 C 
ATOM     23  C   UNL     1       8.286  -2.362  21.973  0.00  0.00    +0.009 C 
ATOM     24  C   UNL     1       9.338  -0.173  21.335  0.00  0.00    +0.009 C 
ENDBRANCH   6  22
ENDBRANCH   2   6
ENDBRANCH   1   3
BRANCH   1  25
ATOM     25  C   UNL     1       7.265   1.752  26.237  0.00  0.00    +0.055 C 
BRANCH  25  26
ATOM     26  C   UNL     1       6.747   3.068  26.861  0.00  0.00    +0.137 C 
BRANCH  26  27
ATOM     27  O   UNL     1       7.605   3.419  27.954  0.00  0.00    -0.390 OA
ATOM     28  H   UNL     1       8.474   3.675  27.594  0.00  0.00    +0.210 HD
ENDBRANCH  26  27
BRANCH  26  29
ATOM     29  C   UNL     1       5.248   3.073  27.284  0.00  0.00    +0.109 C 
BRANCH  29  30
ATOM     30  N   UNL     1       4.756   1.719  27.545  0.00  0.00    -0.275 N 
ATOM     31  H   UNL     1       4.802   1.028  26.806  0.00  0.00    +0.152 HD
ATOM     32  C   UNL     1       4.043   1.416  28.665  0.00  0.00    +0.401 C 
ATOM     33  O   UNL     1       3.846   2.199  29.589  0.00  0.00    -0.226 OA
BRANCH  32  34
ATOM     34  O   UNL     1       3.571   0.144  28.618  0.00  0.00    -0.445 OA
BRANCH  34  35
ATOM     35  C   UNL     1       4.488  -0.833  28.101  0.00  0.00    +0.278 C 
BRANCH  35  36
ATOM     36  C   UNL     1       3.746  -1.713  27.153  0.00  0.00    +0.046 A 
ATOM     37  S   UNL     1       2.083  -2.080  27.378  0.00  0.00    -0.077 S 
ATOM     38  C   UNL     1       2.102  -2.993  25.927  0.00  0.00    +0.156 A 
ATOM     39  N   UNL     1       3.247  -3.033  25.282  0.00  0.00    -0.255 NA
ATOM     40  C   UNL     1       4.187  -2.300  25.982  0.00  0.00    +0.125 A 
ENDBRANCH  35  36
ENDBRANCH  34  35
ENDBRANCH  32  34
ENDBRANCH  29  30
BRANCH  29  41
ATOM     41  C   UNL     1       4.281   3.855  26.354  0.00  0.00    +0.060 C 
BRANCH  41  42
ATOM     42  C   UNL     1       4.839   4.481  25.096  0.00  0.00    -0.046 A 
ATOM     43  C   UNL     1       5.419   5.756  25.147  0.00  0.00    +0.004 A 
ATOM     44  C   UNL     1       5.898   6.372  23.989  0.00  0.00    +0.000 A 
ATOM     45  C   UNL     1       5.803   5.722  22.762  0.00  0.00    +0.000 A 
ATOM     46  C   UNL     1       5.224   4.456  22.693  0.00  0.00    +0.000 A 
ATOM     47  C   UNL     1       4.738   3.844  23.851  0.00  0.00    +0.004 A 
ENDBRANCH  41  42
ENDBRANCH  29  41
ENDBRANCH  26  29
ENDBRANCH  25  26
ENDBRANCH   1  25
BRANCH   1  48
ATOM     48  C   UNL     1       8.247   3.041  24.244  0.00  0.00    +0.057 C 
BRANCH  48  49
ATOM     49  C   UNL     1       9.431   3.947  24.019  0.00  0.00    -0.046 A 
ATOM     50  C   UNL     1      10.613   3.436  23.464  0.00  0.00    +0.004 A 
ATOM     51  C   UNL     1      11.724   4.259  23.282  0.00  0.00    +0.000 A 
ATOM     52  C   UNL     1      11.663   5.603  23.649  0.00  0.00    +0.000 A 
ATOM     53  C   UNL     1      10.494   6.121  24.201  0.00  0.00    +0.000 A 
ATOM     54  C   UNL     1       9.385   5.296  24.393  0.00  0.00    +0.004 A 
ENDBRANCH  48  49
ENDBRANCH   1  48
TORSDOF 19
ENDMDL
