MODEL 1
REMARK VINA RESULT:      -6.6      0.000      0.000
REMARK  Name = 
REMARK  4 active torsions:
REMARK  status: ('A' for Active; 'I' for Inactive)
REMARK    1  A    between atoms: C_3  and  N_13
REMARK    2  A    between atoms: C_6  and  O_12
REMARK    3  A    between atoms: C_8  and  C_10
REMARK    4  A    between atoms: C_10  and  O_11
REMARK                            x       y       z     vdW  Elec       q    Type
REMARK                         _______ _______ _______ _____ _____    ______ ____
ROOT
ATOM      1  N   UNL     1       7.781  -1.362  24.227  0.00  0.00    -0.308 N 
ATOM      2  C   UNL     1       8.075  -2.699  24.298  0.00  0.00    +0.170 A 
ATOM      3  N   UNL     1       8.948  -3.299  25.142  0.00  0.00    -0.196 NA
ATOM      4  C   UNL     1       9.083  -4.585  24.947  0.00  0.00    +0.195 A 
ATOM      5  N   UNL     1       9.966  -5.278  25.704  0.00  0.00    -0.329 N 
ATOM      6  H   UNL     1       9.838  -6.272  25.841  0.00  0.00    +0.145 HD
ATOM      7  H   UNL     1      10.310  -4.782  26.521  0.00  0.00    +0.145 HD
ATOM      8  N   UNL     1       8.380  -5.290  23.998  0.00  0.00    -0.293 N 
ATOM      9  H   UNL     1       8.542  -6.274  23.873  0.00  0.00    +0.172 HD
ATOM     10  C   UNL     1       7.469  -4.724  23.116  0.00  0.00    +0.280 A 
ATOM     11  O   UNL     1       6.874  -5.400  22.282  0.00  0.00    -0.265 OA
ATOM     12  C   UNL     1       7.334  -3.295  23.302  0.00  0.00    +0.172 A 
ATOM     13  N   UNL     1       6.586  -2.376  22.618  0.00  0.00    -0.229 NA
ATOM     14  C   UNL     1       6.879  -1.226  23.189  0.00  0.00    +0.202 A 
ENDROOT
BRANCH   1  20
ATOM     15  C   UNL     1       6.866   1.876  24.715  0.00  0.00    +0.010 C 
ATOM     16  C   UNL     1       7.933   1.097  24.477  0.00  0.00    -0.046 C 
ATOM     17  C   UNL     1       9.169   1.587  23.751  0.00  0.00    +0.070 C 
ATOM     18  C   UNL     1      10.303   0.686  24.287  0.00  0.00    +0.126 C 
ATOM     19  C   UNL     1       9.683  -0.123  25.435  0.00  0.00    +0.061 C 
ATOM     20  C   UNL     1       8.192  -0.263  25.093  0.00  0.00    +0.118 C 
BRANCH  18  21
ATOM     21  O   UNL     1      10.889  -0.119  23.272  0.00  0.00    -0.391 OA
ATOM     22  H   UNL     1      10.176  -0.426  22.670  0.00  0.00    +0.210 HD
ENDBRANCH  18  21
BRANCH  17  23
ATOM     23  C   UNL     1       8.998   1.582  22.229  0.00  0.00    +0.166 C 
BRANCH  23  24
ATOM     24  O   UNL     1      10.090   2.242  21.599  0.00  0.00    -0.394 OA
ATOM     25  H   UNL     1       9.692   2.742  20.856  0.00  0.00    +0.209 HD
ENDBRANCH  23  24
ENDBRANCH  17  23
ENDBRANCH   1  20
TORSDOF 4
ENDMDL
MODEL 2
REMARK VINA RESULT:      -6.4      2.635      5.513
REMARK  Name = 
REMARK  4 active torsions:
REMARK  status: ('A' for Active; 'I' for Inactive)
REMARK    1  A    between atoms: C_3  and  N_13
REMARK    2  A    between atoms: C_6  and  O_12
REMARK    3  A    between atoms: C_8  and  C_10
REMARK    4  A    between atoms: C_10  and  O_11
REMARK                            x       y       z     vdW  Elec       q    Type
REMARK                         _______ _______ _______ _____ _____    ______ ____
ROOT
ATOM      1  N   UNL     1       6.353  -2.741  23.891  0.00  0.00    -0.308 N 
ATOM      2  C   UNL     1       7.138  -1.804  23.270  0.00  0.00    +0.170 A 
ATOM      3  N   UNL     1       8.180  -2.034  22.436  0.00  0.00    -0.196 NA
ATOM      4  C   UNL     1       8.795  -0.952  22.037  0.00  0.00    +0.195 A 
ATOM      5  N   UNL     1       9.882  -1.068  21.237  0.00  0.00    -0.329 N 
ATOM      6  H   UNL     1      10.146  -0.300  20.634  0.00  0.00    +0.145 HD
ATOM      7  H   UNL     1      10.015  -1.987  20.828  0.00  0.00    +0.145 HD
ATOM      8  N   UNL     1       8.410   0.320  22.393  0.00  0.00    -0.293 N 
ATOM      9  H   UNL     1       8.936   1.116  22.078  0.00  0.00    +0.172 HD
ATOM     10  C   UNL     1       7.346   0.609  23.236  0.00  0.00    +0.280 A 
ATOM     11  O   UNL     1       7.050   1.764  23.527  0.00  0.00    -0.265 OA
ATOM     12  C   UNL     1       6.675  -0.583  23.709  0.00  0.00    +0.172 A 
ATOM     13  N   UNL     1       5.628  -0.729  24.577  0.00  0.00    -0.229 NA
ATOM     14  C   UNL     1       5.461  -2.032  24.673  0.00  0.00    +0.202 A 
ENDROOT
BRANCH   1  20
ATOM     15  C   UNL     1       5.148  -5.392  25.645  0.00  0.00    +0.010 C 
ATOM     16  C   UNL     1       6.259  -4.924  25.056  0.00  0.00    -0.046 C 
ATOM     17  C   UNL     1       7.656  -5.297  25.510  0.00  0.00    +0.070 C 
ATOM     18  C   UNL     1       8.521  -5.137  24.240  0.00  0.00    +0.126 C 
ATOM     19  C   UNL     1       7.531  -4.883  23.093  0.00  0.00    +0.061 C 
ATOM     20  C   UNL     1       6.318  -4.190  23.731  0.00  0.00    +0.118 C 
BRANCH  18  21
ATOM     21  O   UNL     1       9.510  -4.125  24.374  0.00  0.00    -0.391 OA
ATOM     22  H   UNL     1       9.334  -3.428  23.704  0.00  0.00    +0.210 HD
ENDBRANCH  18  21
BRANCH  17  23
ATOM     23  C   UNL     1       8.119  -4.479  26.719  0.00  0.00    +0.166 C 
BRANCH  23  24
ATOM     24  O   UNL     1       9.456  -4.816  27.070  0.00  0.00    -0.394 OA
ATOM     25  H   UNL     1       9.915  -3.958  27.183  0.00  0.00    +0.209 HD
ENDBRANCH  23  24
ENDBRANCH  17  23
ENDBRANCH   1  20
TORSDOF 4
ENDMDL
MODEL 3
REMARK VINA RESULT:      -6.3      2.535      5.799
REMARK  Name = 
REMARK  4 active torsions:
REMARK  status: ('A' for Active; 'I' for Inactive)
REMARK    1  A    between atoms: C_3  and  N_13
REMARK    2  A    between atoms: C_6  and  O_12
REMARK    3  A    between atoms: C_8  and  C_10
REMARK    4  A    between atoms: C_10  and  O_11
REMARK                            x       y       z     vdW  Elec       q    Type
REMARK                         _______ _______ _______ _____ _____    ______ ____
ROOT
ATOM      1  N   UNL     1       7.669  -1.995  25.120  0.00  0.00    -0.308 N 
ATOM      2  C   UNL     1       8.505  -1.361  24.237  0.00  0.00    +0.170 A 
ATOM      3  N   UNL     1       8.501  -1.468  22.887  0.00  0.00    -0.196 NA
ATOM      4  C   UNL     1       9.455  -0.801  22.294  0.00  0.00    +0.195 A 
ATOM      5  N   UNL     1       9.574  -0.875  20.947  0.00  0.00    -0.329 N 
ATOM      6  H   UNL     1      10.028  -0.126  20.441  0.00  0.00    +0.145 HD
ATOM      7  H   UNL     1       8.774  -1.279  20.470  0.00  0.00    +0.145 HD
ATOM      8  N   UNL     1      10.370  -0.022  22.963  0.00  0.00    -0.293 N 
ATOM      9  H   UNL     1      11.100   0.450  22.459  0.00  0.00    +0.172 HD
ATOM     10  C   UNL     1      10.412   0.128  24.343  0.00  0.00    +0.280 A 
ATOM     11  O   UNL     1      11.256   0.831  24.889  0.00  0.00    -0.265 OA
ATOM     12  C   UNL     1       9.378  -0.632  25.013  0.00  0.00    +0.172 A 
ATOM     13  N   UNL     1       9.111  -0.786  26.346  0.00  0.00    -0.229 NA
ATOM     14  C   UNL     1       8.087  -1.614  26.380  0.00  0.00    +0.202 A 
ENDROOT
BRANCH   1  20
ATOM     15  C   UNL     1       5.279  -3.522  26.994  0.00  0.00    +0.010 C 
ATOM     16  C   UNL     1       6.175  -3.752  26.022  0.00  0.00    -0.046 C 
ATOM     17  C   UNL     1       6.817  -5.106  25.793  0.00  0.00    +0.070 C 
ATOM     18  C   UNL     1       7.182  -5.100  24.292  0.00  0.00    +0.126 C 
ATOM     19  C   UNL     1       6.541  -3.829  23.713  0.00  0.00    +0.061 C 
ATOM     20  C   UNL     1       6.492  -2.820  24.871  0.00  0.00    +0.118 C 
BRANCH  18  21
ATOM     21  O   UNL     1       8.582  -5.185  24.068  0.00  0.00    -0.391 OA
ATOM     22  H   UNL     1       8.881  -4.348  23.647  0.00  0.00    +0.210 HD
ENDBRANCH  18  21
BRANCH  17  23
ATOM     23  C   UNL     1       7.987  -5.371  26.745  0.00  0.00    +0.166 C 
BRANCH  23  24
ATOM     24  O   UNL     1       7.558  -6.139  27.864  0.00  0.00    -0.394 OA
ATOM     25  H   UNL     1       7.452  -7.051  27.522  0.00  0.00    +0.209 HD
ENDBRANCH  23  24
ENDBRANCH  17  23
ENDBRANCH   1  20
TORSDOF 4
ENDMDL
MODEL 4
REMARK VINA RESULT:      -6.3      2.034      5.966
REMARK  Name = 
REMARK  4 active torsions:
REMARK  status: ('A' for Active; 'I' for Inactive)
REMARK    1  A    between atoms: C_3  and  N_13
REMARK    2  A    between atoms: C_6  and  O_12
REMARK    3  A    between atoms: C_8  and  C_10
REMARK    4  A    between atoms: C_10  and  O_11
REMARK                            x       y       z     vdW  Elec       q    Type
REMARK                         _______ _______ _______ _____ _____    ______ ____
ROOT
ATOM      1  N   UNL     1       7.801  -2.077  23.726  0.00  0.00    -0.308 N 
ATOM      2  C   UNL     1       7.707  -0.780  23.293  0.00  0.00    +0.170 A 
ATOM      3  N   UNL     1       6.612   0.016  23.326  0.00  0.00    -0.196 NA
ATOM      4  C   UNL     1       6.788   1.192  22.784  0.00  0.00    +0.195 A 
ATOM      5  N   UNL     1       5.743   2.052  22.720  0.00  0.00    -0.329 N 
ATOM      6  H   UNL     1       5.916   3.047  22.659  0.00  0.00    +0.145 HD
ATOM      7  H   UNL     1       4.946   1.799  23.295  0.00  0.00    +0.145 HD
ATOM      8  N   UNL     1       7.984   1.617  22.255  0.00  0.00    -0.293 N 
ATOM      9  H   UNL     1       8.057   2.523  21.826  0.00  0.00    +0.172 HD
ATOM     10  C   UNL     1       9.137   0.845  22.204  0.00  0.00    +0.280 A 
ATOM     11  O   UNL     1      10.177   1.271  21.713  0.00  0.00    -0.265 OA
ATOM     12  C   UNL     1       8.946  -0.472  22.774  0.00  0.00    +0.172 A 
ATOM     13  N   UNL     1       9.807  -1.531  22.874  0.00  0.00    -0.229 NA
ATOM     14  C   UNL     1       9.092  -2.481  23.442  0.00  0.00    +0.202 A 
ENDROOT
BRANCH   1  20
ATOM     15  C   UNL     1       7.768  -5.145  25.189  0.00  0.00    +0.010 C 
ATOM     16  C   UNL     1       7.106  -4.381  24.307  0.00  0.00    -0.046 C 
ATOM     17  C   UNL     1       6.299  -4.954  23.159  0.00  0.00    +0.070 C 
ATOM     18  C   UNL     1       5.232  -3.875  22.874  0.00  0.00    +0.126 C 
ATOM     19  C   UNL     1       5.364  -2.848  24.009  0.00  0.00    +0.061 C 
ATOM     20  C   UNL     1       6.835  -2.897  24.448  0.00  0.00    +0.118 C 
BRANCH  18  21
ATOM     21  O   UNL     1       5.357  -3.309  21.576  0.00  0.00    -0.391 OA
ATOM     22  H   UNL     1       6.267  -3.484  21.248  0.00  0.00    +0.210 HD
ENDBRANCH  18  21
BRANCH  17  23
ATOM     23  C   UNL     1       7.173  -5.337  21.961  0.00  0.00    +0.166 C 
BRANCH  23  24
ATOM     24  O   UNL     1       6.372  -5.838  20.896  0.00  0.00    -0.394 OA
ATOM     25  H   UNL     1       6.732  -6.729  20.704  0.00  0.00    +0.209 HD
ENDBRANCH  23  24
ENDBRANCH  17  23
ENDBRANCH   1  20
TORSDOF 4
ENDMDL
MODEL 5
REMARK VINA RESULT:      -6.3      2.195      5.593
REMARK  Name = 
REMARK  4 active torsions:
REMARK  status: ('A' for Active; 'I' for Inactive)
REMARK    1  A    between atoms: C_3  and  N_13
REMARK    2  A    between atoms: C_6  and  O_12
REMARK    3  A    between atoms: C_8  and  C_10
REMARK    4  A    between atoms: C_10  and  O_11
REMARK                            x       y       z     vdW  Elec       q    Type
REMARK                         _______ _______ _______ _____ _____    ______ ____
ROOT
ATOM      1  N   UNL     1       8.378  -2.941  23.600  0.00  0.00    -0.308 N 
ATOM      2  C   UNL     1       8.667  -1.855  24.385  0.00  0.00    +0.170 A 
ATOM      3  N   UNL     1       8.770  -1.825  25.735  0.00  0.00    -0.196 NA
ATOM      4  C   UNL     1       8.991  -0.636  26.229  0.00  0.00    +0.195 A 
ATOM      5  N   UNL     1       9.064  -0.482  27.573  0.00  0.00    -0.329 N 
ATOM      6  H   UNL     1       9.578   0.297  27.962  0.00  0.00    +0.145 HD
ATOM      7  H   UNL     1       9.154  -1.347  28.097  0.00  0.00    +0.145 HD
ATOM      8  N   UNL     1       9.147   0.493  25.459  0.00  0.00    -0.293 N 
ATOM      9  H   UNL     1       9.289   1.389  25.893  0.00  0.00    +0.172 HD
ATOM     10  C   UNL     1       9.060   0.515  24.073  0.00  0.00    +0.280 A 
ATOM     11  O   UNL     1       9.200   1.554  23.435  0.00  0.00    -0.265 OA
ATOM     12  C   UNL     1       8.784  -0.792  23.516  0.00  0.00    +0.172 A 
ATOM     13  N   UNL     1       8.583  -1.181  22.220  0.00  0.00    -0.229 NA
ATOM     14  C   UNL     1       8.335  -2.473  22.301  0.00  0.00    +0.202 A 
ENDROOT
BRANCH   1  20
ATOM     15  C   UNL     1       7.251  -5.778  22.104  0.00  0.00    +0.010 C 
ATOM     16  C   UNL     1       7.119  -5.039  23.216  0.00  0.00    -0.046 C 
ATOM     17  C   UNL     1       5.849  -5.005  24.041  0.00  0.00    +0.070 C 
ATOM     18  C   UNL     1       6.332  -4.646  25.463  0.00  0.00    +0.126 C 
ATOM     19  C   UNL     1       7.866  -4.699  25.407  0.00  0.00    +0.061 C 
ATOM     20  C   UNL     1       8.245  -4.349  23.960  0.00  0.00    +0.118 C 
BRANCH  18  21
ATOM     21  O   UNL     1       5.821  -3.400  25.917  0.00  0.00    -0.391 OA
ATOM     22  H   UNL     1       4.840  -3.430  25.865  0.00  0.00    +0.210 HD
ENDBRANCH  18  21
BRANCH  17  23
ATOM     23  C   UNL     1       4.793  -4.063  23.456  0.00  0.00    +0.166 C 
BRANCH  23  24
ATOM     24  O   UNL     1       3.758  -4.804  22.818  0.00  0.00    -0.394 OA
ATOM     25  H   UNL     1       4.180  -5.205  22.030  0.00  0.00    +0.209 HD
ENDBRANCH  23  24
ENDBRANCH  17  23
ENDBRANCH   1  20
TORSDOF 4
ENDMDL
MODEL 6
REMARK VINA RESULT:      -6.3      2.308      2.997
REMARK  Name = 
REMARK  4 active torsions:
REMARK  status: ('A' for Active; 'I' for Inactive)
REMARK    1  A    between atoms: C_3  and  N_13
REMARK    2  A    between atoms: C_6  and  O_12
REMARK    3  A    between atoms: C_8  and  C_10
REMARK    4  A    between atoms: C_10  and  O_11
REMARK                            x       y       z     vdW  Elec       q    Type
REMARK                         _______ _______ _______ _____ _____    ______ ____
ROOT
ATOM      1  N   UNL     1       8.147  -0.940  23.489  0.00  0.00    -0.308 N 
ATOM      2  C   UNL     1       7.389  -2.067  23.301  0.00  0.00    +0.170 A 
ATOM      3  N   UNL     1       7.693  -3.137  22.529  0.00  0.00    -0.196 NA
ATOM      4  C   UNL     1       6.755  -4.046  22.480  0.00  0.00    +0.195 A 
ATOM      5  N   UNL     1       6.933  -5.138  21.698  0.00  0.00    -0.329 N 
ATOM      6  H   UNL     1       6.436  -5.993  21.909  0.00  0.00    +0.145 HD
ATOM      7  H   UNL     1       7.884  -5.276  21.369  0.00  0.00    +0.145 HD
ATOM      8  N   UNL     1       5.571  -3.958  23.175  0.00  0.00    -0.293 N 
ATOM      9  H   UNL     1       4.873  -4.675  23.081  0.00  0.00    +0.172 HD
ATOM     10  C   UNL     1       5.216  -2.889  23.986  0.00  0.00    +0.280 A 
ATOM     11  O   UNL     1       4.142  -2.859  24.579  0.00  0.00    -0.265 OA
ATOM     12  C   UNL     1       6.235  -1.861  24.024  0.00  0.00    +0.172 A 
ATOM     13  N   UNL     1       6.251  -0.649  24.658  0.00  0.00    -0.229 NA
ATOM     14  C   UNL     1       7.406  -0.116  24.313  0.00  0.00    +0.202 A 
ENDROOT
BRANCH   1  20
ATOM     15  C   UNL     1      10.902   0.546  24.814  0.00  0.00    +0.010 C 
ATOM     16  C   UNL     1      10.091   0.572  23.746  0.00  0.00    -0.046 C 
ATOM     17  C   UNL     1       9.854   1.819  22.918  0.00  0.00    +0.070 C 
ATOM     18  C   UNL     1       9.477   1.278  21.521  0.00  0.00    +0.126 C 
ATOM     19  C   UNL     1       9.723  -0.237  21.582  0.00  0.00    +0.061 C 
ATOM     20  C   UNL     1       9.504  -0.638  23.049  0.00  0.00    +0.118 C 
BRANCH  18  21
ATOM     21  O   UNL     1       8.154   1.626  21.137  0.00  0.00    -0.391 OA
ATOM     22  H   UNL     1       7.656   1.889  21.943  0.00  0.00    +0.210 HD
ENDBRANCH  18  21
BRANCH  17  23
ATOM     23  C   UNL     1       8.823   2.758  23.551  0.00  0.00    +0.166 C 
BRANCH  23  24
ATOM     24  O   UNL     1       8.666   3.934  22.765  0.00  0.00    -0.394 OA
ATOM     25  H   UNL     1       9.042   3.708  21.889  0.00  0.00    +0.209 HD
ENDBRANCH  23  24
ENDBRANCH  17  23
ENDBRANCH   1  20
TORSDOF 4
ENDMDL
MODEL 7
REMARK VINA RESULT:      -6.0      2.014      5.759
REMARK  Name = 
REMARK  4 active torsions:
REMARK  status: ('A' for Active; 'I' for Inactive)
REMARK    1  A    between atoms: C_3  and  N_13
REMARK    2  A    between atoms: C_6  and  O_12
REMARK    3  A    between atoms: C_8  and  C_10
REMARK    4  A    between atoms: C_10  and  O_11
REMARK                            x       y       z     vdW  Elec       q    Type
REMARK                         _______ _______ _______ _____ _____    ______ ____
ROOT
ATOM      1  N   UNL     1       9.137  -1.901  24.562  0.00  0.00    -0.308 N 
ATOM      2  C   UNL     1       9.086  -0.533  24.493  0.00  0.00    +0.170 A 
ATOM      3  N   UNL     1       8.508   0.309  25.382  0.00  0.00    -0.196 NA
ATOM      4  C   UNL     1       8.550   1.568  25.033  0.00  0.00    +0.195 A 
ATOM      5  N   UNL     1       7.960   2.494  25.827  0.00  0.00    -0.329 N 
ATOM      6  H   UNL     1       8.274   3.454  25.796  0.00  0.00    +0.145 HD
ATOM      7  H   UNL     1       7.710   2.163  26.753  0.00  0.00    +0.145 HD
ATOM      8  N   UNL     1       9.156   2.021  23.884  0.00  0.00    -0.293 N 
ATOM      9  H   UNL     1       9.136   2.998  23.650  0.00  0.00    +0.172 HD
ATOM     10  C   UNL     1       9.768   1.202  22.945  0.00  0.00    +0.280 A 
ATOM     11  O   UNL     1      10.288   1.658  21.932  0.00  0.00    -0.265 OA
ATOM     12  C   UNL     1       9.701  -0.199  23.307  0.00  0.00    +0.172 A 
ATOM     13  N   UNL     1      10.138  -1.311  22.639  0.00  0.00    -0.229 NA
ATOM     14  C   UNL     1       9.780  -2.317  23.411  0.00  0.00    +0.202 A 
ENDROOT
BRANCH   1  20
ATOM     15  C   UNL     1       9.834  -5.092  25.505  0.00  0.00    +0.010 C 
ATOM     16  C   UNL     1       8.814  -4.262  25.236  0.00  0.00    -0.046 C 
ATOM     17  C   UNL     1       7.473  -4.740  24.718  0.00  0.00    +0.070 C 
ATOM     18  C   UNL     1       6.478  -3.658  25.194  0.00  0.00    +0.126 C 
ATOM     19  C   UNL     1       7.278  -2.740  26.129  0.00  0.00    +0.061 C 
ATOM     20  C   UNL     1       8.731  -2.802  25.635  0.00  0.00    +0.118 C 
BRANCH  18  21
ATOM     21  O   UNL     1       5.855  -2.973  24.116  0.00  0.00    -0.391 OA
ATOM     22  H   UNL     1       5.938  -2.006  24.274  0.00  0.00    +0.210 HD
ENDBRANCH  18  21
BRANCH  17  23
ATOM     23  C   UNL     1       7.482  -4.994  23.208  0.00  0.00    +0.166 C 
BRANCH  23  24
ATOM     24  O   UNL     1       6.268  -5.612  22.796  0.00  0.00    -0.394 OA
ATOM     25  H   UNL     1       5.568  -4.957  22.997  0.00  0.00    +0.209 HD
ENDBRANCH  23  24
ENDBRANCH  17  23
ENDBRANCH   1  20
TORSDOF 4
ENDMDL
MODEL 8
REMARK VINA RESULT:      -6.0      3.287      4.749
REMARK  Name = 
REMARK  4 active torsions:
REMARK  status: ('A' for Active; 'I' for Inactive)
REMARK    1  A    between atoms: C_3  and  N_13
REMARK    2  A    between atoms: C_6  and  O_12
REMARK    3  A    between atoms: C_8  and  C_10
REMARK    4  A    between atoms: C_10  and  O_11
REMARK                            x       y       z     vdW  Elec       q    Type
REMARK                         _______ _______ _______ _____ _____    ______ ____
ROOT
ATOM      1  N   UNL     1       6.845  -3.361  24.031  0.00  0.00    -0.308 N 
ATOM      2  C   UNL     1       6.155  -4.420  23.501  0.00  0.00    +0.170 A 
ATOM      3  N   UNL     1       5.389  -5.314  24.169  0.00  0.00    -0.196 NA
ATOM      4  C   UNL     1       4.899  -6.266  23.420  0.00  0.00    +0.195 A 
ATOM      5  N   UNL     1       4.155  -7.242  23.994  0.00  0.00    -0.329 N 
ATOM      6  H   UNL     1       3.483  -7.754  23.438  0.00  0.00    +0.145 HD
ATOM      7  H   UNL     1       3.852  -7.046  24.943  0.00  0.00    +0.145 HD
ATOM      8  N   UNL     1       5.102  -6.349  22.062  0.00  0.00    -0.293 N 
ATOM      9  H   UNL     1       4.723  -7.118  21.537  0.00  0.00    +0.172 HD
ATOM     10  C   UNL     1       5.870  -5.455  21.329  0.00  0.00    +0.280 A 
ATOM     11  O   UNL     1       6.025  -5.580  20.118  0.00  0.00    -0.265 OA
ATOM     12  C   UNL     1       6.444  -4.412  22.154  0.00  0.00    +0.172 A 
ATOM     13  N   UNL     1       7.284  -3.383  21.829  0.00  0.00    -0.229 NA
ATOM     14  C   UNL     1       7.513  -2.774  22.975  0.00  0.00    +0.202 A 
ENDROOT
BRANCH   1  20
ATOM     15  C   UNL     1       8.932  -1.491  25.956  0.00  0.00    +0.010 C 
ATOM     16  C   UNL     1       8.235  -2.638  25.948  0.00  0.00    -0.046 C 
ATOM     17  C   UNL     1       8.647  -3.860  26.743  0.00  0.00    +0.070 C 
ATOM     18  C   UNL     1       7.321  -4.612  26.993  0.00  0.00    +0.126 C 
ATOM     19  C   UNL     1       6.211  -3.669  26.505  0.00  0.00    +0.061 C 
ATOM     20  C   UNL     1       6.840  -2.823  25.387  0.00  0.00    +0.118 C 
BRANCH  18  21
ATOM     21  O   UNL     1       7.293  -5.893  26.378  0.00  0.00    -0.391 OA
ATOM     22  H   UNL     1       8.063  -6.410  26.703  0.00  0.00    +0.210 HD
ENDBRANCH  18  21
BRANCH  17  23
ATOM     23  C   UNL     1       9.735  -4.678  26.042  0.00  0.00    +0.166 C 
BRANCH  23  24
ATOM     24  O   UNL     1       9.384  -4.922  24.685  0.00  0.00    -0.394 OA
ATOM     25  H   UNL     1      10.081  -4.478  24.157  0.00  0.00    +0.209 HD
ENDBRANCH  23  24
ENDBRANCH  17  23
ENDBRANCH   1  20
TORSDOF 4
ENDMDL
MODEL 9
REMARK VINA RESULT:      -6.0      2.839      4.108
REMARK  Name = 
REMARK  4 active torsions:
REMARK  status: ('A' for Active; 'I' for Inactive)
REMARK    1  A    between atoms: C_3  and  N_13
REMARK    2  A    between atoms: C_6  and  O_12
REMARK    3  A    between atoms: C_8  and  C_10
REMARK    4  A    between atoms: C_10  and  O_11
REMARK                            x       y       z     vdW  Elec       q    Type
REMARK                         _______ _______ _______ _____ _____    ______ ____
ROOT
ATOM      1  N   UNL     1       8.066  -3.634  24.503  0.00  0.00    -0.308 N 
ATOM      2  C   UNL     1       7.220  -4.586  25.012  0.00  0.00    +0.170 A 
ATOM      3  N   UNL     1       6.161  -5.155  24.388  0.00  0.00    -0.196 NA
ATOM      4  C   UNL     1       5.485  -5.989  25.134  0.00  0.00    +0.195 A 
ATOM      5  N   UNL     1       4.378  -6.581  24.626  0.00  0.00    -0.329 N 
ATOM      6  H   UNL     1       4.060  -7.462  25.006  0.00  0.00    +0.145 HD
ATOM      7  H   UNL     1       4.272  -6.496  23.620  0.00  0.00    +0.145 HD
ATOM      8  N   UNL     1       5.825  -6.301  26.430  0.00  0.00    -0.293 N 
ATOM      9  H   UNL     1       5.254  -6.930  26.967  0.00  0.00    +0.172 HD
ATOM     10  C   UNL     1       6.904  -5.753  27.111  0.00  0.00    +0.280 A 
ATOM     11  O   UNL     1       7.158  -6.062  28.271  0.00  0.00    -0.265 OA
ATOM     12  C   UNL     1       7.643  -4.804  26.304  0.00  0.00    +0.172 A 
ATOM     13  N   UNL     1       8.725  -4.026  26.615  0.00  0.00    -0.229 NA
ATOM     14  C   UNL     1       8.952  -3.331  25.519  0.00  0.00    +0.202 A 
ENDROOT
BRANCH   1  20
ATOM     15  C   UNL     1      10.288  -1.752  22.749  0.00  0.00    +0.010 C 
ATOM     16  C   UNL     1       8.993  -1.822  23.093  0.00  0.00    -0.046 C 
ATOM     17  C   UNL     1       8.102  -0.603  23.216  0.00  0.00    +0.070 C 
ATOM     18  C   UNL     1       6.682  -1.144  22.941  0.00  0.00    +0.126 C 
ATOM     19  C   UNL     1       6.873  -2.595  22.476  0.00  0.00    +0.061 C 
ATOM     20  C   UNL     1       8.160  -3.087  23.155  0.00  0.00    +0.118 C 
BRANCH  18  21
ATOM     21  O   UNL     1       5.819  -1.012  24.063  0.00  0.00    -0.391 OA
ATOM     22  H   UNL     1       5.315  -1.850  24.166  0.00  0.00    +0.210 HD
ENDBRANCH  18  21
BRANCH  17  23
ATOM     23  C   UNL     1       8.275   0.119  24.555  0.00  0.00    +0.166 C 
BRANCH  23  24
ATOM     24  O   UNL     1       7.542   1.339  24.566  0.00  0.00    -0.394 OA
ATOM     25  H   UNL     1       8.138   1.992  24.989  0.00  0.00    +0.209 HD
ENDBRANCH  23  24
ENDBRANCH  17  23
ENDBRANCH   1  20
TORSDOF 4
ENDMDL
