MODEL 1
REMARK VINA RESULT:      -7.4      0.000      0.000
REMARK  Name = 
REMARK  21 active torsions:
REMARK  status: ('A' for Active; 'I' for Inactive)
REMARK    1  A    between atoms: C_1  and  C_2
REMARK    2  A    between atoms: C_2  and  C_3
REMARK    3  A    between atoms: C_2  and  C_4
REMARK    4  A    between atoms: C_9  and  C_12
REMARK    5  A    between atoms: C_18  and  O_21
REMARK    6  A    between atoms: O_21  and  C_22
REMARK    7  A    between atoms: C_23  and  O_25
REMARK    8  A    between atoms: O_25  and  C_26
REMARK    9  A    between atoms: C_28  and  C_47
REMARK   10  A    between atoms: C_31  and  C_33
REMARK   11  A    between atoms: C_33  and  C_34
REMARK   12  A    between atoms: C_33  and  N_38
REMARK   13  A    between atoms: C_34  and  C_35
REMARK   14  A    between atoms: C_34  and  C_36
REMARK   15  A    between atoms: C_34  and  C_37
REMARK   16  A    between atoms: C_39  and  O_41
REMARK   17  A    between atoms: O_41  and  C_42
REMARK   18  A    between atoms: N_49  and  C_50
REMARK   19  A    between atoms: C_50  and  C_55
REMARK   20  A    between atoms: C_52  and  C_53
REMARK   21  A    between atoms: C_55  and  O_57
REMARK                            x       y       z     vdW  Elec       q    Type
REMARK                         _______ _______ _______ _____ _____    ______ ____
ROOT
ATOM      1  C   UNL     1       5.640   0.081  25.430  0.00  0.00    +0.193 C 
ATOM      2  C   UNL     1       5.333  -1.423  25.272  0.00  0.00    +0.153 C 
ATOM      3  N   UNL     1       6.630  -2.074  25.463  0.00  0.00    -0.285 N 
ATOM      4  C   UNL     1       6.949  -3.407  25.310  0.00  0.00    +0.237 C 
ATOM      5  O   UNL     1       8.080  -3.774  25.642  0.00  0.00    -0.274 OA
ATOM      6  C   UNL     1       7.585  -1.130  26.082  0.00  0.00    +0.166 C 
ATOM      7  C   UNL     1       6.707   0.036  26.528  0.00  0.00    +0.078 C 
ENDROOT
BRANCH   6   8
ATOM      8  C   UNL     1       8.699  -0.617  25.133  0.00  0.00    +0.235 C 
ATOM      9  N   UNL     1       8.385  -0.602  23.799  0.00  0.00    -0.298 N 
ATOM     10  H   UNL     1       7.530  -1.079  23.502  0.00  0.00    +0.150 HD
ATOM     11  O   UNL     1       9.836  -0.354  25.520  0.00  0.00    -0.274 OA
BRANCH   9  12
ATOM     12  C   UNL     1       9.310  -0.167  22.767  0.00  0.00    +0.138 C 
ATOM     13  C   UNL     1       8.922   1.102  22.006  0.00  0.00    +0.048 C 
ATOM     14  C   UNL     1      10.149   1.105  22.863  0.00  0.00    +0.048 C 
BRANCH  12  15
ATOM     15  C   UNL     1      10.073  -1.281  22.096  0.00  0.00    +0.329 C 
ATOM     16  O   UNL     1      11.059  -1.805  22.586  0.00  0.00    -0.249 OA
BRANCH  15  17
ATOM     17  O   UNL     1       9.527  -1.635  20.905  0.00  0.00    -0.479 OA
ATOM     18  H   UNL     1      10.018  -2.392  20.508  0.00  0.00    +0.295 HD
ENDBRANCH  15  17
ENDBRANCH  12  15
BRANCH  13  19
ATOM     19  C   UNL     1       7.872   2.018  22.490  0.00  0.00    -0.028 C 
ATOM     20  C   UNL     1       6.870   2.523  21.759  0.00  0.00    +0.004 C 
ENDBRANCH  13  19
ENDBRANCH   9  12
ENDBRANCH   6   8
BRANCH   1  21
ATOM     21  O   UNL     1       4.494   0.816  25.836  0.00  0.00    -0.486 OA
BRANCH  21  24
ATOM     22  C   UNL     1       5.333   4.311  25.027  0.00  0.00    +0.094 A 
ATOM     23  C   UNL     1       5.369   2.927  24.950  0.00  0.00    +0.076 A 
ATOM     24  C   UNL     1       4.579   2.194  25.830  0.00  0.00    +0.132 A 
ATOM     25  C   UNL     1       3.792   2.867  26.791  0.00  0.00    +0.043 A 
ATOM     26  C   UNL     1       3.014   2.161  27.730  0.00  0.00    +0.017 A 
ATOM     27  C   UNL     1       2.300   2.810  28.726  0.00  0.00    +0.047 A 
ATOM     28  C   UNL     1       2.315   4.198  28.793  0.00  0.00    +0.136 A 
ATOM     29  C   UNL     1       3.053   4.915  27.825  0.00  0.00    +0.085 A 
ATOM     30 BR   UNL     1       3.036   6.833  27.885  0.00  0.00    -0.044 Br
ATOM     31  C   UNL     1       3.816   4.278  26.820  0.00  0.00    +0.093 A 
ATOM     32  N   UNL     1       4.560   4.979  25.921  0.00  0.00    -0.244 NA
BRANCH  22  39
ATOM     33  C   UNL     1      10.446   5.476  23.742  0.00  0.00    +0.221 C 
ATOM     34  N   UNL     1       9.428   6.230  23.196  0.00  0.00    -0.264 N 
ATOM     35  H   UNL     1       9.624   6.988  22.560  0.00  0.00    +0.157 HD
ATOM     36  C   UNL     1       8.107   5.923  23.410  0.00  0.00    +0.165 A 
ATOM     37  S   UNL     1       7.014   6.806  22.438  0.00  0.00    -0.060 S 
ATOM     38  C   UNL     1       5.707   5.974  23.185  0.00  0.00    +0.078 A 
ATOM     39  C   UNL     1       6.190   5.115  24.156  0.00  0.00    +0.098 A 
ATOM     40  N   UNL     1       7.577   5.070  24.245  0.00  0.00    -0.223 NA
ATOM     41  O   UNL     1      10.314   4.428  24.357  0.00  0.00    -0.275 OA
BRANCH  33  43
ATOM     42  C   UNL     1      12.422   6.665  24.760  0.00  0.00    +0.017 C 
ATOM     43  C   UNL     1      11.838   6.060  23.482  0.00  0.00    +0.069 C 
ATOM     44  C   UNL     1      12.782   4.975  22.949  0.00  0.00    +0.017 C 
ENDBRANCH  33  43
ENDBRANCH  22  39
BRANCH  28  45
ATOM     45  O   UNL     1       1.650   4.915  29.756  0.00  0.00    -0.494 OA
ATOM     46  C   UNL     1       0.456   5.592  29.372  0.00  0.00    +0.277 C 
ENDBRANCH  28  45
ENDBRANCH  21  24
ENDBRANCH   1  21
BRANCH   4  47
ATOM     47  C   UNL     1       5.891  -4.409  24.731  0.00  0.00    +0.168 C 
BRANCH  47  48
ATOM     48  N   UNL     1       5.822  -5.612  25.571  0.00  0.00    -0.269 N 
ATOM     49  H   UNL     1       6.435  -6.393  25.377  0.00  0.00    +0.153 HD
ATOM     50  C   UNL     1       4.840  -5.821  26.500  0.00  0.00    +0.401 C 
ATOM     51  O   UNL     1       4.005  -4.989  26.821  0.00  0.00    -0.226 OA
BRANCH  50  52
ATOM     52  O   UNL     1       4.928  -7.080  27.008  0.00  0.00    -0.447 OA
BRANCH  52  53
ATOM     53  C   UNL     1       5.174  -7.166  28.424  0.00  0.00    +0.178 C 
ATOM     54  C   UNL     1       3.859  -7.083  29.210  0.00  0.00    +0.045 C 
ATOM     55  C   UNL     1       4.164  -6.290  30.485  0.00  0.00    +0.004 C 
ATOM     56  C   UNL     1       5.652  -5.974  30.436  0.00  0.00    +0.004 C 
ATOM     57  C   UNL     1       5.982  -5.983  28.952  0.00  0.00    +0.045 C 
ENDBRANCH  52  53
ENDBRANCH  50  52
ENDBRANCH  47  48
BRANCH  47  58
ATOM     58  C   UNL     1       6.125  -4.781  23.212  0.00  0.00    -0.011 C 
ATOM     59  C   UNL     1       5.025  -5.749  22.720  0.00  0.00    +0.013 C 
ATOM     60  C   UNL     1       7.475  -5.521  23.049  0.00  0.00    +0.013 C 
ATOM     61  C   UNL     1       6.164  -3.559  22.269  0.00  0.00    +0.013 C 
ENDBRANCH  47  58
ENDBRANCH   4  47
TORSDOF 15
ENDMDL
MODEL 2
REMARK VINA RESULT:      -7.3      1.385      2.560
REMARK  Name = 
REMARK  21 active torsions:
REMARK  status: ('A' for Active; 'I' for Inactive)
REMARK    1  A    between atoms: C_1  and  C_2
REMARK    2  A    between atoms: C_2  and  C_3
REMARK    3  A    between atoms: C_2  and  C_4
REMARK    4  A    between atoms: C_9  and  C_12
REMARK    5  A    between atoms: C_18  and  O_21
REMARK    6  A    between atoms: O_21  and  C_22
REMARK    7  A    between atoms: C_23  and  O_25
REMARK    8  A    between atoms: O_25  and  C_26
REMARK    9  A    between atoms: C_28  and  C_47
REMARK   10  A    between atoms: C_31  and  C_33
REMARK   11  A    between atoms: C_33  and  C_34
REMARK   12  A    between atoms: C_33  and  N_38
REMARK   13  A    between atoms: C_34  and  C_35
REMARK   14  A    between atoms: C_34  and  C_36
REMARK   15  A    between atoms: C_34  and  C_37
REMARK   16  A    between atoms: C_39  and  O_41
REMARK   17  A    between atoms: O_41  and  C_42
REMARK   18  A    between atoms: N_49  and  C_50
REMARK   19  A    between atoms: C_50  and  C_55
REMARK   20  A    between atoms: C_52  and  C_53
REMARK   21  A    between atoms: C_55  and  O_57
REMARK                            x       y       z     vdW  Elec       q    Type
REMARK                         _______ _______ _______ _____ _____    ______ ____
ROOT
ATOM      1  C   UNL     1       5.547  -0.233  25.551  0.00  0.00    +0.193 C 
ATOM      2  C   UNL     1       5.379  -1.756  25.739  0.00  0.00    +0.153 C 
ATOM      3  N   UNL     1       6.709  -2.213  26.146  0.00  0.00    -0.285 N 
ATOM      4  C   UNL     1       7.149  -3.508  26.329  0.00  0.00    +0.237 C 
ATOM      5  O   UNL     1       8.280  -3.674  26.797  0.00  0.00    -0.274 OA
ATOM      6  C   UNL     1       7.534  -1.062  26.571  0.00  0.00    +0.166 C 
ATOM      7  C   UNL     1       6.530   0.082  26.682  0.00  0.00    +0.078 C 
ENDROOT
BRANCH   6   8
ATOM      8  C   UNL     1       8.667  -0.674  25.587  0.00  0.00    +0.235 C 
ATOM      9  N   UNL     1       8.392  -0.862  24.257  0.00  0.00    -0.298 N 
ATOM     10  H   UNL     1       7.552  -1.392  24.012  0.00  0.00    +0.150 HD
ATOM     11  O   UNL     1       9.788  -0.338  25.961  0.00  0.00    -0.274 OA
BRANCH   9  12
ATOM     12  C   UNL     1       9.340  -0.566  23.198  0.00  0.00    +0.138 C 
ATOM     13  C   UNL     1       8.933   0.534  22.217  0.00  0.00    +0.048 C 
ATOM     14  C   UNL     1      10.123   0.741  23.101  0.00  0.00    +0.048 C 
BRANCH  12  15
ATOM     15  C   UNL     1      10.174  -1.742  22.755  0.00  0.00    +0.329 C 
ATOM     16  O   UNL     1      10.452  -2.677  23.487  0.00  0.00    -0.249 OA
BRANCH  15  17
ATOM     17  O   UNL     1      10.557  -1.642  21.456  0.00  0.00    -0.479 OA
ATOM     18  H   UNL     1      10.351  -0.745  21.102  0.00  0.00    +0.295 HD
ENDBRANCH  15  17
ENDBRANCH  12  15
BRANCH  13  19
ATOM     19  C   UNL     1       7.828   1.470  22.501  0.00  0.00    -0.028 C 
ATOM     20  C   UNL     1       7.154   2.189  21.594  0.00  0.00    +0.004 C 
ENDBRANCH  13  19
ENDBRANCH   9  12
ENDBRANCH   6   8
BRANCH   1  21
ATOM     21  O   UNL     1       4.316   0.459  25.711  0.00  0.00    -0.486 OA
BRANCH  21  24
ATOM     22  C   UNL     1       5.057   3.938  24.755  0.00  0.00    +0.094 A 
ATOM     23  C   UNL     1       5.164   2.556  24.768  0.00  0.00    +0.076 A 
ATOM     24  C   UNL     1       4.337   1.836  25.625  0.00  0.00    +0.132 A 
ATOM     25  C   UNL     1       3.442   2.523  26.475  0.00  0.00    +0.043 A 
ATOM     26  C   UNL     1       2.621   1.834  27.390  0.00  0.00    +0.017 A 
ATOM     27  C   UNL     1       1.797   2.504  28.282  0.00  0.00    +0.047 A 
ATOM     28  C   UNL     1       1.741   3.892  28.262  0.00  0.00    +0.136 A 
ATOM     29  C   UNL     1       2.525   4.588  27.314  0.00  0.00    +0.085 A 
ATOM     30 BR   UNL     1       2.414   6.502  27.252  0.00  0.00    -0.044 Br
ATOM     31  C   UNL     1       3.398   3.933  26.417  0.00  0.00    +0.093 A 
ATOM     32  N   UNL     1       4.182   4.617  25.539  0.00  0.00    -0.244 NA
BRANCH  22  39
ATOM     33  C   UNL     1      10.211   5.185  23.733  0.00  0.00    +0.221 C 
ATOM     34  N   UNL     1       9.210   5.894  23.101  0.00  0.00    -0.264 N 
ATOM     35  H   UNL     1       9.427   6.634  22.450  0.00  0.00    +0.157 HD
ATOM     36  C   UNL     1       7.887   5.562  23.247  0.00  0.00    +0.165 A 
ATOM     37  S   UNL     1       6.834   6.382  22.181  0.00  0.00    -0.060 S 
ATOM     38  C   UNL     1       5.504   5.545  22.878  0.00  0.00    +0.078 A 
ATOM     39  C   UNL     1       5.947   4.732  23.907  0.00  0.00    +0.098 A 
ATOM     40  N   UNL     1       7.327   4.725  24.080  0.00  0.00    -0.223 NA
ATOM     41  O   UNL     1      10.066   4.157  24.378  0.00  0.00    -0.275 OA
BRANCH  33  43
ATOM     42  C   UNL     1      12.096   6.453  24.824  0.00  0.00    +0.017 C 
ATOM     43  C   UNL     1      11.602   5.795  23.535  0.00  0.00    +0.069 C 
ATOM     44  C   UNL     1      12.600   4.717  23.093  0.00  0.00    +0.017 C 
ENDBRANCH  33  43
ENDBRANCH  22  39
BRANCH  28  45
ATOM     45  O   UNL     1       0.966   4.630  29.121  0.00  0.00    -0.494 OA
ATOM     46  C   UNL     1       1.372   4.703  30.484  0.00  0.00    +0.277 C 
ENDBRANCH  28  45
ENDBRANCH  21  24
ENDBRANCH   1  21
BRANCH   4  47
ATOM     47  C   UNL     1       6.225  -4.716  25.951  0.00  0.00    +0.168 C 
BRANCH  47  48
ATOM     48  N   UNL     1       5.291  -4.323  24.886  0.00  0.00    -0.269 N 
ATOM     49  H   UNL     1       4.521  -3.703  25.100  0.00  0.00    +0.153 HD
ATOM     50  C   UNL     1       5.290  -4.897  23.645  0.00  0.00    +0.401 C 
ATOM     51  O   UNL     1       6.131  -5.688  23.248  0.00  0.00    -0.226 OA
BRANCH  50  52
ATOM     52  O   UNL     1       4.221  -4.461  22.923  0.00  0.00    -0.447 OA
BRANCH  52  53
ATOM     53  C   UNL     1       2.964  -5.093  23.226  0.00  0.00    +0.178 C 
ATOM     54  C   UNL     1       2.306  -4.437  24.447  0.00  0.00    +0.045 C 
ATOM     55  C   UNL     1       1.618  -5.562  25.228  0.00  0.00    +0.004 C 
ATOM     56  C   UNL     1       1.847  -6.832  24.420  0.00  0.00    +0.004 C 
ATOM     57  C   UNL     1       3.126  -6.551  23.646  0.00  0.00    +0.045 C 
ENDBRANCH  52  53
ENDBRANCH  50  52
ENDBRANCH  47  48
BRANCH  47  58
ATOM     58  C   UNL     1       5.459  -5.346  27.183  0.00  0.00    -0.011 C 
ATOM     59  C   UNL     1       6.437  -5.591  28.355  0.00  0.00    +0.013 C 
ATOM     60  C   UNL     1       4.875  -6.726  26.795  0.00  0.00    +0.013 C 
ATOM     61  C   UNL     1       4.283  -4.487  27.693  0.00  0.00    +0.013 C 
ENDBRANCH  47  58
ENDBRANCH   4  47
TORSDOF 15
ENDMDL
MODEL 3
REMARK VINA RESULT:      -7.2      2.590      7.312
REMARK  Name = 
REMARK  21 active torsions:
REMARK  status: ('A' for Active; 'I' for Inactive)
REMARK    1  A    between atoms: C_1  and  C_2
REMARK    2  A    between atoms: C_2  and  C_3
REMARK    3  A    between atoms: C_2  and  C_4
REMARK    4  A    between atoms: C_9  and  C_12
REMARK    5  A    between atoms: C_18  and  O_21
REMARK    6  A    between atoms: O_21  and  C_22
REMARK    7  A    between atoms: C_23  and  O_25
REMARK    8  A    between atoms: O_25  and  C_26
REMARK    9  A    between atoms: C_28  and  C_47
REMARK   10  A    between atoms: C_31  and  C_33
REMARK   11  A    between atoms: C_33  and  C_34
REMARK   12  A    between atoms: C_33  and  N_38
REMARK   13  A    between atoms: C_34  and  C_35
REMARK   14  A    between atoms: C_34  and  C_36
REMARK   15  A    between atoms: C_34  and  C_37
REMARK   16  A    between atoms: C_39  and  O_41
REMARK   17  A    between atoms: O_41  and  C_42
REMARK   18  A    between atoms: N_49  and  C_50
REMARK   19  A    between atoms: C_50  and  C_55
REMARK   20  A    between atoms: C_52  and  C_53
REMARK   21  A    between atoms: C_55  and  O_57
REMARK                            x       y       z     vdW  Elec       q    Type
REMARK                         _______ _______ _______ _____ _____    ______ ____
ROOT
ATOM      1  C   UNL     1       7.700  -0.939  22.816  0.00  0.00    +0.193 C 
ATOM      2  C   UNL     1       7.018  -0.535  24.140  0.00  0.00    +0.153 C 
ATOM      3  N   UNL     1       7.150  -1.722  24.987  0.00  0.00    -0.285 N 
ATOM      4  C   UNL     1       6.609  -1.946  26.236  0.00  0.00    +0.237 C 
ATOM      5  O   UNL     1       6.945  -2.972  26.836  0.00  0.00    -0.274 OA
ATOM      6  C   UNL     1       8.162  -2.639  24.420  0.00  0.00    +0.166 C 
ATOM      7  C   UNL     1       8.849  -1.802  23.345  0.00  0.00    +0.078 C 
ENDROOT
BRANCH   6   8
ATOM      8  C   UNL     1       7.586  -3.934  23.791  0.00  0.00    +0.235 C 
ATOM      9  N   UNL     1       6.219  -4.019  23.748  0.00  0.00    -0.298 N 
ATOM     10  H   UNL     1       5.678  -3.327  24.274  0.00  0.00    +0.150 HD
ATOM     11  O   UNL     1       8.291  -4.886  23.463  0.00  0.00    -0.274 OA
BRANCH   9  12
ATOM     12  C   UNL     1       5.508  -5.164  23.207  0.00  0.00    +0.138 C 
ATOM     13  C   UNL     1       4.993  -6.181  24.227  0.00  0.00    +0.048 C 
ATOM     14  C   UNL     1       4.013  -5.404  23.403  0.00  0.00    +0.048 C 
BRANCH  12  15
ATOM     15  C   UNL     1       5.960  -5.593  21.834  0.00  0.00    +0.329 C 
ATOM     16  O   UNL     1       5.753  -4.936  20.827  0.00  0.00    -0.249 OA
BRANCH  15  17
ATOM     17  O   UNL     1       6.630  -6.773  21.857  0.00  0.00    -0.479 OA
ATOM     18  H   UNL     1       7.528  -6.655  22.245  0.00  0.00    +0.295 HD
ENDBRANCH  15  17
ENDBRANCH  12  15
BRANCH  13  19
ATOM     19  C   UNL     1       4.911  -5.874  25.668  0.00  0.00    -0.028 C 
ATOM     20  C   UNL     1       4.930  -6.769  26.665  0.00  0.00    +0.004 C 
ENDBRANCH  13  19
ENDBRANCH   9  12
ENDBRANCH   6   8
BRANCH   1  21
ATOM     21  O   UNL     1       8.173   0.191  22.097  0.00  0.00    -0.486 OA
BRANCH  21  24
ATOM     22  C   UNL     1       6.216   3.128  23.151  0.00  0.00    +0.094 A 
ATOM     23  C   UNL     1       6.465   1.857  22.658  0.00  0.00    +0.076 A 
ATOM     24  C   UNL     1       7.788   1.440  22.538  0.00  0.00    +0.132 A 
ATOM     25  C   UNL     1       8.833   2.324  22.886  0.00  0.00    +0.043 A 
ATOM     26  C   UNL     1      10.186   1.959  22.735  0.00  0.00    +0.017 A 
ATOM     27  C   UNL     1      11.218   2.847  23.001  0.00  0.00    +0.047 A 
ATOM     28  C   UNL     1      10.928   4.125  23.462  0.00  0.00    +0.136 A 
ATOM     29  C   UNL     1       9.576   4.482  23.662  0.00  0.00    +0.085 A 
ATOM     30 BR   UNL     1       9.174   6.230  24.344  0.00  0.00    -0.044 Br
ATOM     31  C   UNL     1       8.504   3.609  23.369  0.00  0.00    +0.093 A 
ATOM     32  N   UNL     1       7.203   3.981  23.522  0.00  0.00    -0.244 NA
BRANCH  22  39
ATOM     33  C   UNL     1       2.691   5.796  26.253  0.00  0.00    +0.221 C 
ATOM     34  N   UNL     1       2.242   5.175  25.106  0.00  0.00    -0.264 N 
ATOM     35  H   UNL     1       1.270   5.218  24.837  0.00  0.00    +0.157 HD
ATOM     36  C   UNL     1       3.103   4.564  24.229  0.00  0.00    +0.165 A 
ATOM     37  S   UNL     1       2.387   4.095  22.751  0.00  0.00    -0.060 S 
ATOM     38  C   UNL     1       3.904   3.472  22.235  0.00  0.00    +0.078 A 
ATOM     39  C   UNL     1       4.841   3.621  23.242  0.00  0.00    +0.098 A 
ATOM     40  N   UNL     1       4.372   4.287  24.369  0.00  0.00    -0.223 NA
ATOM     41  O   UNL     1       3.861   5.972  26.563  0.00  0.00    -0.275 OA
BRANCH  33  43
ATOM     42  C   UNL     1       0.632   5.161  27.560  0.00  0.00    +0.017 C 
ATOM     43  C   UNL     1       1.559   6.306  27.149  0.00  0.00    +0.069 C 
ATOM     44  C   UNL     1       2.131   6.978  28.403  0.00  0.00    +0.017 C 
ENDBRANCH  33  43
ENDBRANCH  22  39
BRANCH  28  45
ATOM     45  O   UNL     1      11.889   5.067  23.731  0.00  0.00    -0.494 OA
ATOM     46  C   UNL     1      12.830   5.367  22.704  0.00  0.00    +0.277 C 
ENDBRANCH  28  45
ENDBRANCH  21  24
ENDBRANCH   1  21
BRANCH   4  47
ATOM     47  C   UNL     1       5.602  -0.916  26.855  0.00  0.00    +0.168 C 
BRANCH  47  48
ATOM     48  N   UNL     1       6.187  -0.294  28.050  0.00  0.00    -0.269 N 
ATOM     49  H   UNL     1       6.005  -0.693  28.962  0.00  0.00    +0.153 HD
ATOM     50  C   UNL     1       6.822   0.917  28.027  0.00  0.00    +0.401 C 
ATOM     51  O   UNL     1       7.086   1.540  27.011  0.00  0.00    -0.226 OA
BRANCH  50  52
ATOM     52  O   UNL     1       7.115   1.322  29.294  0.00  0.00    -0.447 OA
BRANCH  52  53
ATOM     53  C   UNL     1       6.307   2.397  29.807  0.00  0.00    +0.178 C 
ATOM     54  C   UNL     1       4.827   2.173  29.471  0.00  0.00    +0.045 C 
ATOM     55  C   UNL     1       4.234   3.554  29.175  0.00  0.00    +0.004 C 
ATOM     56  C   UNL     1       5.365   4.551  29.394  0.00  0.00    +0.004 C 
ATOM     57  C   UNL     1       6.625   3.737  29.149  0.00  0.00    +0.045 C 
ENDBRANCH  52  53
ENDBRANCH  50  52
ENDBRANCH  47  48
BRANCH  47  58
ATOM     58  C   UNL     1       4.174  -1.523  27.163  0.00  0.00    -0.011 C 
ATOM     59  C   UNL     1       3.123  -0.395  27.275  0.00  0.00    +0.013 C 
ATOM     60  C   UNL     1       4.191  -2.253  28.528  0.00  0.00    +0.013 C 
ATOM     61  C   UNL     1       3.691  -2.545  26.112  0.00  0.00    +0.013 C 
ENDBRANCH  47  58
ENDBRANCH   4  47
TORSDOF 15
ENDMDL
MODEL 4
REMARK VINA RESULT:      -7.2      3.184      7.459
REMARK  Name = 
REMARK  21 active torsions:
REMARK  status: ('A' for Active; 'I' for Inactive)
REMARK    1  A    between atoms: C_1  and  C_2
REMARK    2  A    between atoms: C_2  and  C_3
REMARK    3  A    between atoms: C_2  and  C_4
REMARK    4  A    between atoms: C_9  and  C_12
REMARK    5  A    between atoms: C_18  and  O_21
REMARK    6  A    between atoms: O_21  and  C_22
REMARK    7  A    between atoms: C_23  and  O_25
REMARK    8  A    between atoms: O_25  and  C_26
REMARK    9  A    between atoms: C_28  and  C_47
REMARK   10  A    between atoms: C_31  and  C_33
REMARK   11  A    between atoms: C_33  and  C_34
REMARK   12  A    between atoms: C_33  and  N_38
REMARK   13  A    between atoms: C_34  and  C_35
REMARK   14  A    between atoms: C_34  and  C_36
REMARK   15  A    between atoms: C_34  and  C_37
REMARK   16  A    between atoms: C_39  and  O_41
REMARK   17  A    between atoms: O_41  and  C_42
REMARK   18  A    between atoms: N_49  and  C_50
REMARK   19  A    between atoms: C_50  and  C_55
REMARK   20  A    between atoms: C_52  and  C_53
REMARK   21  A    between atoms: C_55  and  O_57
REMARK                            x       y       z     vdW  Elec       q    Type
REMARK                         _______ _______ _______ _____ _____    ______ ____
ROOT
ATOM      1  C   UNL     1       7.583  -0.873  22.751  0.00  0.00    +0.193 C 
ATOM      2  C   UNL     1       6.908  -0.474  24.081  0.00  0.00    +0.153 C 
ATOM      3  N   UNL     1       7.079  -1.652  24.934  0.00  0.00    -0.285 N 
ATOM      4  C   UNL     1       6.559  -1.879  26.192  0.00  0.00    +0.237 C 
ATOM      5  O   UNL     1       6.928  -2.891  26.796  0.00  0.00    -0.274 OA
ATOM      6  C   UNL     1       8.105  -2.549  24.362  0.00  0.00    +0.166 C 
ATOM      7  C   UNL     1       8.759  -1.704  23.272  0.00  0.00    +0.078 C 
ENDROOT
BRANCH   6   8
ATOM      8  C   UNL     1       7.553  -3.862  23.750  0.00  0.00    +0.235 C 
ATOM      9  N   UNL     1       6.188  -3.980  23.726  0.00  0.00    -0.298 N 
ATOM     10  H   UNL     1       5.638  -3.297  24.255  0.00  0.00    +0.150 HD
ATOM     11  O   UNL     1       8.277  -4.798  23.418  0.00  0.00    -0.274 OA
BRANCH   9  12
ATOM     12  C   UNL     1       5.498  -5.146  23.203  0.00  0.00    +0.138 C 
ATOM     13  C   UNL     1       5.030  -6.172  24.237  0.00  0.00    +0.048 C 
ATOM     14  C   UNL     1       4.014  -5.426  23.429  0.00  0.00    +0.048 C 
BRANCH  12  15
ATOM     15  C   UNL     1       5.934  -5.568  21.822  0.00  0.00    +0.329 C 
ATOM     16  O   UNL     1       5.782  -4.872  20.833  0.00  0.00    -0.249 OA
BRANCH  15  17
ATOM     17  O   UNL     1       6.523  -6.791  21.819  0.00  0.00    -0.479 OA
ATOM     18  H   UNL     1       7.406  -6.750  21.382  0.00  0.00    +0.295 HD
ENDBRANCH  15  17
ENDBRANCH  12  15
BRANCH  13  19
ATOM     19  C   UNL     1       4.968  -5.863  25.677  0.00  0.00    -0.028 C 
ATOM     20  C   UNL     1       4.900  -6.758  26.672  0.00  0.00    +0.004 C 
ENDBRANCH  13  19
ENDBRANCH   9  12
ENDBRANCH   6   8
BRANCH   1  21
ATOM     21  O   UNL     1       8.020   0.263  22.018  0.00  0.00    -0.486 OA
BRANCH  21  24
ATOM     22  C   UNL     1       6.186   3.242  23.173  0.00  0.00    +0.094 A 
ATOM     23  C   UNL     1       6.383   1.981  22.631  0.00  0.00    +0.076 A 
ATOM     24  C   UNL     1       7.687   1.510  22.506  0.00  0.00    +0.132 A 
ATOM     25  C   UNL     1       8.767   2.329  22.900  0.00  0.00    +0.043 A 
ATOM     26  C   UNL     1      10.104   1.909  22.747  0.00  0.00    +0.017 A 
ATOM     27  C   UNL     1      11.172   2.737  23.058  0.00  0.00    +0.047 A 
ATOM     28  C   UNL     1      10.936   4.007  23.568  0.00  0.00    +0.136 A 
ATOM     29  C   UNL     1       9.599   4.418  23.770  0.00  0.00    +0.085 A 
ATOM     30 BR   UNL     1       9.270   6.153  24.520  0.00  0.00    -0.044 Br
ATOM     31  C   UNL     1       8.492   3.608  23.431  0.00  0.00    +0.093 A 
ATOM     32  N   UNL     1       7.208   4.033  23.588  0.00  0.00    -0.244 NA
BRANCH  22  39
ATOM     33  C   UNL     1       1.732   4.495  20.390  0.00  0.00    +0.221 C 
ATOM     34  N   UNL     1       1.833   4.888  21.709  0.00  0.00    -0.264 N 
ATOM     35  H   UNL     1       1.088   5.399  22.159  0.00  0.00    +0.157 HD
ATOM     36  C   UNL     1       2.896   4.518  22.494  0.00  0.00    +0.165 A 
ATOM     37  S   UNL     1       2.704   4.876  24.153  0.00  0.00    -0.060 S 
ATOM     38  C   UNL     1       4.256   4.203  24.460  0.00  0.00    +0.078 A 
ATOM     39  C   UNL     1       4.835   3.793  23.271  0.00  0.00    +0.098 A 
ATOM     40  N   UNL     1       4.021   3.948  22.154  0.00  0.00    -0.223 NA
ATOM     41  O   UNL     1       2.476   3.714  19.814  0.00  0.00    -0.275 OA
BRANCH  33  43
ATOM     42  C   UNL     1       0.445   6.616  19.945  0.00  0.00    +0.017 C 
ATOM     43  C   UNL     1       0.535   5.115  19.664  0.00  0.00    +0.069 C 
ATOM     44  C   UNL     1       0.647   4.881  18.152  0.00  0.00    +0.017 C 
ENDBRANCH  33  43
ENDBRANCH  22  39
BRANCH  28  45
ATOM     45  O   UNL     1      11.936   4.892  23.885  0.00  0.00    -0.494 OA
ATOM     46  C   UNL     1      12.806   5.312  22.838  0.00  0.00    +0.277 C 
ENDBRANCH  28  45
ENDBRANCH  21  24
ENDBRANCH   1  21
BRANCH   4  47
ATOM     47  C   UNL     1       5.536  -0.869  26.817  0.00  0.00    +0.168 C 
BRANCH  47  48
ATOM     48  N   UNL     1       6.108  -0.250  28.020  0.00  0.00    -0.269 N 
ATOM     49  H   UNL     1       5.880  -0.625  28.932  0.00  0.00    +0.153 HD
ATOM     50  C   UNL     1       6.793   0.933  27.999  0.00  0.00    +0.401 C 
ATOM     51  O   UNL     1       7.115   1.527  26.981  0.00  0.00    -0.226 OA
BRANCH  50  52
ATOM     52  O   UNL     1       7.061   1.348  29.267  0.00  0.00    -0.447 OA
BRANCH  52  53
ATOM     53  C   UNL     1       6.252   2.435  29.753  0.00  0.00    +0.178 C 
ATOM     54  C   UNL     1       4.800   2.284  29.282  0.00  0.00    +0.045 C 
ATOM     55  C   UNL     1       4.287   3.698  28.992  0.00  0.00    +0.004 C 
ATOM     56  C   UNL     1       5.430   4.639  29.348  0.00  0.00    +0.004 C 
ATOM     57  C   UNL     1       6.676   3.784  29.179  0.00  0.00    +0.045 C 
ENDBRANCH  52  53
ENDBRANCH  50  52
ENDBRANCH  47  48
BRANCH  47  58
ATOM     58  C   UNL     1       4.116  -1.498  27.113  0.00  0.00    -0.011 C 
ATOM     59  C   UNL     1       3.051  -0.384  27.242  0.00  0.00    +0.013 C 
ATOM     60  C   UNL     1       4.140  -2.249  28.466  0.00  0.00    +0.013 C 
ATOM     61  C   UNL     1       3.646  -2.508  26.045  0.00  0.00    +0.013 C 
ENDBRANCH  47  58
ENDBRANCH   4  47
TORSDOF 15
ENDMDL
MODEL 5
REMARK VINA RESULT:      -6.6      2.425      7.037
REMARK  Name = 
REMARK  21 active torsions:
REMARK  status: ('A' for Active; 'I' for Inactive)
REMARK    1  A    between atoms: C_1  and  C_2
REMARK    2  A    between atoms: C_2  and  C_3
REMARK    3  A    between atoms: C_2  and  C_4
REMARK    4  A    between atoms: C_9  and  C_12
REMARK    5  A    between atoms: C_18  and  O_21
REMARK    6  A    between atoms: O_21  and  C_22
REMARK    7  A    between atoms: C_23  and  O_25
REMARK    8  A    between atoms: O_25  and  C_26
REMARK    9  A    between atoms: C_28  and  C_47
REMARK   10  A    between atoms: C_31  and  C_33
REMARK   11  A    between atoms: C_33  and  C_34
REMARK   12  A    between atoms: C_33  and  N_38
REMARK   13  A    between atoms: C_34  and  C_35
REMARK   14  A    between atoms: C_34  and  C_36
REMARK   15  A    between atoms: C_34  and  C_37
REMARK   16  A    between atoms: C_39  and  O_41
REMARK   17  A    between atoms: O_41  and  C_42
REMARK   18  A    between atoms: N_49  and  C_50
REMARK   19  A    between atoms: C_50  and  C_55
REMARK   20  A    between atoms: C_52  and  C_53
REMARK   21  A    between atoms: C_55  and  O_57
REMARK                            x       y       z     vdW  Elec       q    Type
REMARK                         _______ _______ _______ _____ _____    ______ ____
ROOT
ATOM      1  C   UNL     1       7.808  -1.015  22.826  0.00  0.00    +0.193 C 
ATOM      2  C   UNL     1       7.469  -0.672  24.292  0.00  0.00    +0.153 C 
ATOM      3  N   UNL     1       7.730  -1.916  25.018  0.00  0.00    -0.285 N 
ATOM      4  C   UNL     1       7.478  -2.200  26.344  0.00  0.00    +0.237 C 
ATOM      5  O   UNL     1       7.891  -3.275  26.794  0.00  0.00    -0.274 OA
ATOM      6  C   UNL     1       8.538  -2.831  24.183  0.00  0.00    +0.166 C 
ATOM      7  C   UNL     1       9.003  -1.952  23.026  0.00  0.00    +0.078 C 
ENDROOT
BRANCH   6   8
ATOM      8  C   UNL     1       7.768  -4.060  23.635  0.00  0.00    +0.235 C 
ATOM      9  N   UNL     1       6.410  -3.912  23.524  0.00  0.00    -0.298 N 
ATOM     10  H   UNL     1       5.980  -3.092  23.959  0.00  0.00    +0.150 HD
ATOM     11  O   UNL     1       8.308  -5.145  23.427  0.00  0.00    -0.274 OA
BRANCH   9  12
ATOM     12  C   UNL     1       5.531  -4.964  23.043  0.00  0.00    +0.138 C 
ATOM     13  C   UNL     1       4.885  -5.844  24.114  0.00  0.00    +0.048 C 
ATOM     14  C   UNL     1       4.020  -4.970  23.259  0.00  0.00    +0.048 C 
BRANCH  12  15
ATOM     15  C   UNL     1       5.896  -5.518  21.689  0.00  0.00    +0.329 C 
ATOM     16  O   UNL     1       5.821  -4.868  20.659  0.00  0.00    -0.249 OA
BRANCH  15  17
ATOM     17  O   UNL     1       6.328  -6.803  21.757  0.00  0.00    -0.479 OA
ATOM     18  H   UNL     1       7.173  -6.859  22.262  0.00  0.00    +0.295 HD
ENDBRANCH  15  17
ENDBRANCH  12  15
BRANCH  13  19
ATOM     19  C   UNL     1       4.868  -5.462  25.538  0.00  0.00    -0.028 C 
ATOM     20  C   UNL     1       5.345  -6.194  26.554  0.00  0.00    +0.004 C 
ENDBRANCH  13  19
ENDBRANCH   9  12
ENDBRANCH   6   8
BRANCH   1  21
ATOM     21  O   UNL     1       8.162   0.142  22.079  0.00  0.00    -0.486 OA
BRANCH  21  24
ATOM     22  C   UNL     1       6.065   2.972  23.157  0.00  0.00    +0.094 A 
ATOM     23  C   UNL     1       6.376   1.724  22.641  0.00  0.00    +0.076 A 
ATOM     24  C   UNL     1       7.716   1.364  22.540  0.00  0.00    +0.132 A 
ATOM     25  C   UNL     1       8.718   2.281  22.930  0.00  0.00    +0.043 A 
ATOM     26  C   UNL     1      10.087   1.974  22.799  0.00  0.00    +0.017 A 
ATOM     27  C   UNL     1      11.077   2.896  23.107  0.00  0.00    +0.047 A 
ATOM     28  C   UNL     1      10.726   4.151  23.590  0.00  0.00    +0.136 A 
ATOM     29  C   UNL     1       9.356   4.449  23.769  0.00  0.00    +0.085 A 
ATOM     30 BR   UNL     1       8.870   6.162  24.482  0.00  0.00    -0.044 Br
ATOM     31  C   UNL     1       8.326   3.540  23.434  0.00  0.00    +0.093 A 
ATOM     32  N   UNL     1       7.009   3.856  23.568  0.00  0.00    -0.244 NA
BRANCH  22  39
ATOM     33  C   UNL     1       2.342   5.317  26.288  0.00  0.00    +0.221 C 
ATOM     34  N   UNL     1       1.954   4.749  25.092  0.00  0.00    -0.264 N 
ATOM     35  H   UNL     1       0.989   4.771  24.794  0.00  0.00    +0.157 HD
ATOM     36  C   UNL     1       2.865   4.224  24.211  0.00  0.00    +0.165 A 
ATOM     37  S   UNL     1       2.216   3.818  22.684  0.00  0.00    -0.060 S 
ATOM     38  C   UNL     1       3.771   3.283  22.184  0.00  0.00    +0.078 A 
ATOM     39  C   UNL     1       4.669   3.407  23.229  0.00  0.00    +0.098 A 
ATOM     40  N   UNL     1       4.139   3.987  24.377  0.00  0.00    -0.223 NA
ATOM     41  O   UNL     1       3.493   5.517  26.647  0.00  0.00    -0.275 OA
BRANCH  33  43
ATOM     42  C   UNL     1       1.574   5.764  28.646  0.00  0.00    +0.017 C 
ATOM     43  C   UNL     1       1.162   5.730  27.174  0.00  0.00    +0.069 C 
ATOM     44  C   UNL     1       0.636   7.108  26.755  0.00  0.00    +0.017 C 
ENDBRANCH  33  43
ENDBRANCH  22  39
BRANCH  28  45
ATOM     45  O   UNL     1      11.641   5.125  23.900  0.00  0.00    -0.494 OA
ATOM     46  C   UNL     1      12.859   5.149  23.162  0.00  0.00    +0.277 C 
ENDBRANCH  28  45
ENDBRANCH  21  24
ENDBRANCH   1  21
BRANCH   4  47
ATOM     47  C   UNL     1       6.694  -1.177  27.235  0.00  0.00    +0.168 C 
BRANCH  47  48
ATOM     48  N   UNL     1       5.385  -0.886  26.636  0.00  0.00    -0.269 N 
ATOM     49  H   UNL     1       5.274  -0.070  26.048  0.00  0.00    +0.153 HD
ATOM     50  C   UNL     1       4.242  -1.555  26.977  0.00  0.00    +0.401 C 
ATOM     51  O   UNL     1       4.206  -2.538  27.701  0.00  0.00    -0.226 OA
BRANCH  50  52
ATOM     52  O   UNL     1       3.159  -0.971  26.394  0.00  0.00    -0.447 OA
BRANCH  52  53
ATOM     53  C   UNL     1       2.514   0.059  27.165  0.00  0.00    +0.178 C 
ATOM     54  C   UNL     1       3.064   1.441  26.791  0.00  0.00    +0.045 C 
ATOM     55  C   UNL     1       3.108   2.257  28.088  0.00  0.00    +0.004 C 
ATOM     56  C   UNL     1       2.539   1.351  29.172  0.00  0.00    +0.004 C 
ATOM     57  C   UNL     1       2.812  -0.054  28.658  0.00  0.00    +0.045 C 
ENDBRANCH  52  53
ENDBRANCH  50  52
ENDBRANCH  47  48
BRANCH  47  58
ATOM     58  C   UNL     1       7.495   0.153  27.539  0.00  0.00    -0.011 C 
ATOM     59  C   UNL     1       7.128   0.694  28.940  0.00  0.00    +0.013 C 
ATOM     60  C   UNL     1       7.106   1.252  26.521  0.00  0.00    +0.013 C 
ATOM     61  C   UNL     1       9.028  -0.012  27.461  0.00  0.00    +0.013 C 
ENDBRANCH  47  58
ENDBRANCH   4  47
TORSDOF 15
ENDMDL
MODEL 6
REMARK VINA RESULT:      -6.5      2.468      6.702
REMARK  Name = 
REMARK  21 active torsions:
REMARK  status: ('A' for Active; 'I' for Inactive)
REMARK    1  A    between atoms: C_1  and  C_2
REMARK    2  A    between atoms: C_2  and  C_3
REMARK    3  A    between atoms: C_2  and  C_4
REMARK    4  A    between atoms: C_9  and  C_12
REMARK    5  A    between atoms: C_18  and  O_21
REMARK    6  A    between atoms: O_21  and  C_22
REMARK    7  A    between atoms: C_23  and  O_25
REMARK    8  A    between atoms: O_25  and  C_26
REMARK    9  A    between atoms: C_28  and  C_47
REMARK   10  A    between atoms: C_31  and  C_33
REMARK   11  A    between atoms: C_33  and  C_34
REMARK   12  A    between atoms: C_33  and  N_38
REMARK   13  A    between atoms: C_34  and  C_35
REMARK   14  A    between atoms: C_34  and  C_36
REMARK   15  A    between atoms: C_34  and  C_37
REMARK   16  A    between atoms: C_39  and  O_41
REMARK   17  A    between atoms: O_41  and  C_42
REMARK   18  A    between atoms: N_49  and  C_50
REMARK   19  A    between atoms: C_50  and  C_55
REMARK   20  A    between atoms: C_52  and  C_53
REMARK   21  A    between atoms: C_55  and  O_57
REMARK                            x       y       z     vdW  Elec       q    Type
REMARK                         _______ _______ _______ _____ _____    ______ ____
ROOT
ATOM      1  C   UNL     1       7.779   0.000  22.885  0.00  0.00    +0.193 C 
ATOM      2  C   UNL     1       7.146   0.321  24.256  0.00  0.00    +0.153 C 
ATOM      3  N   UNL     1       7.892  -0.515  25.198  0.00  0.00    -0.285 N 
ATOM      4  C   UNL     1       7.656  -0.705  26.544  0.00  0.00    +0.237 C 
ATOM      5  O   UNL     1       8.483  -1.358  27.189  0.00  0.00    -0.274 OA
ATOM      6  C   UNL     1       9.134  -1.007  24.566  0.00  0.00    +0.166 C 
ATOM      7  C   UNL     1       9.245  -0.178  23.289  0.00  0.00    +0.078 C 
ENDROOT
BRANCH   6   8
ATOM      8  C   UNL     1       9.131  -2.517  24.215  0.00  0.00    +0.235 C 
ATOM      9  N   UNL     1       8.007  -3.211  24.581  0.00  0.00    -0.298 N 
ATOM     10  H   UNL     1       7.337  -2.747  25.198  0.00  0.00    +0.150 HD
ATOM     11  O   UNL     1      10.112  -3.096  23.753  0.00  0.00    -0.274 OA
BRANCH   9  12
ATOM     12  C   UNL     1       7.838  -4.635  24.344  0.00  0.00    +0.138 C 
ATOM     13  C   UNL     1       6.459  -5.075  23.848  0.00  0.00    +0.048 C 
ATOM     14  C   UNL     1       7.651  -5.247  22.958  0.00  0.00    +0.048 C 
BRANCH  12  15
ATOM     15  C   UNL     1       8.673  -5.523  25.231  0.00  0.00    +0.329 C 
ATOM     16  O   UNL     1       8.391  -5.760  26.394  0.00  0.00    -0.249 OA
BRANCH  15  17
ATOM     17  O   UNL     1       9.751  -6.033  24.582  0.00  0.00    -0.479 OA
ATOM     18  H   UNL     1      10.228  -5.323  24.092  0.00  0.00    +0.295 HD
ENDBRANCH  15  17
ENDBRANCH  12  15
BRANCH  13  19
ATOM     19  C   UNL     1       5.472  -4.116  23.319  0.00  0.00    -0.028 C 
ATOM     20  C   UNL     1       4.147  -4.303  23.261  0.00  0.00    +0.004 C 
ENDBRANCH  13  19
ENDBRANCH   9  12
ENDBRANCH   6   8
BRANCH   1  21
ATOM     21  O   UNL     1       7.610   1.066  21.961  0.00  0.00    -0.486 OA
BRANCH  21  24
ATOM     22  C   UNL     1       6.034   4.166  23.174  0.00  0.00    +0.094 A 
ATOM     23  C   UNL     1       6.123   2.903  22.612  0.00  0.00    +0.076 A 
ATOM     24  C   UNL     1       7.383   2.328  22.470  0.00  0.00    +0.132 A 
ATOM     25  C   UNL     1       8.530   3.050  22.868  0.00  0.00    +0.043 A 
ATOM     26  C   UNL     1       9.826   2.524  22.699  0.00  0.00    +0.017 A 
ATOM     27  C   UNL     1      10.961   3.256  23.015  0.00  0.00    +0.047 A 
ATOM     28  C   UNL     1      10.833   4.534  23.546  0.00  0.00    +0.136 A 
ATOM     29  C   UNL     1       9.535   5.050  23.764  0.00  0.00    +0.085 A 
ATOM     30 BR   UNL     1       9.355   6.794  24.542  0.00  0.00    -0.044 Br
ATOM     31  C   UNL     1       8.363   4.339  23.421  0.00  0.00    +0.093 A 
ATOM     32  N   UNL     1       7.119   4.865  23.593  0.00  0.00    -0.244 NA
BRANCH  22  39
ATOM     33  C   UNL     1       1.937   5.261  26.517  0.00  0.00    +0.221 C 
ATOM     34  N   UNL     1       1.809   5.561  25.177  0.00  0.00    -0.264 N 
ATOM     35  H   UNL     1       0.967   5.985  24.816  0.00  0.00    +0.157 HD
ATOM     36  C   UNL     1       2.848   5.395  24.296  0.00  0.00    +0.165 A 
ATOM     37  S   UNL     1       2.577   6.070  22.751  0.00  0.00    -0.060 S 
ATOM     38  C   UNL     1       4.132   5.525  22.259  0.00  0.00    +0.078 A 
ATOM     39  C   UNL     1       4.733   4.825  23.290  0.00  0.00    +0.098 A 
ATOM     40  N   UNL     1       3.995   4.793  24.469  0.00  0.00    -0.223 NA
ATOM     41  O   UNL     1       2.970   4.935  27.085  0.00  0.00    -0.275 OA
BRANCH  33  43
ATOM     42  C   UNL     1       0.443   4.237  28.269  0.00  0.00    +0.017 C 
ATOM     43  C   UNL     1       0.627   5.403  27.297  0.00  0.00    +0.069 C 
ATOM     44  C   UNL     1       0.607   6.726  28.072  0.00  0.00    +0.017 C 
ENDBRANCH  33  43
ENDBRANCH  22  39
BRANCH  28  45
ATOM     45  O   UNL     1      11.904   5.329  23.868  0.00  0.00    -0.494 OA
ATOM     46  C   UNL     1      12.897   5.541  22.869  0.00  0.00    +0.277 C 
ENDBRANCH  28  45
ENDBRANCH  21  24
ENDBRANCH   1  21
BRANCH   4  47
ATOM     47  C   UNL     1       6.374  -0.101  27.213  0.00  0.00    +0.168 C 
BRANCH  47  48
ATOM     48  N   UNL     1       5.171  -0.573  26.517  0.00  0.00    -0.269 N 
ATOM     49  H   UNL     1       4.453   0.089  26.252  0.00  0.00    +0.153 HD
ATOM     50  C   UNL     1       4.867  -1.898  26.363  0.00  0.00    +0.401 C 
ATOM     51  O   UNL     1       5.613  -2.817  26.663  0.00  0.00    -0.226 OA
BRANCH  50  52
ATOM     52  O   UNL     1       3.622  -2.040  25.830  0.00  0.00    -0.447 OA
BRANCH  52  53
ATOM     53  C   UNL     1       2.656  -2.697  26.670  0.00  0.00    +0.178 C 
ATOM     54  C   UNL     1       2.908  -4.209  26.710  0.00  0.00    +0.045 C 
ATOM     55  C   UNL     1       1.530  -4.879  26.758  0.00  0.00    +0.004 C 
ATOM     56  C   UNL     1       0.515  -3.745  26.797  0.00  0.00    +0.004 C 
ATOM     57  C   UNL     1       1.233  -2.585  26.127  0.00  0.00    +0.045 C 
ENDBRANCH  52  53
ENDBRANCH  50  52
ENDBRANCH  47  48
BRANCH  47  58
ATOM     58  C   UNL     1       6.393   1.477  27.323  0.00  0.00    -0.011 C 
ATOM     59  C   UNL     1       6.436   1.912  28.806  0.00  0.00    +0.013 C 
ATOM     60  C   UNL     1       5.093   2.066  26.724  0.00  0.00    +0.013 C 
ATOM     61  C   UNL     1       7.573   2.140  26.580  0.00  0.00    +0.013 C 
ENDBRANCH  47  58
ENDBRANCH   4  47
TORSDOF 15
ENDMDL
MODEL 7
REMARK VINA RESULT:      -6.0      3.395      8.874
REMARK  Name = 
REMARK  21 active torsions:
REMARK  status: ('A' for Active; 'I' for Inactive)
REMARK    1  A    between atoms: C_1  and  C_2
REMARK    2  A    between atoms: C_2  and  C_3
REMARK    3  A    between atoms: C_2  and  C_4
REMARK    4  A    between atoms: C_9  and  C_12
REMARK    5  A    between atoms: C_18  and  O_21
REMARK    6  A    between atoms: O_21  and  C_22
REMARK    7  A    between atoms: C_23  and  O_25
REMARK    8  A    between atoms: O_25  and  C_26
REMARK    9  A    between atoms: C_28  and  C_47
REMARK   10  A    between atoms: C_31  and  C_33
REMARK   11  A    between atoms: C_33  and  C_34
REMARK   12  A    between atoms: C_33  and  N_38
REMARK   13  A    between atoms: C_34  and  C_35
REMARK   14  A    between atoms: C_34  and  C_36
REMARK   15  A    between atoms: C_34  and  C_37
REMARK   16  A    between atoms: C_39  and  O_41
REMARK   17  A    between atoms: O_41  and  C_42
REMARK   18  A    between atoms: N_49  and  C_50
REMARK   19  A    between atoms: C_50  and  C_55
REMARK   20  A    between atoms: C_52  and  C_53
REMARK   21  A    between atoms: C_55  and  O_57
REMARK                            x       y       z     vdW  Elec       q    Type
REMARK                         _______ _______ _______ _____ _____    ______ ____
ROOT
ATOM      1  C   UNL     1       6.778   3.870  26.592  0.00  0.00    +0.193 C 
ATOM      2  C   UNL     1       7.881   4.032  25.524  0.00  0.00    +0.153 C 
ATOM      3  N   UNL     1       7.616   5.345  24.935  0.00  0.00    -0.285 N 
ATOM      4  C   UNL     1       8.232   5.936  23.850  0.00  0.00    +0.237 C 
ATOM      5  O   UNL     1       7.944   7.108  23.589  0.00  0.00    -0.274 OA
ATOM      6  C   UNL     1       6.701   6.116  25.803  0.00  0.00    +0.166 C 
ATOM      7  C   UNL     1       6.664   5.311  27.098  0.00  0.00    +0.078 C 
ENDROOT
BRANCH   6   8
ATOM      8  C   UNL     1       5.264   6.284  25.246  0.00  0.00    +0.235 C 
ATOM      9  N   UNL     1       4.976   5.568  24.113  0.00  0.00    -0.298 N 
ATOM     10  H   UNL     1       5.752   5.120  23.619  0.00  0.00    +0.150 HD
ATOM     11  O   UNL     1       4.462   7.095  25.704  0.00  0.00    -0.274 OA
BRANCH   9  12
ATOM     12  C   UNL     1       3.686   5.615  23.447  0.00  0.00    +0.138 C 
ATOM     13  C   UNL     1       2.865   4.325  23.478  0.00  0.00    +0.048 C 
ATOM     14  C   UNL     1       2.350   5.541  24.181  0.00  0.00    +0.048 C 
BRANCH  12  15
ATOM     15  C   UNL     1       3.619   6.559  22.273  0.00  0.00    +0.329 C 
ATOM     16  O   UNL     1       2.590   7.108  21.916  0.00  0.00    -0.249 OA
BRANCH  15  17
ATOM     17  O   UNL     1       4.828   6.732  21.681  0.00  0.00    -0.479 OA
ATOM     18  H   UNL     1       4.911   6.154  20.886  0.00  0.00    +0.295 HD
ENDBRANCH  15  17
ENDBRANCH  12  15
BRANCH  13  19
ATOM     19  C   UNL     1       3.183   3.214  24.395  0.00  0.00    -0.028 C 
ATOM     20  C   UNL     1       2.874   3.157  25.698  0.00  0.00    +0.004 C 
ENDBRANCH  13  19
ENDBRANCH   9  12
ENDBRANCH   6   8
BRANCH   1  21
ATOM     21  O   UNL     1       7.168   2.975  27.624  0.00  0.00    -0.486 OA
BRANCH  21  24
ATOM     22  C   UNL     1       6.569  -0.624  27.116  0.00  0.00    +0.094 A 
ATOM     23  C   UNL     1       7.210   0.601  27.017  0.00  0.00    +0.076 A 
ATOM     24  C   UNL     1       6.619   1.709  27.617  0.00  0.00    +0.132 A 
ATOM     25  C   UNL     1       5.379   1.568  28.277  0.00  0.00    +0.043 A 
ATOM     26  C   UNL     1       4.724   2.672  28.858  0.00  0.00    +0.017 A 
ATOM     27  C   UNL     1       3.470   2.558  29.440  0.00  0.00    +0.047 A 
ATOM     28  C   UNL     1       2.843   1.320  29.491  0.00  0.00    +0.136 A 
ATOM     29  C   UNL     1       3.514   0.198  28.955  0.00  0.00    +0.085 A 
ATOM     30 BR   UNL     1       2.672  -1.522  29.067  0.00  0.00    -0.044 Br
ATOM     31  C   UNL     1       4.777   0.291  28.327  0.00  0.00    +0.093 A 
ATOM     32  N   UNL     1       5.394  -0.789  27.773  0.00  0.00    -0.244 NA
BRANCH  22  39
ATOM     33  C   UNL     1       5.536  -4.646  23.664  0.00  0.00    +0.221 C 
ATOM     34  N   UNL     1       6.723  -4.652  24.367  0.00  0.00    -0.264 N 
ATOM     35  H   UNL     1       7.399  -5.391  24.242  0.00  0.00    +0.157 HD
ATOM     36  C   UNL     1       7.084  -3.612  25.186  0.00  0.00    +0.165 A 
ATOM     37  S   UNL     1       8.694  -3.686  25.751  0.00  0.00    -0.060 S 
ATOM     38  C   UNL     1       8.440  -2.222  26.615  0.00  0.00    +0.078 A 
ATOM     39  C   UNL     1       7.132  -1.800  26.453  0.00  0.00    +0.098 A 
ATOM     40  N   UNL     1       6.376  -2.592  25.595  0.00  0.00    -0.223 NA
ATOM     41  O   UNL     1       4.749  -3.713  23.592  0.00  0.00    -0.275 OA
BRANCH  33  43
ATOM     42  C   UNL     1       3.774  -6.254  22.851  0.00  0.00    +0.017 C 
ATOM     43  C   UNL     1       5.272  -5.952  22.909  0.00  0.00    +0.069 C 
ATOM     44  C   UNL     1       5.836  -5.870  21.485  0.00  0.00    +0.017 C 
ENDBRANCH  33  43
ENDBRANCH  22  39
BRANCH  28  45
ATOM     45  O   UNL     1       1.597   1.125  30.033  0.00  0.00    -0.494 OA
ATOM     46  C   UNL     1       0.621   2.143  29.833  0.00  0.00    +0.277 C 
ENDBRANCH  28  45
ENDBRANCH  21  24
ENDBRANCH   1  21
BRANCH   4  47
ATOM     47  C   UNL     1       9.266   5.126  22.993  0.00  0.00    +0.168 C 
BRANCH  47  48
ATOM     48  N   UNL     1       8.752   3.777  22.726  0.00  0.00    -0.269 N 
ATOM     49  H   UNL     1       9.354   2.976  22.863  0.00  0.00    +0.153 HD
ATOM     50  C   UNL     1       7.550   3.541  22.117  0.00  0.00    +0.401 C 
ATOM     51  O   UNL     1       6.728   4.405  21.854  0.00  0.00    -0.226 OA
BRANCH  50  52
ATOM     52  O   UNL     1       7.406   2.214  21.848  0.00  0.00    -0.447 OA
BRANCH  52  53
ATOM     53  C   UNL     1       8.370   1.344  22.470  0.00  0.00    +0.178 C 
ATOM     54  C   UNL     1       9.292   0.715  21.418  0.00  0.00    +0.045 C 
ATOM     55  C   UNL     1       9.578  -0.715  21.889  0.00  0.00    +0.004 C 
ATOM     56  C   UNL     1       8.859  -0.868  23.222  0.00  0.00    +0.004 C 
ATOM     57  C   UNL     1       7.721   0.138  23.145  0.00  0.00    +0.045 C 
ENDBRANCH  52  53
ENDBRANCH  50  52
ENDBRANCH  47  48
BRANCH  47  58
ATOM     58  C   UNL     1      10.717   5.075  23.620  0.00  0.00    -0.011 C 
ATOM     59  C   UNL     1      10.799   5.994  24.861  0.00  0.00    +0.013 C 
ATOM     60  C   UNL     1      11.754   5.608  22.602  0.00  0.00    +0.013 C 
ATOM     61  C   UNL     1      11.171   3.657  24.027  0.00  0.00    +0.013 C 
ENDBRANCH  47  58
ENDBRANCH   4  47
TORSDOF 15
ENDMDL
MODEL 8
REMARK VINA RESULT:      -6.0      2.705      6.300
REMARK  Name = 
REMARK  21 active torsions:
REMARK  status: ('A' for Active; 'I' for Inactive)
REMARK    1  A    between atoms: C_1  and  C_2
REMARK    2  A    between atoms: C_2  and  C_3
REMARK    3  A    between atoms: C_2  and  C_4
REMARK    4  A    between atoms: C_9  and  C_12
REMARK    5  A    between atoms: C_18  and  O_21
REMARK    6  A    between atoms: O_21  and  C_22
REMARK    7  A    between atoms: C_23  and  O_25
REMARK    8  A    between atoms: O_25  and  C_26
REMARK    9  A    between atoms: C_28  and  C_47
REMARK   10  A    between atoms: C_31  and  C_33
REMARK   11  A    between atoms: C_33  and  C_34
REMARK   12  A    between atoms: C_33  and  N_38
REMARK   13  A    between atoms: C_34  and  C_35
REMARK   14  A    between atoms: C_34  and  C_36
REMARK   15  A    between atoms: C_34  and  C_37
REMARK   16  A    between atoms: C_39  and  O_41
REMARK   17  A    between atoms: O_41  and  C_42
REMARK   18  A    between atoms: N_49  and  C_50
REMARK   19  A    between atoms: C_50  and  C_55
REMARK   20  A    between atoms: C_52  and  C_53
REMARK   21  A    between atoms: C_55  and  O_57
REMARK                            x       y       z     vdW  Elec       q    Type
REMARK                         _______ _______ _______ _____ _____    ______ ____
ROOT
ATOM      1  C   UNL     1       5.569   2.398  24.283  0.00  0.00    +0.193 C 
ATOM      2  C   UNL     1       6.016   0.924  24.192  0.00  0.00    +0.153 C 
ATOM      3  N   UNL     1       7.450   0.968  24.484  0.00  0.00    -0.285 N 
ATOM      4  C   UNL     1       8.368  -0.060  24.420  0.00  0.00    +0.237 C 
ATOM      5  O   UNL     1       9.512   0.160  24.828  0.00  0.00    -0.274 OA
ATOM      6  C   UNL     1       7.803   2.266  25.097  0.00  0.00    +0.166 C 
ATOM      7  C   UNL     1       6.451   2.889  25.434  0.00  0.00    +0.078 C 
ENDROOT
BRANCH   6   8
ATOM      8  C   UNL     1       8.609   3.221  24.179  0.00  0.00    +0.235 C 
ATOM      9  N   UNL     1       9.079   4.364  24.774  0.00  0.00    -0.298 N 
ATOM     10  H   UNL     1       8.732   4.595  25.709  0.00  0.00    +0.150 HD
ATOM     11  O   UNL     1       8.723   3.043  22.969  0.00  0.00    -0.274 OA
BRANCH   9  12
ATOM     12  C   UNL     1       9.840   5.376  24.064  0.00  0.00    +0.138 C 
ATOM     13  C   UNL     1       9.036   6.315  23.162  0.00  0.00    +0.048 C 
ATOM     14  C   UNL     1       9.744   6.871  24.358  0.00  0.00    +0.048 C 
BRANCH  12  15
ATOM     15  C   UNL     1      11.251   4.973  23.715  0.00  0.00    +0.329 C 
ATOM     16  O   UNL     1      12.236   5.548  24.147  0.00  0.00    -0.249 OA
BRANCH  15  17
ATOM     17  O   UNL     1      11.289   3.897  22.888  0.00  0.00    -0.479 OA
ATOM     18  H   UNL     1      12.168   3.831  22.445  0.00  0.00    +0.295 HD
ENDBRANCH  15  17
ENDBRANCH  12  15
BRANCH  13  19
ATOM     19  C   UNL     1       7.568   6.424  23.253  0.00  0.00    -0.028 C 
ATOM     20  C   UNL     1       6.685   5.877  22.408  0.00  0.00    +0.004 C 
ENDBRANCH  13  19
ENDBRANCH   9  12
ENDBRANCH   6   8
BRANCH   1  21
ATOM     21  O   UNL     1       4.186   2.514  24.589  0.00  0.00    -0.486 OA
BRANCH  21  24
ATOM     22  C   UNL     1       3.474   0.782  27.761  0.00  0.00    +0.094 A 
ATOM     23  C   UNL     1       3.879   0.944  26.445  0.00  0.00    +0.076 A 
ATOM     24  C   UNL     1       3.785   2.209  25.874  0.00  0.00    +0.132 A 
ATOM     25  C   UNL     1       3.254   3.279  26.627  0.00  0.00    +0.043 A 
ATOM     26  C   UNL     1       3.098   4.564  26.071  0.00  0.00    +0.017 A 
ATOM     27  C   UNL     1       2.506   5.601  26.778  0.00  0.00    +0.047 A 
ATOM     28  C   UNL     1       2.081   5.392  28.084  0.00  0.00    +0.136 A 
ATOM     29  C   UNL     1       2.279   4.120  28.666  0.00  0.00    +0.085 A 
ATOM     30 BR   UNL     1       1.737   3.842  30.485  0.00  0.00    -0.044 Br
ATOM     31  C   UNL     1       2.848   3.037  27.958  0.00  0.00    +0.093 A 
ATOM     32  N   UNL     1       2.992   1.802  28.514  0.00  0.00    -0.244 NA
BRANCH  22  39
ATOM     33  C   UNL     1       5.842  -4.070  27.645  0.00  0.00    +0.221 C 
ATOM     34  N   UNL     1       4.738  -3.880  28.450  0.00  0.00    -0.264 N 
ATOM     35  H   UNL     1       4.372  -4.630  29.018  0.00  0.00    +0.157 HD
ATOM     36  C   UNL     1       4.152  -2.648  28.594  0.00  0.00    +0.165 A 
ATOM     37  S   UNL     1       2.975  -2.568  29.830  0.00  0.00    -0.060 S 
ATOM     38  C   UNL     1       2.715  -0.911  29.452  0.00  0.00    +0.078 A 
ATOM     39  C   UNL     1       3.508  -0.544  28.380  0.00  0.00    +0.098 A 
ATOM     40  N   UNL     1       4.357  -1.546  27.923  0.00  0.00    -0.223 NA
ATOM     41  O   UNL     1       6.477  -3.192  27.078  0.00  0.00    -0.275 OA
BRANCH  33  43
ATOM     42  C   UNL     1       7.657  -5.658  26.913  0.00  0.00    +0.017 C 
ATOM     43  C   UNL     1       6.263  -5.538  27.530  0.00  0.00    +0.069 C 
ATOM     44  C   UNL     1       6.251  -6.208  28.909  0.00  0.00    +0.017 C 
ENDBRANCH  33  43
ENDBRANCH  22  39
BRANCH  28  45
ATOM     45  O   UNL     1       1.472   6.359  28.845  0.00  0.00    -0.494 OA
ATOM     46  C   UNL     1       2.287   7.106  29.744  0.00  0.00    +0.277 C 
ENDBRANCH  28  45
ENDBRANCH  21  24
ENDBRANCH   1  21
BRANCH   4  47
ATOM     47  C   UNL     1       7.948  -1.456  23.844  0.00  0.00    +0.168 C 
BRANCH  47  48
ATOM     48  N   UNL     1       6.656  -1.868  24.409  0.00  0.00    -0.269 N 
ATOM     49  H   UNL     1       6.526  -1.867  25.412  0.00  0.00    +0.153 HD
ATOM     50  C   UNL     1       5.661  -2.437  23.663  0.00  0.00    +0.401 C 
ATOM     51  O   UNL     1       5.683  -2.541  22.446  0.00  0.00    -0.226 OA
BRANCH  50  52
ATOM     52  O   UNL     1       4.651  -2.866  24.468  0.00  0.00    -0.447 OA
BRANCH  52  53
ATOM     53  C   UNL     1       4.082  -4.144  24.129  0.00  0.00    +0.178 C 
ATOM     54  C   UNL     1       3.035  -4.566  25.168  0.00  0.00    +0.045 C 
ATOM     55  C   UNL     1       3.167  -6.084  25.326  0.00  0.00    +0.004 C 
ATOM     56  C   UNL     1       4.247  -6.515  24.343  0.00  0.00    +0.004 C 
ATOM     57  C   UNL     1       5.108  -5.273  24.174  0.00  0.00    +0.045 C 
ENDBRANCH  52  53
ENDBRANCH  50  52
ENDBRANCH  47  48
BRANCH  47  58
ATOM     58  C   UNL     1       9.043  -2.582  24.033  0.00  0.00    -0.011 C 
ATOM     59  C   UNL     1      10.308  -2.245  23.211  0.00  0.00    +0.013 C 
ATOM     60  C   UNL     1       8.512  -3.934  23.499  0.00  0.00    +0.013 C 
ATOM     61  C   UNL     1       9.457  -2.809  25.503  0.00  0.00    +0.013 C 
ENDBRANCH  47  58
ENDBRANCH   4  47
TORSDOF 15
ENDMDL
MODEL 9
REMARK VINA RESULT:      -5.7      3.604     10.583
REMARK  Name = 
REMARK  21 active torsions:
REMARK  status: ('A' for Active; 'I' for Inactive)
REMARK    1  A    between atoms: C_1  and  C_2
REMARK    2  A    between atoms: C_2  and  C_3
REMARK    3  A    between atoms: C_2  and  C_4
REMARK    4  A    between atoms: C_9  and  C_12
REMARK    5  A    between atoms: C_18  and  O_21
REMARK    6  A    between atoms: O_21  and  C_22
REMARK    7  A    between atoms: C_23  and  O_25
REMARK    8  A    between atoms: O_25  and  C_26
REMARK    9  A    between atoms: C_28  and  C_47
REMARK   10  A    between atoms: C_31  and  C_33
REMARK   11  A    between atoms: C_33  and  C_34
REMARK   12  A    between atoms: C_33  and  N_38
REMARK   13  A    between atoms: C_34  and  C_35
REMARK   14  A    between atoms: C_34  and  C_36
REMARK   15  A    between atoms: C_34  and  C_37
REMARK   16  A    between atoms: C_39  and  O_41
REMARK   17  A    between atoms: O_41  and  C_42
REMARK   18  A    between atoms: N_49  and  C_50
REMARK   19  A    between atoms: C_50  and  C_55
REMARK   20  A    between atoms: C_52  and  C_53
REMARK   21  A    between atoms: C_55  and  O_57
REMARK                            x       y       z     vdW  Elec       q    Type
REMARK                         _______ _______ _______ _____ _____    ______ ____
ROOT
ATOM      1  C   UNL     1       6.319   2.159  27.897  0.00  0.00    +0.193 C 
ATOM      2  C   UNL     1       6.796   3.218  26.880  0.00  0.00    +0.153 C 
ATOM      3  N   UNL     1       6.261   4.478  27.400  0.00  0.00    -0.285 N 
ATOM      4  C   UNL     1       6.291   5.726  26.813  0.00  0.00    +0.237 C 
ATOM      5  O   UNL     1       5.891   6.687  27.477  0.00  0.00    -0.274 OA
ATOM      6  C   UNL     1       5.839   4.308  28.807  0.00  0.00    +0.166 C 
ATOM      7  C   UNL     1       6.425   2.955  29.201  0.00  0.00    +0.078 C 
ENDROOT
BRANCH   6   8
ATOM      8  C   UNL     1       4.305   4.303  29.029  0.00  0.00    +0.235 C 
ATOM      9  N   UNL     1       3.539   4.477  27.906  0.00  0.00    -0.298 N 
ATOM     10  H   UNL     1       4.010   4.767  27.044  0.00  0.00    +0.150 HD
ATOM     11  O   UNL     1       3.794   4.271  30.147  0.00  0.00    -0.274 OA
BRANCH   9  12
ATOM     12  C   UNL     1       2.087   4.513  27.929  0.00  0.00    +0.138 C 
ATOM     13  C   UNL     1       1.374   3.489  27.045  0.00  0.00    +0.048 C 
ATOM     14  C   UNL     1       1.222   3.410  28.532  0.00  0.00    +0.048 C 
BRANCH  12  15
ATOM     15  C   UNL     1       1.496   5.878  28.180  0.00  0.00    +0.329 C 
ATOM     16  O   UNL     1       1.749   6.852  27.492  0.00  0.00    -0.249 OA
BRANCH  15  17
ATOM     17  O   UNL     1       0.648   5.884  29.241  0.00  0.00    -0.479 OA
ATOM     18  H   UNL     1       0.072   6.684  29.219  0.00  0.00    +0.295 HD
ENDBRANCH  15  17
ENDBRANCH  12  15
BRANCH  13  19
ATOM     19  C   UNL     1       2.075   2.324  26.471  0.00  0.00    -0.028 C 
ATOM     20  C   UNL     1       2.366   1.186  27.114  0.00  0.00    +0.004 C 
ENDBRANCH  13  19
ENDBRANCH   9  12
ENDBRANCH   6   8
BRANCH   1  21
ATOM     21  O   UNL     1       7.161   1.015  27.905  0.00  0.00    -0.486 OA
BRANCH  21  24
ATOM     22  C   UNL     1       5.201  -1.826  26.617  0.00  0.00    +0.094 A 
ATOM     23  C   UNL     1       5.519  -0.737  27.414  0.00  0.00    +0.076 A 
ATOM     24  C   UNL     1       6.738  -0.098  27.208  0.00  0.00    +0.132 A 
ATOM     25  C   UNL     1       7.627  -0.588  26.225  0.00  0.00    +0.043 A 
ATOM     26  C   UNL     1       8.890   0.001  26.016  0.00  0.00    +0.017 A 
ATOM     27  C   UNL     1       9.800  -0.519  25.108  0.00  0.00    +0.047 A 
ATOM     28  C   UNL     1       9.459  -1.633  24.350  0.00  0.00    +0.136 A 
ATOM     29  C   UNL     1       8.175  -2.200  24.519  0.00  0.00    +0.085 A 
ATOM     30 BR   UNL     1       7.683  -3.708  23.439  0.00  0.00    -0.044 Br
ATOM     31  C   UNL     1       7.241  -1.710  25.460  0.00  0.00    +0.093 A 
ATOM     32  N   UNL     1       6.025  -2.293  25.646  0.00  0.00    -0.244 NA
BRANCH  22  39
ATOM     33  C   UNL     1       1.708  -5.332  24.458  0.00  0.00    +0.221 C 
ATOM     34  N   UNL     1       1.382  -4.700  25.639  0.00  0.00    -0.264 N 
ATOM     35  H   UNL     1       0.506  -4.886  26.106  0.00  0.00    +0.157 HD
ATOM     36  C   UNL     1       2.266  -3.872  26.285  0.00  0.00    +0.165 A 
ATOM     37  S   UNL     1       1.776  -3.405  27.853  0.00  0.00    -0.060 S 
ATOM     38  C   UNL     1       3.219  -2.483  28.010  0.00  0.00    +0.078 A 
ATOM     39  C   UNL     1       3.953  -2.556  26.840  0.00  0.00    +0.098 A 
ATOM     40  N   UNL     1       3.408  -3.392  25.871  0.00  0.00    -0.223 NA
ATOM     41  O   UNL     1       2.807  -5.329  23.921  0.00  0.00    -0.275 OA
BRANCH  33  43
ATOM     42  C   UNL     1       0.575  -6.028  22.317  0.00  0.00    +0.017 C 
ATOM     43  C   UNL     1       0.540  -6.110  23.844  0.00  0.00    +0.069 C 
ATOM     44  C   UNL     1       0.586  -7.578  24.282  0.00  0.00    +0.017 C 
ENDBRANCH  33  43
ENDBRANCH  22  39
BRANCH  28  45
ATOM     45  O   UNL     1      10.306  -2.219  23.444  0.00  0.00    -0.494 OA
ATOM     46  C   UNL     1      10.568  -1.517  22.232  0.00  0.00    +0.277 C 
ENDBRANCH  28  45
ENDBRANCH  21  24
ENDBRANCH   1  21
BRANCH   4  47
ATOM     47  C   UNL     1       6.823   5.896  25.348  0.00  0.00    +0.168 C 
BRANCH  47  48
ATOM     48  N   UNL     1       6.401   4.757  24.522  0.00  0.00    -0.269 N 
ATOM     49  H   UNL     1       6.713   3.825  24.758  0.00  0.00    +0.153 HD
ATOM     50  C   UNL     1       5.751   4.901  23.327  0.00  0.00    +0.401 C 
ATOM     51  O   UNL     1       5.340   5.964  22.887  0.00  0.00    -0.226 OA
BRANCH  50  52
ATOM     52  O   UNL     1       5.631   3.696  22.705  0.00  0.00    -0.447 OA
BRANCH  52  53
ATOM     53  C   UNL     1       6.722   2.779  22.904  0.00  0.00    +0.178 C 
ATOM     54  C   UNL     1       7.822   3.009  21.860  0.00  0.00    +0.045 C 
ATOM     55  C   UNL     1       8.386   1.628  21.510  0.00  0.00    +0.004 C 
ATOM     56  C   UNL     1       7.639   0.636  22.392  0.00  0.00    +0.004 C 
ATOM     57  C   UNL     1       6.315   1.325  22.681  0.00  0.00    +0.045 C 
ENDBRANCH  52  53
ENDBRANCH  50  52
ENDBRANCH  47  48
BRANCH  47  58
ATOM     58  C   UNL     1       8.386   6.123  25.257  0.00  0.00    -0.011 C 
ATOM     59  C   UNL     1       8.720   7.107  24.113  0.00  0.00    +0.013 C 
ATOM     60  C   UNL     1       9.098   4.791  24.921  0.00  0.00    +0.013 C 
ATOM     61  C   UNL     1       9.016   6.654  26.563  0.00  0.00    +0.013 C 
ENDBRANCH  47  58
ENDBRANCH   4  47
TORSDOF 15
ENDMDL
