MODEL 1
REMARK VINA RESULT:      -5.8      0.000      0.000
REMARK  Name = 
REMARK  12 active torsions:
REMARK  status: ('A' for Active; 'I' for Inactive)
REMARK    1  A    between atoms: C_1  and  C_2
REMARK    2  A    between atoms: C_2  and  C_3
REMARK    3  A    between atoms: C_3  and  C_4
REMARK    4  A    between atoms: C_3  and  C_6
REMARK    5  A    between atoms: C_4  and  C_5
REMARK    6  A    between atoms: C_6  and  C_7
REMARK    7  A    between atoms: C_6  and  N_21
REMARK    8  A    between atoms: C_9  and  N_17
REMARK    9  A    between atoms: C_11  and  C_14
REMARK   10  A    between atoms: C_12  and  O_13
REMARK   11  A    between atoms: C_14  and  O_16
REMARK   12  A    between atoms: C_22  and  C_24
REMARK                            x       y       z     vdW  Elec       q    Type
REMARK                         _______ _______ _______ _____ _____    ______ ____
ROOT
ATOM      1  C   UNL     1       8.040  -2.683  23.343  0.00  0.00    +0.079 C 
ATOM      2  C   UNL     1       9.139  -1.929  22.569  0.00  0.00    +0.137 C 
ATOM      3  C   UNL     1       9.994  -1.152  23.579  0.00  0.00    +0.130 C 
ATOM      4  C   UNL     1       9.466  -1.550  24.960  0.00  0.00    +0.062 C 
ATOM      5  C   UNL     1       8.655  -2.828  24.751  0.00  0.00    +0.196 C 
ENDROOT
BRANCH   5   6
ATOM      6  N   UNL     1       9.601  -3.952  24.744  0.00  0.00    -0.110 NA
ATOM      7  C   UNL     1       9.489  -4.862  25.637  0.00  0.00    +0.377 C 
ATOM      8  N   UNL     1      10.348  -5.902  25.646  0.00  0.00    -0.289 N 
ATOM      9  H   UNL     1      10.674  -6.127  26.577  0.00  0.00    +0.255 HD
ATOM     10  H   UNL     1      11.132  -5.715  25.027  0.00  0.00    +0.255 HD
ATOM     11  N   UNL     1       8.605  -4.990  26.650  0.00  0.00    -0.289 N 
ATOM     12  H   UNL     1       8.311  -5.947  26.805  0.00  0.00    +0.255 HD
ATOM     13  H   UNL     1       7.814  -4.359  26.635  0.00  0.00    +0.255 HD
ENDBRANCH   5   6
BRANCH   2  14
ATOM     14  O   UNL     1       8.722  -1.154  21.460  0.00  0.00    -0.391 OA
ATOM     15  H   UNL     1       8.761  -0.207  21.691  0.00  0.00    +0.210 HD
ENDBRANCH   2  14
BRANCH   3  16
ATOM     16  C   UNL     1       9.997   0.348  23.368  0.00  0.00    +0.310 C 
ATOM     17  O   UNL     1      10.248   0.906  22.314  0.00  0.00    -0.251 OA
BRANCH  16  18
ATOM     18  O   UNL     1       9.708   1.049  24.491  0.00  0.00    -0.480 OA
ATOM     19  H   UNL     1       8.985   0.639  25.017  0.00  0.00    +0.295 HD
ENDBRANCH  16  18
ENDBRANCH   3  16
BRANCH   1  20
ATOM     20  C   UNL     1       6.567  -2.173  23.327  0.00  0.00    +0.085 C 
BRANCH  20  21
ATOM     21  N   UNL     1       6.478  -0.755  22.976  0.00  0.00    -0.312 N 
ATOM     22  H   UNL     1       6.547  -0.462  22.009  0.00  0.00    +0.149 HD
ATOM     23  C   UNL     1       6.333   0.221  23.947  0.00  0.00    +0.210 C 
ATOM     24  C   UNL     1       6.351   1.633  23.426  0.00  0.00    +0.109 C 
ATOM     25  O   UNL     1       6.230  -0.024  25.144  0.00  0.00    -0.276 OA
ENDBRANCH  20  21
BRANCH  20  26
ATOM     26  C   UNL     1       5.554  -3.039  22.500  0.00  0.00    +0.009 C 
BRANCH  26  28
ATOM     27  C   UNL     1       6.024  -5.461  21.711  0.00  0.00    +0.004 C 
ATOM     28  C   UNL     1       6.294  -3.977  21.511  0.00  0.00    +0.002 C 
ENDBRANCH  26  28
BRANCH  26  29
ATOM     29  C   UNL     1       4.534  -3.795  23.390  0.00  0.00    +0.002 C 
ATOM     30  C   UNL     1       4.436  -3.328  24.833  0.00  0.00    +0.004 C 
ENDBRANCH  26  29
ENDBRANCH  20  26
ENDBRANCH   1  20
TORSDOF 9
ENDMDL
MODEL 2
REMARK VINA RESULT:      -5.7      4.249      6.550
REMARK  Name = 
REMARK  12 active torsions:
REMARK  status: ('A' for Active; 'I' for Inactive)
REMARK    1  A    between atoms: C_1  and  C_2
REMARK    2  A    between atoms: C_2  and  C_3
REMARK    3  A    between atoms: C_3  and  C_4
REMARK    4  A    between atoms: C_3  and  C_6
REMARK    5  A    between atoms: C_4  and  C_5
REMARK    6  A    between atoms: C_6  and  C_7
REMARK    7  A    between atoms: C_6  and  N_21
REMARK    8  A    between atoms: C_9  and  N_17
REMARK    9  A    between atoms: C_11  and  C_14
REMARK   10  A    between atoms: C_12  and  O_13
REMARK   11  A    between atoms: C_14  and  O_16
REMARK   12  A    between atoms: C_22  and  C_24
REMARK                            x       y       z     vdW  Elec       q    Type
REMARK                         _______ _______ _______ _____ _____    ______ ____
ROOT
ATOM      1  C   UNL     1       9.557   2.119  24.493  0.00  0.00    +0.079 C 
ATOM      2  C   UNL     1      10.126   0.707  24.252  0.00  0.00    +0.137 C 
ATOM      3  C   UNL     1      10.277   0.498  22.739  0.00  0.00    +0.130 C 
ATOM      4  C   UNL     1       9.906   1.840  22.099  0.00  0.00    +0.062 C 
ATOM      5  C   UNL     1       9.980   2.877  23.217  0.00  0.00    +0.196 C 
ENDROOT
BRANCH   5   6
ATOM      6  N   UNL     1      11.386   3.283  23.348  0.00  0.00    -0.110 NA
ATOM      7  C   UNL     1      11.681   4.526  23.280  0.00  0.00    +0.377 C 
ATOM      8  N   UNL     1      12.967   4.917  23.398  0.00  0.00    -0.289 N 
ATOM      9  H   UNL     1      13.220   5.624  22.719  0.00  0.00    +0.255 HD
ATOM     10  H   UNL     1      13.585   4.114  23.328  0.00  0.00    +0.255 HD
ATOM     11  N   UNL     1      10.889   5.605  23.098  0.00  0.00    -0.289 N 
ATOM     12  H   UNL     1      11.174   6.407  23.650  0.00  0.00    +0.255 HD
ATOM     13  H   UNL     1       9.892   5.444  23.168  0.00  0.00    +0.255 HD
ENDBRANCH   5   6
BRANCH   2  14
ATOM     14  O   UNL     1       9.480  -0.365  24.913  0.00  0.00    -0.391 OA
ATOM     15  H   UNL     1      10.087  -0.758  25.568  0.00  0.00    +0.210 HD
ENDBRANCH   2  14
BRANCH   3  16
ATOM     16  C   UNL     1       9.464  -0.654  22.186  0.00  0.00    +0.310 C 
ATOM     17  O   UNL     1       8.260  -0.791  22.324  0.00  0.00    -0.251 OA
BRANCH  16  18
ATOM     18  O   UNL     1      10.210  -1.566  21.519  0.00  0.00    -0.480 OA
ATOM     19  H   UNL     1      10.586  -1.210  20.683  0.00  0.00    +0.295 HD
ENDBRANCH  16  18
ENDBRANCH   3  16
BRANCH   1  20
ATOM     20  C   UNL     1       8.065   2.313  24.899  0.00  0.00    +0.085 C 
BRANCH  20  21
ATOM     21  N   UNL     1       7.839   2.035  26.318  0.00  0.00    -0.312 N 
ATOM     22  H   UNL     1       8.253   2.629  27.028  0.00  0.00    +0.149 HD
ATOM     23  C   UNL     1       7.091   0.946  26.732  0.00  0.00    +0.210 C 
ATOM     24  C   UNL     1       7.034   0.752  28.223  0.00  0.00    +0.109 C 
ATOM     25  O   UNL     1       6.538   0.172  25.957  0.00  0.00    -0.276 OA
ENDBRANCH  20  21
BRANCH  20  26
ATOM     26  C   UNL     1       7.410   3.670  24.464  0.00  0.00    +0.009 C 
BRANCH  26  28
ATOM     27  C   UNL     1       6.153   2.420  22.575  0.00  0.00    +0.004 C 
ATOM     28  C   UNL     1       6.077   3.433  23.707  0.00  0.00    +0.002 C 
ENDBRANCH  26  28
BRANCH  26  29
ATOM     29  C   UNL     1       7.261   4.675  25.635  0.00  0.00    +0.002 C 
ATOM     30  C   UNL     1       8.433   5.618  25.854  0.00  0.00    +0.004 C 
ENDBRANCH  26  29
ENDBRANCH  20  26
ENDBRANCH   1  20
TORSDOF 9
ENDMDL
MODEL 3
REMARK VINA RESULT:      -5.5      3.118      4.789
REMARK  Name = 
REMARK  12 active torsions:
REMARK  status: ('A' for Active; 'I' for Inactive)
REMARK    1  A    between atoms: C_1  and  C_2
REMARK    2  A    between atoms: C_2  and  C_3
REMARK    3  A    between atoms: C_3  and  C_4
REMARK    4  A    between atoms: C_3  and  C_6
REMARK    5  A    between atoms: C_4  and  C_5
REMARK    6  A    between atoms: C_6  and  C_7
REMARK    7  A    between atoms: C_6  and  N_21
REMARK    8  A    between atoms: C_9  and  N_17
REMARK    9  A    between atoms: C_11  and  C_14
REMARK   10  A    between atoms: C_12  and  O_13
REMARK   11  A    between atoms: C_14  and  O_16
REMARK   12  A    between atoms: C_22  and  C_24
REMARK                            x       y       z     vdW  Elec       q    Type
REMARK                         _______ _______ _______ _____ _____    ______ ____
ROOT
ATOM      1  C   UNL     1       6.733  -2.541  24.858  0.00  0.00    +0.079 C 
ATOM      2  C   UNL     1       7.537  -3.424  25.833  0.00  0.00    +0.137 C 
ATOM      3  C   UNL     1       8.968  -3.557  25.295  0.00  0.00    +0.130 C 
ATOM      4  C   UNL     1       9.033  -2.648  24.063  0.00  0.00    +0.062 C 
ATOM      5  C   UNL     1       7.834  -1.708  24.168  0.00  0.00    +0.196 C 
ENDROOT
BRANCH   5   6
ATOM      6  N   UNL     1       8.220  -0.601  25.054  0.00  0.00    -0.110 NA
ATOM      7  C   UNL     1       8.552   0.520  24.536  0.00  0.00    +0.377 C 
ATOM      8  N   UNL     1       8.909   1.548  25.334  0.00  0.00    -0.289 N 
ATOM      9  H   UNL     1       9.726   2.039  24.992  0.00  0.00    +0.255 HD
ATOM     10  H   UNL     1       9.060   1.218  26.283  0.00  0.00    +0.255 HD
ATOM     11  N   UNL     1       8.620   0.901  23.242  0.00  0.00    -0.289 N 
ATOM     12  H   UNL     1       8.306   1.853  23.089  0.00  0.00    +0.255 HD
ATOM     13  H   UNL     1       8.211   0.266  22.568  0.00  0.00    +0.255 HD
ENDBRANCH   5   6
BRANCH   2  14
ATOM     14  O   UNL     1       6.952  -4.657  26.208  0.00  0.00    -0.391 OA
ATOM     15  H   UNL     1       7.001  -5.282  25.460  0.00  0.00    +0.210 HD
ENDBRANCH   2  14
BRANCH   3  16
ATOM     16  C   UNL     1       9.389  -4.979  24.991  0.00  0.00    +0.310 C 
ATOM     17  O   UNL     1       8.927  -5.669  24.097  0.00  0.00    -0.251 OA
BRANCH  16  18
ATOM     18  O   UNL     1      10.338  -5.451  25.833  0.00  0.00    -0.480 OA
ATOM     19  H   UNL     1      10.586  -6.383  25.641  0.00  0.00    +0.295 HD
ENDBRANCH  16  18
ENDBRANCH   3  16
BRANCH   1  20
ATOM     20  C   UNL     1       5.694  -3.177  23.885  0.00  0.00    +0.085 C 
BRANCH  20  21
ATOM     21  N   UNL     1       6.185  -4.420  23.289  0.00  0.00    -0.312 N 
ATOM     22  H   UNL     1       6.568  -5.153  23.875  0.00  0.00    +0.149 HD
ATOM     23  C   UNL     1       6.175  -4.617  21.919  0.00  0.00    +0.210 C 
ATOM     24  C   UNL     1       6.799  -5.909  21.465  0.00  0.00    +0.109 C 
ATOM     25  O   UNL     1       5.726  -3.801  21.121  0.00  0.00    -0.276 OA
ENDBRANCH  20  21
BRANCH  20  26
ATOM     26  C   UNL     1       4.241  -3.342  24.452  0.00  0.00    +0.009 C 
BRANCH  26  28
ATOM     27  C   UNL     1       2.740  -5.227  23.501  0.00  0.00    +0.004 C 
ATOM     28  C   UNL     1       3.821  -4.834  24.497  0.00  0.00    +0.002 C 
ENDBRANCH  26  28
BRANCH  26  29
ATOM     29  C   UNL     1       4.034  -2.623  25.810  0.00  0.00    +0.002 C 
ATOM     30  C   UNL     1       2.799  -3.031  26.597  0.00  0.00    +0.004 C 
ENDBRANCH  26  29
ENDBRANCH  20  26
ENDBRANCH   1  20
TORSDOF 9
ENDMDL
MODEL 4
REMARK VINA RESULT:      -5.5      2.622      4.644
REMARK  Name = 
REMARK  12 active torsions:
REMARK  status: ('A' for Active; 'I' for Inactive)
REMARK    1  A    between atoms: C_1  and  C_2
REMARK    2  A    between atoms: C_2  and  C_3
REMARK    3  A    between atoms: C_3  and  C_4
REMARK    4  A    between atoms: C_3  and  C_6
REMARK    5  A    between atoms: C_4  and  C_5
REMARK    6  A    between atoms: C_6  and  C_7
REMARK    7  A    between atoms: C_6  and  N_21
REMARK    8  A    between atoms: C_9  and  N_17
REMARK    9  A    between atoms: C_11  and  C_14
REMARK   10  A    between atoms: C_12  and  O_13
REMARK   11  A    between atoms: C_14  and  O_16
REMARK   12  A    between atoms: C_22  and  C_24
REMARK                            x       y       z     vdW  Elec       q    Type
REMARK                         _______ _______ _______ _____ _____    ______ ____
ROOT
ATOM      1  C   UNL     1       6.890  -1.776  23.450  0.00  0.00    +0.079 C 
ATOM      2  C   UNL     1       5.981  -0.992  24.416  0.00  0.00    +0.137 C 
ATOM      3  C   UNL     1       6.859  -0.381  25.517  0.00  0.00    +0.130 C 
ATOM      4  C   UNL     1       8.302  -0.711  25.124  0.00  0.00    +0.062 C 
ATOM      5  C   UNL     1       8.262  -1.096  23.647  0.00  0.00    +0.196 C 
ENDROOT
BRANCH   5   6
ATOM      6  N   UNL     1       8.293   0.149  22.867  0.00  0.00    -0.110 NA
ATOM      7  C   UNL     1       8.995   0.195  21.800  0.00  0.00    +0.377 C 
ATOM      8  N   UNL     1       9.035   1.330  21.071  0.00  0.00    -0.289 N 
ATOM      9  H   UNL     1       9.971   1.558  20.761  0.00  0.00    +0.255 HD
ATOM     10  H   UNL     1       8.634   2.099  21.599  0.00  0.00    +0.255 HD
ATOM     11  N   UNL     1       9.765  -0.750  21.217  0.00  0.00    -0.289 N 
ATOM     12  H   UNL     1       9.710  -0.742  20.205  0.00  0.00    +0.255 HD
ATOM     13  H   UNL     1       9.673  -1.689  21.584  0.00  0.00    +0.255 HD
ENDBRANCH   5   6
BRANCH   2  14
ATOM     14  O   UNL     1       4.838  -1.666  24.907  0.00  0.00    -0.391 OA
ATOM     15  H   UNL     1       4.227  -1.853  24.169  0.00  0.00    +0.210 HD
ENDBRANCH   2  14
BRANCH   3  16
ATOM     16  C   UNL     1       6.516  -0.848  26.916  0.00  0.00    +0.310 C 
ATOM     17  O   UNL     1       6.332  -0.115  27.873  0.00  0.00    -0.251 OA
BRANCH  16  18
ATOM     18  O   UNL     1       6.448  -2.196  27.031  0.00  0.00    -0.480 OA
ATOM     19  H   UNL     1       5.986  -2.617  26.273  0.00  0.00    +0.295 HD
ENDBRANCH  16  18
ENDBRANCH   3  16
BRANCH   1  20
ATOM     20  C   UNL     1       6.927  -3.334  23.485  0.00  0.00    +0.085 C 
BRANCH  20  21
ATOM     21  N   UNL     1       7.140  -3.850  24.838  0.00  0.00    -0.312 N 
ATOM     22  H   UNL     1       6.468  -3.658  25.571  0.00  0.00    +0.149 HD
ATOM     23  C   UNL     1       8.271  -4.580  25.162  0.00  0.00    +0.210 C 
ATOM     24  C   UNL     1       8.381  -4.957  26.614  0.00  0.00    +0.109 C 
ATOM     25  O   UNL     1       9.140  -4.879  24.349  0.00  0.00    -0.276 OA
ENDBRANCH  20  21
BRANCH  20  26
ATOM     26  C   UNL     1       5.735  -4.061  22.770  0.00  0.00    +0.009 C 
BRANCH  26  28
ATOM     27  C   UNL     1       6.977  -6.147  21.867  0.00  0.00    +0.004 C 
ATOM     28  C   UNL     1       6.225  -4.866  21.539  0.00  0.00    +0.002 C 
ENDBRANCH  26  28
BRANCH  26  29
ATOM     29  C   UNL     1       4.876  -4.915  23.738  0.00  0.00    +0.002 C 
ATOM     30  C   UNL     1       3.392  -4.991  23.419  0.00  0.00    +0.004 C 
ENDBRANCH  26  29
ENDBRANCH  20  26
ENDBRANCH   1  20
TORSDOF 9
ENDMDL
MODEL 5
REMARK VINA RESULT:      -5.5      3.267      5.394
REMARK  Name = 
REMARK  12 active torsions:
REMARK  status: ('A' for Active; 'I' for Inactive)
REMARK    1  A    between atoms: C_1  and  C_2
REMARK    2  A    between atoms: C_2  and  C_3
REMARK    3  A    between atoms: C_3  and  C_4
REMARK    4  A    between atoms: C_3  and  C_6
REMARK    5  A    between atoms: C_4  and  C_5
REMARK    6  A    between atoms: C_6  and  C_7
REMARK    7  A    between atoms: C_6  and  N_21
REMARK    8  A    between atoms: C_9  and  N_17
REMARK    9  A    between atoms: C_11  and  C_14
REMARK   10  A    between atoms: C_12  and  O_13
REMARK   11  A    between atoms: C_14  and  O_16
REMARK   12  A    between atoms: C_22  and  C_24
REMARK                            x       y       z     vdW  Elec       q    Type
REMARK                         _______ _______ _______ _____ _____    ______ ____
ROOT
ATOM      1  C   UNL     1       7.540  -3.915  24.474  0.00  0.00    +0.079 C 
ATOM      2  C   UNL     1       7.997  -4.986  25.483  0.00  0.00    +0.137 C 
ATOM      3  C   UNL     1       6.751  -5.589  26.145  0.00  0.00    +0.130 C 
ATOM      4  C   UNL     1       5.555  -4.949  25.432  0.00  0.00    +0.062 C 
ATOM      5  C   UNL     1       6.102  -4.360  24.133  0.00  0.00    +0.196 C 
ENDROOT
BRANCH   5   6
ATOM      6  N   UNL     1       6.160  -5.448  23.147  0.00  0.00    -0.110 NA
ATOM      7  C   UNL     1       6.078  -5.161  21.903  0.00  0.00    +0.377 C 
ATOM      8  N   UNL     1       6.130  -6.147  20.984  0.00  0.00    -0.289 N 
ATOM      9  H   UNL     1       5.440  -6.031  20.252  0.00  0.00    +0.255 HD
ATOM     10  H   UNL     1       6.028  -7.052  21.434  0.00  0.00    +0.255 HD
ATOM     11  N   UNL     1       5.939  -3.968  21.287  0.00  0.00    -0.289 N 
ATOM     12  H   UNL     1       6.476  -3.895  20.430  0.00  0.00    +0.255 HD
ATOM     13  H   UNL     1       6.060  -3.148  21.869  0.00  0.00    +0.255 HD
ENDBRANCH   5   6
BRANCH   2  14
ATOM     14  O   UNL     1       9.005  -4.610  26.402  0.00  0.00    -0.391 OA
ATOM     15  H   UNL     1       9.747  -5.241  26.350  0.00  0.00    +0.210 HD
ENDBRANCH   2  14
BRANCH   3  16
ATOM     16  C   UNL     1       6.695  -5.407  27.648  0.00  0.00    +0.310 C 
ATOM     17  O   UNL     1       6.202  -4.450  28.219  0.00  0.00    -0.251 OA
BRANCH  16  18
ATOM     18  O   UNL     1       7.278  -6.420  28.333  0.00  0.00    -0.480 OA
ATOM     19  H   UNL     1       7.124  -6.359  29.302  0.00  0.00    +0.295 HD
ENDBRANCH  16  18
ENDBRANCH   3  16
BRANCH   1  20
ATOM     20  C   UNL     1       7.690  -2.399  24.804  0.00  0.00    +0.085 C 
BRANCH  20  21
ATOM     21  N   UNL     1       7.044  -2.044  26.068  0.00  0.00    -0.312 N 
ATOM     22  H   UNL     1       7.453  -2.330  26.950  0.00  0.00    +0.149 HD
ATOM     23  C   UNL     1       5.849  -1.345  26.097  0.00  0.00    +0.210 C 
ATOM     24  C   UNL     1       5.273  -1.142  27.472  0.00  0.00    +0.109 C 
ATOM     25  O   UNL     1       5.275  -0.943  25.090  0.00  0.00    -0.276 OA
ENDBRANCH  20  21
BRANCH  20  26
ATOM     26  C   UNL     1       9.146  -1.823  24.717  0.00  0.00    +0.009 C 
BRANCH  26  28
ATOM     27  C   UNL     1       9.093  -1.651  22.133  0.00  0.00    +0.004 C 
ATOM     28  C   UNL     1       9.813  -2.182  23.364  0.00  0.00    +0.002 C 
ENDBRANCH  26  28
BRANCH  26  29
ATOM     29  C   UNL     1       9.218  -0.307  25.033  0.00  0.00    +0.002 C 
ATOM     30  C   UNL     1      10.584   0.342  24.872  0.00  0.00    +0.004 C 
ENDBRANCH  26  29
ENDBRANCH  20  26
ENDBRANCH   1  20
TORSDOF 9
ENDMDL
MODEL 6
REMARK VINA RESULT:      -5.5      3.096      4.563
REMARK  Name = 
REMARK  12 active torsions:
REMARK  status: ('A' for Active; 'I' for Inactive)
REMARK    1  A    between atoms: C_1  and  C_2
REMARK    2  A    between atoms: C_2  and  C_3
REMARK    3  A    between atoms: C_3  and  C_4
REMARK    4  A    between atoms: C_3  and  C_6
REMARK    5  A    between atoms: C_4  and  C_5
REMARK    6  A    between atoms: C_6  and  C_7
REMARK    7  A    between atoms: C_6  and  N_21
REMARK    8  A    between atoms: C_9  and  N_17
REMARK    9  A    between atoms: C_11  and  C_14
REMARK   10  A    between atoms: C_12  and  O_13
REMARK   11  A    between atoms: C_14  and  O_16
REMARK   12  A    between atoms: C_22  and  C_24
REMARK                            x       y       z     vdW  Elec       q    Type
REMARK                         _______ _______ _______ _____ _____    ______ ____
ROOT
ATOM      1  C   UNL     1       6.693  -5.609  25.533  0.00  0.00    +0.079 C 
ATOM      2  C   UNL     1       8.176  -5.365  25.193  0.00  0.00    +0.137 C 
ATOM      3  C   UNL     1       8.629  -4.082  25.904  0.00  0.00    +0.130 C 
ATOM      4  C   UNL     1       7.437  -3.641  26.759  0.00  0.00    +0.062 C 
ATOM      5  C   UNL     1       6.522  -4.859  26.871  0.00  0.00    +0.196 C 
ENDROOT
BRANCH   5   6
ATOM      6  N   UNL     1       7.042  -5.700  27.958  0.00  0.00    -0.110 NA
ATOM      7  C   UNL     1       6.328  -6.672  28.385  0.00  0.00    +0.377 C 
ATOM      8  N   UNL     1       6.790  -7.454  29.382  0.00  0.00    -0.289 N 
ATOM      9  H   UNL     1       6.080  -7.657  30.075  0.00  0.00    +0.255 HD
ATOM     10  H   UNL     1       7.603  -7.027  29.816  0.00  0.00    +0.255 HD
ATOM     11  N   UNL     1       5.107  -7.097  27.998  0.00  0.00    -0.289 N 
ATOM     12  H   UNL     1       5.018  -8.107  27.992  0.00  0.00    +0.255 HD
ATOM     13  H   UNL     1       4.742  -6.691  27.145  0.00  0.00    +0.255 HD
ENDBRANCH   5   6
BRANCH   2  14
ATOM     14  O   UNL     1       8.535  -5.416  23.825  0.00  0.00    -0.391 OA
ATOM     15  H   UNL     1       7.845  -4.981  23.290  0.00  0.00    +0.210 HD
ENDBRANCH   2  14
BRANCH   3  16
ATOM     16  C   UNL     1       9.110  -2.991  24.970  0.00  0.00    +0.310 C 
ATOM     17  O   UNL     1       9.996  -3.119  24.143  0.00  0.00    -0.251 OA
BRANCH  16  18
ATOM     18  O   UNL     1       8.470  -1.811  25.148  0.00  0.00    -0.480 OA
ATOM     19  H   UNL     1       8.333  -1.593  26.097  0.00  0.00    +0.295 HD
ENDBRANCH  16  18
ENDBRANCH   3  16
BRANCH   1  20
ATOM     20  C   UNL     1       5.581  -5.319  24.480  0.00  0.00    +0.085 C 
BRANCH  20  21
ATOM     21  N   UNL     1       5.888  -5.909  23.176  0.00  0.00    -0.312 N 
ATOM     22  H   UNL     1       6.239  -6.858  23.114  0.00  0.00    +0.149 HD
ATOM     23  C   UNL     1       5.743  -5.187  22.004  0.00  0.00    +0.210 C 
ATOM     24  C   UNL     1       6.189  -5.908  20.762  0.00  0.00    +0.109 C 
ATOM     25  O   UNL     1       5.317  -4.037  21.966  0.00  0.00    -0.276 OA
ENDBRANCH  20  21
BRANCH  20  26
ATOM     26  C   UNL     1       4.113  -5.644  24.930  0.00  0.00    +0.009 C 
BRANCH  26  28
ATOM     27  C   UNL     1       4.051  -3.056  25.029  0.00  0.00    +0.004 C 
ATOM     28  C   UNL     1       3.257  -4.355  25.027  0.00  0.00    +0.002 C 
ENDBRANCH  26  28
BRANCH  26  29
ATOM     29  C   UNL     1       3.442  -6.742  24.066  0.00  0.00    +0.002 C 
ATOM     30  C   UNL     1       2.335  -6.272  23.136  0.00  0.00    +0.004 C 
ENDBRANCH  26  29
ENDBRANCH  20  26
ENDBRANCH   1  20
TORSDOF 9
ENDMDL
MODEL 7
REMARK VINA RESULT:      -5.4      3.603      5.297
REMARK  Name = 
REMARK  12 active torsions:
REMARK  status: ('A' for Active; 'I' for Inactive)
REMARK    1  A    between atoms: C_1  and  C_2
REMARK    2  A    between atoms: C_2  and  C_3
REMARK    3  A    between atoms: C_3  and  C_4
REMARK    4  A    between atoms: C_3  and  C_6
REMARK    5  A    between atoms: C_4  and  C_5
REMARK    6  A    between atoms: C_6  and  C_7
REMARK    7  A    between atoms: C_6  and  N_21
REMARK    8  A    between atoms: C_9  and  N_17
REMARK    9  A    between atoms: C_11  and  C_14
REMARK   10  A    between atoms: C_12  and  O_13
REMARK   11  A    between atoms: C_14  and  O_16
REMARK   12  A    between atoms: C_22  and  C_24
REMARK                            x       y       z     vdW  Elec       q    Type
REMARK                         _______ _______ _______ _____ _____    ______ ____
ROOT
ATOM      1  C   UNL     1       6.358  -3.834  26.349  0.00  0.00    +0.079 C 
ATOM      2  C   UNL     1       7.628  -4.575  26.814  0.00  0.00    +0.137 C 
ATOM      3  C   UNL     1       8.815  -4.064  25.986  0.00  0.00    +0.130 C 
ATOM      4  C   UNL     1       8.255  -2.933  25.116  0.00  0.00    +0.062 C 
ATOM      5  C   UNL     1       6.926  -2.530  25.751  0.00  0.00    +0.196 C 
ENDROOT
BRANCH   5   6
ATOM      6  N   UNL     1       7.227  -1.595  26.844  0.00  0.00    -0.110 NA
ATOM      7  C   UNL     1       7.357  -0.351  26.577  0.00  0.00    +0.377 C 
ATOM      8  N   UNL     1       7.633   0.522  27.568  0.00  0.00    -0.289 N 
ATOM      9  H   UNL     1       8.343   1.194  27.305  0.00  0.00    +0.255 HD
ATOM     10  H   UNL     1       7.906   0.023  28.409  0.00  0.00    +0.255 HD
ATOM     11  N   UNL     1       7.265   0.307  25.401  0.00  0.00    -0.289 N 
ATOM     12  H   UNL     1       6.811   1.210  25.482  0.00  0.00    +0.255 HD
ATOM     13  H   UNL     1       6.894  -0.223  24.621  0.00  0.00    +0.255 HD
ENDBRANCH   5   6
BRANCH   2  14
ATOM     14  O   UNL     1       7.552  -5.986  26.891  0.00  0.00    -0.391 OA
ATOM     15  H   UNL     1       7.938  -6.378  26.085  0.00  0.00    +0.210 HD
ENDBRANCH   2  14
BRANCH   3  16
ATOM     16  C   UNL     1       9.510  -5.134  25.170  0.00  0.00    +0.310 C 
ATOM     17  O   UNL     1       9.110  -5.573  24.106  0.00  0.00    -0.251 OA
BRANCH  16  18
ATOM     18  O   UNL     1      10.645  -5.597  25.748  0.00  0.00    -0.480 OA
ATOM     19  H   UNL     1      10.493  -5.941  26.656  0.00  0.00    +0.295 HD
ENDBRANCH  16  18
ENDBRANCH   3  16
BRANCH   1  20
ATOM     20  C   UNL     1       5.303  -4.554  25.456  0.00  0.00    +0.085 C 
BRANCH  20  21
ATOM     21  N   UNL     1       5.927  -5.352  24.400  0.00  0.00    -0.312 N 
ATOM     22  H   UNL     1       6.662  -6.012  24.623  0.00  0.00    +0.149 HD
ATOM     23  C   UNL     1       5.560  -5.206  23.073  0.00  0.00    +0.210 C 
ATOM     24  C   UNL     1       6.361  -6.034  22.105  0.00  0.00    +0.109 C 
ATOM     25  O   UNL     1       4.676  -4.445  22.694  0.00  0.00    -0.276 OA
ENDBRANCH  20  21
BRANCH  20  26
ATOM     26  C   UNL     1       4.201  -5.366  26.221  0.00  0.00    +0.009 C 
BRANCH  26  28
ATOM     27  C   UNL     1       3.200  -7.535  25.220  0.00  0.00    +0.004 C 
ATOM     28  C   UNL     1       4.353  -6.890  25.974  0.00  0.00    +0.002 C 
ENDBRANCH  26  28
BRANCH  26  29
ATOM     29  C   UNL     1       4.123  -5.012  27.729  0.00  0.00    +0.002 C 
ATOM     30  C   UNL     1       4.403  -6.152  28.695  0.00  0.00    +0.004 C 
ENDBRANCH  26  29
ENDBRANCH  20  26
ENDBRANCH   1  20
TORSDOF 9
ENDMDL
MODEL 8
REMARK VINA RESULT:      -5.4      3.963      5.910
REMARK  Name = 
REMARK  12 active torsions:
REMARK  status: ('A' for Active; 'I' for Inactive)
REMARK    1  A    between atoms: C_1  and  C_2
REMARK    2  A    between atoms: C_2  and  C_3
REMARK    3  A    between atoms: C_3  and  C_4
REMARK    4  A    between atoms: C_3  and  C_6
REMARK    5  A    between atoms: C_4  and  C_5
REMARK    6  A    between atoms: C_6  and  C_7
REMARK    7  A    between atoms: C_6  and  N_21
REMARK    8  A    between atoms: C_9  and  N_17
REMARK    9  A    between atoms: C_11  and  C_14
REMARK   10  A    between atoms: C_12  and  O_13
REMARK   11  A    between atoms: C_14  and  O_16
REMARK   12  A    between atoms: C_22  and  C_24
REMARK                            x       y       z     vdW  Elec       q    Type
REMARK                         _______ _______ _______ _____ _____    ______ ____
ROOT
ATOM      1  C   UNL     1       9.662   1.862  24.494  0.00  0.00    +0.079 C 
ATOM      2  C   UNL     1      10.459   0.573  24.212  0.00  0.00    +0.137 C 
ATOM      3  C   UNL     1      10.645   0.443  22.694  0.00  0.00    +0.130 C 
ATOM      4  C   UNL     1      10.057   1.724  22.095  0.00  0.00    +0.062 C 
ATOM      5  C   UNL     1       9.955   2.722  23.247  0.00  0.00    +0.196 C 
ENDROOT
BRANCH   5   6
ATOM      6  N   UNL     1      11.274   3.352  23.401  0.00  0.00    -0.110 NA
ATOM      7  C   UNL     1      11.352   4.628  23.424  0.00  0.00    +0.377 C 
ATOM      8  N   UNL     1      12.555   5.223  23.566  0.00  0.00    -0.289 N 
ATOM      9  H   UNL     1      12.673   6.010  22.941  0.00  0.00    +0.255 HD
ATOM     10  H   UNL     1      13.300   4.545  23.434  0.00  0.00    +0.255 HD
ATOM     11  N   UNL     1      10.386   5.567  23.327  0.00  0.00    -0.289 N 
ATOM     12  H   UNL     1      10.539   6.363  23.936  0.00  0.00    +0.255 HD
ATOM     13  H   UNL     1       9.432   5.233  23.389  0.00  0.00    +0.255 HD
ENDBRANCH   5   6
BRANCH   2  14
ATOM     14  O   UNL     1       9.998  -0.612  24.833  0.00  0.00    -0.391 OA
ATOM     15  H   UNL     1      10.097  -1.363  24.218  0.00  0.00    +0.210 HD
ENDBRANCH   2  14
BRANCH   3  16
ATOM     16  C   UNL     1      10.037  -0.809  22.098  0.00  0.00    +0.310 C 
ATOM     17  O   UNL     1      10.236  -1.943  22.500  0.00  0.00    -0.251 OA
BRANCH  16  18
ATOM     18  O   UNL     1       9.241  -0.564  21.030  0.00  0.00    -0.480 OA
ATOM     19  H   UNL     1       9.701  -0.056  20.325  0.00  0.00    +0.295 HD
ENDBRANCH  16  18
ENDBRANCH   3  16
BRANCH   1  20
ATOM     20  C   UNL     1       8.157   1.792  24.895  0.00  0.00    +0.085 C 
BRANCH  20  21
ATOM     21  N   UNL     1       7.694   3.032  25.516  0.00  0.00    -0.312 N 
ATOM     22  H   UNL     1       7.772   3.913  25.022  0.00  0.00    +0.149 HD
ATOM     23  C   UNL     1       7.172   3.047  26.799  0.00  0.00    +0.210 C 
ATOM     24  C   UNL     1       6.829   4.415  27.323  0.00  0.00    +0.109 C 
ATOM     25  O   UNL     1       7.024   2.038  27.481  0.00  0.00    -0.276 OA
ENDBRANCH  20  21
BRANCH  20  26
ATOM     26  C   UNL     1       7.174   1.303  23.774  0.00  0.00    +0.009 C 
BRANCH  26  28
ATOM     27  C   UNL     1       6.673  -1.194  23.302  0.00  0.00    +0.004 C 
ATOM     28  C   UNL     1       6.434   0.010  24.201  0.00  0.00    +0.002 C 
ENDBRANCH  26  28
BRANCH  26  29
ATOM     29  C   UNL     1       6.206   2.413  23.291  0.00  0.00    +0.002 C 
ATOM     30  C   UNL     1       6.585   3.107  21.992  0.00  0.00    +0.004 C 
ENDBRANCH  26  29
ENDBRANCH  20  26
ENDBRANCH   1  20
TORSDOF 9
ENDMDL
MODEL 9
REMARK VINA RESULT:      -5.3      2.956      4.830
REMARK  Name = 
REMARK  12 active torsions:
REMARK  status: ('A' for Active; 'I' for Inactive)
REMARK    1  A    between atoms: C_1  and  C_2
REMARK    2  A    between atoms: C_2  and  C_3
REMARK    3  A    between atoms: C_3  and  C_4
REMARK    4  A    between atoms: C_3  and  C_6
REMARK    5  A    between atoms: C_4  and  C_5
REMARK    6  A    between atoms: C_6  and  C_7
REMARK    7  A    between atoms: C_6  and  N_21
REMARK    8  A    between atoms: C_9  and  N_17
REMARK    9  A    between atoms: C_11  and  C_14
REMARK   10  A    between atoms: C_12  and  O_13
REMARK   11  A    between atoms: C_14  and  O_16
REMARK   12  A    between atoms: C_22  and  C_24
REMARK                            x       y       z     vdW  Elec       q    Type
REMARK                         _______ _______ _______ _____ _____    ______ ____
ROOT
ATOM      1  C   UNL     1       6.769  -3.064  23.733  0.00  0.00    +0.079 C 
ATOM      2  C   UNL     1       5.561  -2.135  23.965  0.00  0.00    +0.137 C 
ATOM      3  C   UNL     1       6.018  -0.959  24.838  0.00  0.00    +0.130 C 
ATOM      4  C   UNL     1       7.529  -1.140  25.017  0.00  0.00    +0.062 C 
ATOM      5  C   UNL     1       7.970  -2.115  23.927  0.00  0.00    +0.196 C 
ENDROOT
BRANCH   5   6
ATOM      6  N   UNL     1       8.168  -1.338  22.696  0.00  0.00    -0.110 NA
ATOM      7  C   UNL     1       9.348  -1.234  22.212  0.00  0.00    +0.377 C 
ATOM      8  N   UNL     1       9.549  -0.525  21.082  0.00  0.00    -0.289 N 
ATOM      9  H   UNL     1      10.366   0.069  21.138  0.00  0.00    +0.255 HD
ATOM     10  H   UNL     1       8.722   0.022  20.860  0.00  0.00    +0.255 HD
ATOM     11  N   UNL     1      10.522  -1.738  22.651  0.00  0.00    -0.289 N 
ATOM     12  H   UNL     1      11.126  -2.055  21.901  0.00  0.00    +0.255 HD
ATOM     13  H   UNL     1      10.463  -2.425  23.392  0.00  0.00    +0.255 HD
ENDBRANCH   5   6
BRANCH   2  14
ATOM     14  O   UNL     1       4.363  -2.743  24.410  0.00  0.00    -0.391 OA
ATOM     15  H   UNL     1       4.014  -2.254  25.178  0.00  0.00    +0.210 HD
ENDBRANCH   2  14
BRANCH   3  16
ATOM     16  C   UNL     1       5.286  -0.844  26.159  0.00  0.00    +0.310 C 
ATOM     17  O   UNL     1       4.291  -0.166  26.351  0.00  0.00    -0.251 OA
BRANCH  16  18
ATOM     18  O   UNL     1       5.858  -1.563  27.154  0.00  0.00    -0.480 OA
ATOM     19  H   UNL     1       6.734  -1.208  27.423  0.00  0.00    +0.295 HD
ENDBRANCH  16  18
ENDBRANCH   3  16
BRANCH   1  20
ATOM     20  C   UNL     1       6.883  -4.421  24.492  0.00  0.00    +0.085 C 
BRANCH  20  21
ATOM     21  N   UNL     1       6.188  -4.392  25.780  0.00  0.00    -0.312 N 
ATOM     22  H   UNL     1       5.354  -3.828  25.899  0.00  0.00    +0.149 HD
ATOM     23  C   UNL     1       6.661  -5.099  26.872  0.00  0.00    +0.210 C 
ATOM     24  C   UNL     1       5.883  -4.889  28.142  0.00  0.00    +0.109 C 
ATOM     25  O   UNL     1       7.653  -5.819  26.834  0.00  0.00    -0.276 OA
ENDBRANCH  20  21
BRANCH  20  26
ATOM     26  C   UNL     1       6.513  -5.700  23.663  0.00  0.00    +0.009 C 
BRANCH  26  28
ATOM     27  C   UNL     1       4.405  -7.011  24.403  0.00  0.00    +0.004 C 
ATOM     28  C   UNL     1       4.976  -5.879  23.562  0.00  0.00    +0.002 C 
ENDBRANCH  26  28
BRANCH  26  29
ATOM     29  C   UNL     1       7.212  -5.749  22.280  0.00  0.00    +0.002 C 
ATOM     30  C   UNL     1       6.292  -5.737  21.070  0.00  0.00    +0.004 C 
ENDBRANCH  26  29
ENDBRANCH  20  26
ENDBRANCH   1  20
TORSDOF 9
ENDMDL
