MODEL 1
REMARK VINA RESULT:      -6.4      0.000      0.000
REMARK  Name = 
REMARK  24 active torsions:
REMARK  status: ('A' for Active; 'I' for Inactive)
REMARK    1  A    between atoms: C_1  and  C_2
REMARK    2  A    between atoms: C_2  and  C_3
REMARK    3  A    between atoms: C_2  and  C_4
REMARK    4  A    between atoms: C_6  and  C_9
REMARK    5  A    between atoms: C_9  and  N_10
REMARK    6  A    between atoms: N_10  and  C_11
REMARK    7  A    between atoms: N_14  and  C_15
REMARK    8  A    between atoms: C_15  and  C_17
REMARK    9  A    between atoms: C_15  and  C_20
REMARK   10  A    between atoms: C_17  and  C_18
REMARK   11  A    between atoms: C_17  and  C_19
REMARK   12  A    between atoms: N_22  and  C_23
REMARK   13  A    between atoms: C_23  and  C_24
REMARK   14  A    between atoms: C_23  and  C_31
REMARK   15  A    between atoms: C_24  and  C_25
REMARK   16  A    between atoms: C_31  and  C_32
REMARK   17  A    between atoms: C_32  and  C_34
REMARK   18  A    between atoms: C_32  and  O_53
REMARK   19  A    between atoms: C_34  and  C_36
REMARK   20  A    between atoms: C_34  and  N_43
REMARK   21  A    between atoms: C_36  and  C_37
REMARK   22  A    between atoms: C_44  and  O_46
REMARK   23  A    between atoms: O_46  and  C_47
REMARK   24  A    between atoms: C_47  and  C_48
REMARK                            x       y       z     vdW  Elec       q    Type
REMARK                         _______ _______ _______ _____ _____    ______ ____
ROOT
ATOM      1  C   UNL     1       6.215  -0.129  25.160  0.00  0.00    +0.080 C 
ENDROOT
BRANCH   1   3
ATOM      2  C   UNL     1       4.163   0.020  26.589  0.00  0.00    +0.234 C 
ATOM      3  N   UNL     1       5.401  -0.549  26.305  0.00  0.00    -0.311 N 
ATOM      4  H   UNL     1       5.603  -1.432  26.750  0.00  0.00    +0.149 HD
ATOM      5  O   UNL     1       3.761   1.031  26.022  0.00  0.00    -0.274 OA
BRANCH   2   6
ATOM      6  C   UNL     1       3.408  -0.590  27.808  0.00  0.00    +0.163 C 
BRANCH   6   9
ATOM      7  N   UNL     1       3.900  -4.255  28.282  0.00  0.00    -0.283 N 
ATOM      8  C   UNL     1       3.208  -3.044  28.226  0.00  0.00    +0.303 C 
ATOM      9  N   UNL     1       3.989  -1.923  28.071  0.00  0.00    -0.288 N 
ATOM     10  H   UNL     1       4.984  -2.012  27.965  0.00  0.00    +0.151 HD
ATOM     11  O   UNL     1       1.986  -2.970  28.310  0.00  0.00    -0.253 OA
ATOM     12  C   UNL     1       5.341  -4.323  28.333  0.00  0.00    +0.134 C 
BRANCH   7  13
ATOM     13  C   UNL     1       3.159  -5.479  28.583  0.00  0.00    +0.164 C 
BRANCH  13  17
ATOM     14  C   UNL     1       1.912  -6.942  25.322  0.00  0.00    +0.081 A 
ATOM     15  S   UNL     1       0.989  -8.025  26.318  0.00  0.00    -0.080 S 
ATOM     16  C   UNL     1       1.604  -7.290  27.728  0.00  0.00    +0.071 A 
ATOM     17  C   UNL     1       2.493  -6.270  27.439  0.00  0.00    +0.066 A 
ATOM     18  N   UNL     1       2.640  -6.066  26.036  0.00  0.00    -0.247 NA
BRANCH  14  20
ATOM     19  C   UNL     1       2.715  -6.206  23.055  0.00  0.00    +0.014 C 
ATOM     20  C   UNL     1       1.641  -7.007  23.781  0.00  0.00    +0.038 C 
ATOM     21  C   UNL     1       1.307  -8.304  22.996  0.00  0.00    +0.014 C 
ENDBRANCH  14  20
ENDBRANCH  13  17
ENDBRANCH   7  13
ENDBRANCH   6   9
BRANCH   6  22
ATOM     22  C   UNL     1       3.521   0.330  29.057  0.00  0.00    +0.012 C 
ATOM     23  C   UNL     1       4.885   0.215  29.753  0.00  0.00    +0.009 C 
ATOM     24  C   UNL     1       2.443   0.028  30.111  0.00  0.00    +0.009 C 
ENDBRANCH   6  22
ENDBRANCH   2   6
ENDBRANCH   1   3
BRANCH   1  25
ATOM     25  C   UNL     1       7.204  -1.218  24.703  0.00  0.00    +0.055 C 
BRANCH  25  26
ATOM     26  C   UNL     1       8.585  -1.230  25.354  0.00  0.00    +0.137 C 
BRANCH  26  27
ATOM     27  O   UNL     1       8.411  -1.514  26.744  0.00  0.00    -0.390 OA
ATOM     28  H   UNL     1       7.485  -1.794  26.865  0.00  0.00    +0.210 HD
ENDBRANCH  26  27
BRANCH  26  29
ATOM     29  C   UNL     1       9.464  -2.312  24.643  0.00  0.00    +0.109 C 
BRANCH  29  30
ATOM     30  N   UNL     1       8.764  -3.591  24.553  0.00  0.00    -0.275 N 
ATOM     31  H   UNL     1       8.387  -3.831  23.656  0.00  0.00    +0.152 HD
ATOM     32  C   UNL     1       8.512  -4.498  25.571  0.00  0.00    +0.401 C 
ATOM     33  O   UNL     1       9.022  -4.498  26.660  0.00  0.00    -0.226 OA
BRANCH  32  34
ATOM     34  O   UNL     1       7.611  -5.380  25.117  0.00  0.00    -0.445 OA
BRANCH  34  35
ATOM     35  C   UNL     1       6.210  -5.239  24.721  0.00  0.00    +0.278 C 
BRANCH  35  36
ATOM     36  C   UNL     1       6.251  -5.058  23.240  0.00  0.00    +0.046 A 
ATOM     37  S   UNL     1       6.866  -6.251  22.161  0.00  0.00    -0.077 S 
ATOM     38  C   UNL     1       6.168  -5.387  20.853  0.00  0.00    +0.156 A 
ATOM     39  N   UNL     1       5.667  -4.217  21.157  0.00  0.00    -0.255 NA
ATOM     40  C   UNL     1       5.734  -4.021  22.505  0.00  0.00    +0.125 A 
ENDBRANCH  35  36
ENDBRANCH  34  35
ENDBRANCH  32  34
ENDBRANCH  29  30
BRANCH  29  41
ATOM     41  C   UNL     1       9.989  -1.822  23.242  0.00  0.00    +0.060 C 
BRANCH  41  42
ATOM     42  C   UNL     1      10.094  -0.314  23.116  0.00  0.00    -0.046 A 
ATOM     43  C   UNL     1      10.674   0.431  24.148  0.00  0.00    +0.004 A 
ATOM     44  C   UNL     1      10.932   1.791  23.988  0.00  0.00    +0.000 A 
ATOM     45  C   UNL     1      10.566   2.435  22.810  0.00  0.00    +0.000 A 
ATOM     46  C   UNL     1       9.889   1.730  21.816  0.00  0.00    +0.000 A 
ATOM     47  C   UNL     1       9.644   0.360  21.970  0.00  0.00    +0.004 A 
ENDBRANCH  41  42
ENDBRANCH  29  41
ENDBRANCH  26  29
ENDBRANCH  25  26
ENDBRANCH   1  25
BRANCH   1  48
ATOM     48  C   UNL     1       7.032   1.162  25.448  0.00  0.00    +0.057 C 
BRANCH  48  49
ATOM     49  C   UNL     1       7.038   2.197  24.339  0.00  0.00    -0.046 A 
ATOM     50  C   UNL     1       7.603   3.456  24.566  0.00  0.00    +0.004 A 
ATOM     51  C   UNL     1       7.565   4.445  23.582  0.00  0.00    +0.000 A 
ATOM     52  C   UNL     1       6.976   4.179  22.349  0.00  0.00    +0.000 A 
ATOM     53  C   UNL     1       6.440   2.918  22.094  0.00  0.00    +0.000 A 
ATOM     54  C   UNL     1       6.463   1.936  23.085  0.00  0.00    +0.004 A 
ENDBRANCH  48  49
ENDBRANCH   1  48
TORSDOF 19
ENDMDL
MODEL 2
REMARK VINA RESULT:      -6.3      2.764      8.692
REMARK  Name = 
REMARK  24 active torsions:
REMARK  status: ('A' for Active; 'I' for Inactive)
REMARK    1  A    between atoms: C_1  and  C_2
REMARK    2  A    between atoms: C_2  and  C_3
REMARK    3  A    between atoms: C_2  and  C_4
REMARK    4  A    between atoms: C_6  and  C_9
REMARK    5  A    between atoms: C_9  and  N_10
REMARK    6  A    between atoms: N_10  and  C_11
REMARK    7  A    between atoms: N_14  and  C_15
REMARK    8  A    between atoms: C_15  and  C_17
REMARK    9  A    between atoms: C_15  and  C_20
REMARK   10  A    between atoms: C_17  and  C_18
REMARK   11  A    between atoms: C_17  and  C_19
REMARK   12  A    between atoms: N_22  and  C_23
REMARK   13  A    between atoms: C_23  and  C_24
REMARK   14  A    between atoms: C_23  and  C_31
REMARK   15  A    between atoms: C_24  and  C_25
REMARK   16  A    between atoms: C_31  and  C_32
REMARK   17  A    between atoms: C_32  and  C_34
REMARK   18  A    between atoms: C_32  and  O_53
REMARK   19  A    between atoms: C_34  and  C_36
REMARK   20  A    between atoms: C_34  and  N_43
REMARK   21  A    between atoms: C_36  and  C_37
REMARK   22  A    between atoms: C_44  and  O_46
REMARK   23  A    between atoms: O_46  and  C_47
REMARK   24  A    between atoms: C_47  and  C_48
REMARK                            x       y       z     vdW  Elec       q    Type
REMARK                         _______ _______ _______ _____ _____    ______ ____
ROOT
ATOM      1  C   UNL     1       3.050  -3.605  25.981  0.00  0.00    +0.080 C 
ENDROOT
BRANCH   1   3
ATOM      2  C   UNL     1       4.187  -1.930  27.456  0.00  0.00    +0.234 C 
ATOM      3  N   UNL     1       3.358  -2.227  26.379  0.00  0.00    -0.311 N 
ATOM      4  H   UNL     1       3.187  -1.480  25.723  0.00  0.00    +0.149 HD
ATOM      5  O   UNL     1       4.557  -2.785  28.255  0.00  0.00    -0.274 OA
BRANCH   2   6
ATOM      6  C   UNL     1       4.455  -0.414  27.698  0.00  0.00    +0.163 C 
BRANCH   6   9
ATOM      7  N   UNL     1       7.117   0.417  25.225  0.00  0.00    -0.283 N 
ATOM      8  C   UNL     1       6.568   0.071  26.461  0.00  0.00    +0.303 C 
ATOM      9  N   UNL     1       5.196   0.100  26.529  0.00  0.00    -0.288 N 
ATOM     10  H   UNL     1       4.654   0.320  25.711  0.00  0.00    +0.151 HD
ATOM     11  O   UNL     1       7.254  -0.239  27.431  0.00  0.00    -0.253 OA
ATOM     12  C   UNL     1       6.316   0.924  24.136  0.00  0.00    +0.134 C 
BRANCH   7  13
ATOM     13  C   UNL     1       8.569   0.545  25.106  0.00  0.00    +0.164 C 
BRANCH  13  17
ATOM     14  C   UNL     1       9.473   4.115  24.231  0.00  0.00    +0.081 A 
ATOM     15  S   UNL     1      10.822   3.422  23.384  0.00  0.00    -0.080 S 
ATOM     16  C   UNL     1      10.323   1.853  23.826  0.00  0.00    +0.071 A 
ATOM     17  C   UNL     1       9.180   1.869  24.605  0.00  0.00    +0.066 A 
ATOM     18  N   UNL     1       8.687   3.191  24.810  0.00  0.00    -0.247 NA
BRANCH  14  20
ATOM     19  C   UNL     1      10.609   6.357  24.135  0.00  0.00    +0.014 C 
ATOM     20  C   UNL     1       9.258   5.657  24.061  0.00  0.00    +0.038 C 
ATOM     21  C   UNL     1       8.367   6.310  22.970  0.00  0.00    +0.014 C 
ENDBRANCH  14  20
ENDBRANCH  13  17
ENDBRANCH   7  13
ENDBRANCH   6   9
BRANCH   6  22
ATOM     22  C   UNL     1       3.124   0.365  27.911  0.00  0.00    +0.012 C 
ATOM     23  C   UNL     1       3.343   1.880  28.037  0.00  0.00    +0.009 C 
ATOM     24  C   UNL     1       2.367  -0.095  29.167  0.00  0.00    +0.009 C 
ENDBRANCH   6  22
ENDBRANCH   2   6
ENDBRANCH   1   3
BRANCH   1  25
ATOM     25  C   UNL     1       3.148  -3.821  24.460  0.00  0.00    +0.055 C 
BRANCH  25  26
ATOM     26  C   UNL     1       2.870  -5.226  23.931  0.00  0.00    +0.137 C 
BRANCH  26  27
ATOM     27  O   UNL     1       1.776  -5.140  23.015  0.00  0.00    -0.390 OA
ATOM     28  H   UNL     1       1.190  -5.898  23.197  0.00  0.00    +0.210 HD
ENDBRANCH  26  27
BRANCH  26  29
ATOM     29  C   UNL     1       4.166  -5.767  23.241  0.00  0.00    +0.109 C 
BRANCH  29  30
ATOM     30  N   UNL     1       5.066  -4.677  22.870  0.00  0.00    -0.275 N 
ATOM     31  H   UNL     1       5.163  -3.933  23.535  0.00  0.00    +0.152 HD
ATOM     32  C   UNL     1       5.770  -4.519  21.686  0.00  0.00    +0.401 C 
ATOM     33  O   UNL     1       5.941  -5.362  20.846  0.00  0.00    -0.226 OA
BRANCH  32  34
ATOM     34  O   UNL     1       6.236  -3.263  21.655  0.00  0.00    -0.445 OA
BRANCH  34  35
ATOM     35  C   UNL     1       6.564  -2.309  22.715  0.00  0.00    +0.278 C 
BRANCH  35  36
ATOM     36  C   UNL     1       8.051  -2.365  22.828  0.00  0.00    +0.046 A 
ATOM     37  S   UNL     1       9.105  -1.377  21.892  0.00  0.00    -0.077 S 
ATOM     38  C   UNL     1      10.398  -1.824  22.928  0.00  0.00    +0.156 A 
ATOM     39  N   UNL     1      10.122  -2.763  23.796  0.00  0.00    -0.255 NA
ATOM     40  C   UNL     1       8.799  -3.085  23.725  0.00  0.00    +0.125 A 
ENDBRANCH  35  36
ENDBRANCH  34  35
ENDBRANCH  32  34
ENDBRANCH  29  30
BRANCH  29  41
ATOM     41  C   UNL     1       4.887  -6.862  24.111  0.00  0.00    +0.060 C 
BRANCH  41  42
ATOM     42  C   UNL     1       5.363  -6.362  25.462  0.00  0.00    -0.046 A 
ATOM     43  C   UNL     1       4.757  -6.833  26.631  0.00  0.00    +0.004 A 
ATOM     44  C   UNL     1       5.282  -6.518  27.883  0.00  0.00    +0.000 A 
ATOM     45  C   UNL     1       6.392  -5.684  27.983  0.00  0.00    +0.000 A 
ATOM     46  C   UNL     1       6.940  -5.120  26.833  0.00  0.00    +0.000 A 
ATOM     47  C   UNL     1       6.424  -5.449  25.574  0.00  0.00    +0.004 A 
ENDBRANCH  41  42
ENDBRANCH  29  41
ENDBRANCH  26  29
ENDBRANCH  25  26
ENDBRANCH   1  25
BRANCH   1  48
ATOM     48  C   UNL     1       1.631  -4.055  26.433  0.00  0.00    +0.057 C 
BRANCH  48  49
ATOM     49  C   UNL     1       1.587  -5.246  27.372  0.00  0.00    -0.046 A 
ATOM     50  C   UNL     1       1.972  -5.093  28.708  0.00  0.00    +0.004 A 
ATOM     51  C   UNL     1       2.000  -6.187  29.574  0.00  0.00    +0.000 A 
ATOM     52  C   UNL     1       1.624  -7.447  29.117  0.00  0.00    +0.000 A 
ATOM     53  C   UNL     1       1.205  -7.611  27.798  0.00  0.00    +0.000 A 
ATOM     54  C   UNL     1       1.195  -6.519  26.928  0.00  0.00    +0.004 A 
ENDBRANCH  48  49
ENDBRANCH   1  48
TORSDOF 19
ENDMDL
MODEL 3
REMARK VINA RESULT:      -6.1      2.221      3.928
REMARK  Name = 
REMARK  24 active torsions:
REMARK  status: ('A' for Active; 'I' for Inactive)
REMARK    1  A    between atoms: C_1  and  C_2
REMARK    2  A    between atoms: C_2  and  C_3
REMARK    3  A    between atoms: C_2  and  C_4
REMARK    4  A    between atoms: C_6  and  C_9
REMARK    5  A    between atoms: C_9  and  N_10
REMARK    6  A    between atoms: N_10  and  C_11
REMARK    7  A    between atoms: N_14  and  C_15
REMARK    8  A    between atoms: C_15  and  C_17
REMARK    9  A    between atoms: C_15  and  C_20
REMARK   10  A    between atoms: C_17  and  C_18
REMARK   11  A    between atoms: C_17  and  C_19
REMARK   12  A    between atoms: N_22  and  C_23
REMARK   13  A    between atoms: C_23  and  C_24
REMARK   14  A    between atoms: C_23  and  C_31
REMARK   15  A    between atoms: C_24  and  C_25
REMARK   16  A    between atoms: C_31  and  C_32
REMARK   17  A    between atoms: C_32  and  C_34
REMARK   18  A    between atoms: C_32  and  O_53
REMARK   19  A    between atoms: C_34  and  C_36
REMARK   20  A    between atoms: C_34  and  N_43
REMARK   21  A    between atoms: C_36  and  C_37
REMARK   22  A    between atoms: C_44  and  O_46
REMARK   23  A    between atoms: O_46  and  C_47
REMARK   24  A    between atoms: C_47  and  C_48
REMARK                            x       y       z     vdW  Elec       q    Type
REMARK                         _______ _______ _______ _____ _____    ______ ____
ROOT
ATOM      1  C   UNL     1       6.144   1.372  24.704  0.00  0.00    +0.080 C 
ENDROOT
BRANCH   1   3
ATOM      2  C   UNL     1       4.978   0.229  26.604  0.00  0.00    +0.234 C 
ATOM      3  N   UNL     1       4.933   0.908  25.390  0.00  0.00    -0.311 N 
ATOM      4  H   UNL     1       4.042   1.299  25.125  0.00  0.00    +0.149 HD
ATOM      5  O   UNL     1       6.027  -0.190  27.082  0.00  0.00    -0.274 OA
BRANCH   2   6
ATOM      6  C   UNL     1       3.593  -0.136  27.219  0.00  0.00    +0.163 C 
BRANCH   6   9
ATOM      7  N   UNL     1       3.436  -3.854  27.443  0.00  0.00    -0.283 N 
ATOM      8  C   UNL     1       3.126  -2.577  26.973  0.00  0.00    +0.303 C 
ATOM      9  N   UNL     1       3.669  -1.535  27.687  0.00  0.00    -0.288 N 
ATOM     10  H   UNL     1       4.280  -1.720  28.464  0.00  0.00    +0.151 HD
ATOM     11  O   UNL     1       2.416  -2.382  25.991  0.00  0.00    -0.253 OA
ATOM     12  C   UNL     1       4.146  -4.074  28.681  0.00  0.00    +0.134 C 
BRANCH   7  13
ATOM     13  C   UNL     1       2.789  -5.011  26.826  0.00  0.00    +0.164 C 
BRANCH  13  17
ATOM     14  C   UNL     1       4.283  -5.631  23.403  0.00  0.00    +0.081 A 
ATOM     15  S   UNL     1       2.719  -6.263  22.986  0.00  0.00    -0.080 S 
ATOM     16  C   UNL     1       2.142  -5.934  24.555  0.00  0.00    +0.071 A 
ATOM     17  C   UNL     1       3.117  -5.381  25.365  0.00  0.00    +0.066 A 
ATOM     18  N   UNL     1       4.348  -5.189  24.672  0.00  0.00    -0.247 NA
BRANCH  14  20
ATOM     19  C   UNL     1       5.682  -4.027  22.064  0.00  0.00    +0.014 C 
ATOM     20  C   UNL     1       5.317  -5.496  22.236  0.00  0.00    +0.038 C 
ATOM     21  C   UNL     1       6.573  -6.392  22.059  0.00  0.00    +0.014 C 
ENDBRANCH  14  20
ENDBRANCH  13  17
ENDBRANCH   7  13
ENDBRANCH   6   9
BRANCH   6  22
ATOM     22  C   UNL     1       3.222   0.829  28.381  0.00  0.00    +0.012 C 
ATOM     23  C   UNL     1       2.476   0.118  29.521  0.00  0.00    +0.009 C 
ATOM     24  C   UNL     1       2.340   1.998  27.916  0.00  0.00    +0.009 C 
ENDBRANCH   6  22
ENDBRANCH   2   6
ENDBRANCH   1   3
BRANCH   1  25
ATOM     25  C   UNL     1       6.447   2.857  24.975  0.00  0.00    +0.055 C 
BRANCH  25  26
ATOM     26  C   UNL     1       7.601   3.176  25.923  0.00  0.00    +0.137 C 
BRANCH  26  27
ATOM     27  O   UNL     1       7.348   2.509  27.161  0.00  0.00    -0.390 OA
ATOM     28  H   UNL     1       7.654   1.588  27.058  0.00  0.00    +0.210 HD
ENDBRANCH  26  27
BRANCH  26  29
ATOM     29  C   UNL     1       8.937   2.695  25.264  0.00  0.00    +0.109 C 
BRANCH  29  30
ATOM     30  N   UNL     1       9.014   1.237  25.222  0.00  0.00    -0.275 N 
ATOM     31  H   UNL     1       8.173   0.739  25.447  0.00  0.00    +0.152 HD
ATOM     32  C   UNL     1      10.123   0.449  24.954  0.00  0.00    +0.401 C 
ATOM     33  O   UNL     1      11.164   0.829  24.487  0.00  0.00    -0.226 OA
BRANCH  32  34
ATOM     34  O   UNL     1       9.819  -0.811  25.294  0.00  0.00    -0.445 OA
BRANCH  34  35
ATOM     35  C   UNL     1       8.818  -1.370  26.203  0.00  0.00    +0.278 C 
BRANCH  35  36
ATOM     36  C   UNL     1       8.690  -2.799  25.795  0.00  0.00    +0.046 A 
ATOM     37  S   UNL     1       7.404  -3.817  26.318  0.00  0.00    -0.077 S 
ATOM     38  C   UNL     1       7.862  -4.962  25.125  0.00  0.00    +0.156 A 
ATOM     39  N   UNL     1       8.982  -4.702  24.498  0.00  0.00    -0.255 NA
ATOM     40  C   UNL     1       9.462  -3.489  24.894  0.00  0.00    +0.125 A 
ENDBRANCH  35  36
ENDBRANCH  34  35
ENDBRANCH  32  34
ENDBRANCH  29  30
BRANCH  29  41
ATOM     41  C   UNL     1       9.167   3.343  23.849  0.00  0.00    +0.060 C 
BRANCH  41  42
ATOM     42  C   UNL     1      10.298   4.353  23.810  0.00  0.00    -0.046 A 
ATOM     43  C   UNL     1      10.116   5.623  24.367  0.00  0.00    +0.004 A 
ATOM     44  C   UNL     1      11.185   6.508  24.492  0.00  0.00    +0.000 A 
ATOM     45  C   UNL     1      12.443   6.151  24.013  0.00  0.00    +0.000 A 
ATOM     46  C   UNL     1      12.615   4.934  23.359  0.00  0.00    +0.000 A 
ATOM     47  C   UNL     1      11.545   4.038  23.247  0.00  0.00    +0.004 A 
ENDBRANCH  41  42
ENDBRANCH  29  41
ENDBRANCH  26  29
ENDBRANCH  25  26
ENDBRANCH   1  25
BRANCH   1  48
ATOM     48  C   UNL     1       6.070   1.177  23.163  0.00  0.00    +0.057 C 
BRANCH  48  49
ATOM     49  C   UNL     1       7.238   0.436  22.538  0.00  0.00    -0.046 A 
ATOM     50  C   UNL     1       7.382  -0.939  22.748  0.00  0.00    +0.004 A 
ATOM     51  C   UNL     1       8.481  -1.630  22.237  0.00  0.00    +0.000 A 
ATOM     52  C   UNL     1       9.443  -0.954  21.491  0.00  0.00    +0.000 A 
ATOM     53  C   UNL     1       9.297   0.410  21.242  0.00  0.00    +0.000 A 
ATOM     54  C   UNL     1       8.206   1.103  21.770  0.00  0.00    +0.004 A 
ENDBRANCH  48  49
ENDBRANCH   1  48
TORSDOF 19
ENDMDL
MODEL 4
REMARK VINA RESULT:      -6.1      3.620      8.486
REMARK  Name = 
REMARK  24 active torsions:
REMARK  status: ('A' for Active; 'I' for Inactive)
REMARK    1  A    between atoms: C_1  and  C_2
REMARK    2  A    between atoms: C_2  and  C_3
REMARK    3  A    between atoms: C_2  and  C_4
REMARK    4  A    between atoms: C_6  and  C_9
REMARK    5  A    between atoms: C_9  and  N_10
REMARK    6  A    between atoms: N_10  and  C_11
REMARK    7  A    between atoms: N_14  and  C_15
REMARK    8  A    between atoms: C_15  and  C_17
REMARK    9  A    between atoms: C_15  and  C_20
REMARK   10  A    between atoms: C_17  and  C_18
REMARK   11  A    between atoms: C_17  and  C_19
REMARK   12  A    between atoms: N_22  and  C_23
REMARK   13  A    between atoms: C_23  and  C_24
REMARK   14  A    between atoms: C_23  and  C_31
REMARK   15  A    between atoms: C_24  and  C_25
REMARK   16  A    between atoms: C_31  and  C_32
REMARK   17  A    between atoms: C_32  and  C_34
REMARK   18  A    between atoms: C_32  and  O_53
REMARK   19  A    between atoms: C_34  and  C_36
REMARK   20  A    between atoms: C_34  and  N_43
REMARK   21  A    between atoms: C_36  and  C_37
REMARK   22  A    between atoms: C_44  and  O_46
REMARK   23  A    between atoms: O_46  and  C_47
REMARK   24  A    between atoms: C_47  and  C_48
REMARK                            x       y       z     vdW  Elec       q    Type
REMARK                         _______ _______ _______ _____ _____    ______ ____
ROOT
ATOM      1  C   UNL     1       7.822  -2.020  24.428  0.00  0.00    +0.080 C 
ENDROOT
BRANCH   1   3
ATOM      2  C   UNL     1       7.329   0.167  23.310  0.00  0.00    +0.234 C 
ATOM      3  N   UNL     1       8.199  -0.667  24.005  0.00  0.00    -0.311 N 
ATOM      4  H   UNL     1       8.998  -0.226  24.436  0.00  0.00    +0.149 HD
ATOM      5  O   UNL     1       6.269  -0.236  22.842  0.00  0.00    -0.274 OA
BRANCH   2   6
ATOM      6  C   UNL     1       7.874   1.592  22.994  0.00  0.00    +0.163 C 
BRANCH   6   9
ATOM      7  N   UNL     1       5.481   4.279  23.970  0.00  0.00    -0.283 N 
ATOM      8  C   UNL     1       6.346   3.561  23.142  0.00  0.00    +0.303 C 
ATOM      9  N   UNL     1       7.060   2.560  23.757  0.00  0.00    -0.288 N 
ATOM     10  H   UNL     1       6.911   2.359  24.731  0.00  0.00    +0.151 HD
ATOM     11  O   UNL     1       6.472   3.799  21.944  0.00  0.00    -0.253 OA
ATOM     12  C   UNL     1       5.448   4.095  25.402  0.00  0.00    +0.134 C 
BRANCH   7  13
ATOM     13  C   UNL     1       4.789   5.447  23.427  0.00  0.00    +0.164 C 
BRANCH  13  17
ATOM     14  C   UNL     1       1.809   4.320  21.383  0.00  0.00    +0.081 A 
ATOM     15  S   UNL     1       1.117   5.860  21.793  0.00  0.00    -0.080 S 
ATOM     16  C   UNL     1       2.511   6.275  22.683  0.00  0.00    +0.071 A 
ATOM     17  C   UNL     1       3.454   5.263  22.676  0.00  0.00    +0.066 A 
ATOM     18  N   UNL     1       3.039   4.145  21.895  0.00  0.00    -0.247 NA
BRANCH  14  20
ATOM     19  C   UNL     1       1.717   3.503  19.006  0.00  0.00    +0.014 C 
ATOM     20  C   UNL     1       1.012   3.447  20.356  0.00  0.00    +0.038 C 
ATOM     21  C   UNL     1       0.485   2.013  20.634  0.00  0.00    +0.014 C 
ENDBRANCH  14  20
ENDBRANCH  13  17
ENDBRANCH   7  13
ENDBRANCH   6   9
BRANCH   6  22
ATOM     22  C   UNL     1       9.382   1.711  23.359  0.00  0.00    +0.012 C 
ATOM     23  C   UNL     1       9.702   3.002  24.127  0.00  0.00    +0.009 C 
ATOM     24  C   UNL     1      10.292   1.676  22.122  0.00  0.00    +0.009 C 
ENDBRANCH   6  22
ENDBRANCH   2   6
ENDBRANCH   1   3
BRANCH   1  25
ATOM     25  C   UNL     1       8.123  -2.283  25.915  0.00  0.00    +0.055 C 
BRANCH  25  26
ATOM     26  C   UNL     1       6.937  -2.305  26.877  0.00  0.00    +0.137 C 
BRANCH  26  27
ATOM     27  O   UNL     1       6.166  -1.123  26.650  0.00  0.00    -0.390 OA
ATOM     28  H   UNL     1       5.408  -1.154  27.264  0.00  0.00    +0.210 HD
ENDBRANCH  26  27
BRANCH  26  29
ATOM     29  C   UNL     1       6.103  -3.604  26.614  0.00  0.00    +0.109 C 
BRANCH  29  30
ATOM     30  N   UNL     1       5.717  -4.250  27.866  0.00  0.00    -0.275 N 
ATOM     31  H   UNL     1       4.926  -3.861  28.343  0.00  0.00    +0.152 HD
ATOM     32  C   UNL     1       6.339  -5.312  28.504  0.00  0.00    +0.401 C 
ATOM     33  O   UNL     1       7.174  -6.034  28.026  0.00  0.00    -0.226 OA
BRANCH  32  34
ATOM     34  O   UNL     1       5.832  -5.396  29.742  0.00  0.00    -0.445 OA
BRANCH  34  35
ATOM     35  C   UNL     1       4.838  -6.290  30.338  0.00  0.00    +0.278 C 
BRANCH  35  36
ATOM     36  C   UNL     1       3.605  -6.083  29.524  0.00  0.00    +0.046 A 
ATOM     37  S   UNL     1       2.559  -4.730  29.724  0.00  0.00    -0.077 S 
ATOM     38  C   UNL     1       1.794  -5.138  28.243  0.00  0.00    +0.156 A 
ATOM     39  N   UNL     1       2.159  -6.280  27.719  0.00  0.00    -0.255 NA
ATOM     40  C   UNL     1       3.169  -6.826  28.456  0.00  0.00    +0.125 A 
ENDBRANCH  35  36
ENDBRANCH  34  35
ENDBRANCH  32  34
ENDBRANCH  29  30
BRANCH  29  41
ATOM     41  C   UNL     1       4.867  -3.334  25.678  0.00  0.00    +0.060 C 
BRANCH  41  42
ATOM     42  C   UNL     1       4.388  -4.559  24.921  0.00  0.00    -0.046 A 
ATOM     43  C   UNL     1       4.933  -5.814  25.213  0.00  0.00    +0.004 A 
ATOM     44  C   UNL     1       4.397  -6.972  24.654  0.00  0.00    +0.000 A 
ATOM     45  C   UNL     1       3.339  -6.885  23.754  0.00  0.00    +0.000 A 
ATOM     46  C   UNL     1       2.857  -5.635  23.370  0.00  0.00    +0.000 A 
ATOM     47  C   UNL     1       3.384  -4.472  23.943  0.00  0.00    +0.004 A 
ENDBRANCH  41  42
ENDBRANCH  29  41
ENDBRANCH  26  29
ENDBRANCH  25  26
ENDBRANCH   1  25
BRANCH   1  48
ATOM     48  C   UNL     1       8.533  -3.126  23.598  0.00  0.00    +0.057 C 
BRANCH  48  49
ATOM     49  C   UNL     1       7.619  -4.049  22.813  0.00  0.00    -0.046 A 
ATOM     50  C   UNL     1       7.773  -5.435  22.919  0.00  0.00    +0.004 A 
ATOM     51  C   UNL     1       6.986  -6.301  22.159  0.00  0.00    +0.000 A 
ATOM     52  C   UNL     1       6.020  -5.791  21.296  0.00  0.00    +0.000 A 
ATOM     53  C   UNL     1       5.830  -4.413  21.205  0.00  0.00    +0.000 A 
ATOM     54  C   UNL     1       6.630  -3.547  21.952  0.00  0.00    +0.004 A 
ENDBRANCH  48  49
ENDBRANCH   1  48
TORSDOF 19
ENDMDL
MODEL 5
REMARK VINA RESULT:      -6.0      3.442      6.507
REMARK  Name = 
REMARK  24 active torsions:
REMARK  status: ('A' for Active; 'I' for Inactive)
REMARK    1  A    between atoms: C_1  and  C_2
REMARK    2  A    between atoms: C_2  and  C_3
REMARK    3  A    between atoms: C_2  and  C_4
REMARK    4  A    between atoms: C_6  and  C_9
REMARK    5  A    between atoms: C_9  and  N_10
REMARK    6  A    between atoms: N_10  and  C_11
REMARK    7  A    between atoms: N_14  and  C_15
REMARK    8  A    between atoms: C_15  and  C_17
REMARK    9  A    between atoms: C_15  and  C_20
REMARK   10  A    between atoms: C_17  and  C_18
REMARK   11  A    between atoms: C_17  and  C_19
REMARK   12  A    between atoms: N_22  and  C_23
REMARK   13  A    between atoms: C_23  and  C_24
REMARK   14  A    between atoms: C_23  and  C_31
REMARK   15  A    between atoms: C_24  and  C_25
REMARK   16  A    between atoms: C_31  and  C_32
REMARK   17  A    between atoms: C_32  and  C_34
REMARK   18  A    between atoms: C_32  and  O_53
REMARK   19  A    between atoms: C_34  and  C_36
REMARK   20  A    between atoms: C_34  and  N_43
REMARK   21  A    between atoms: C_36  and  C_37
REMARK   22  A    between atoms: C_44  and  O_46
REMARK   23  A    between atoms: O_46  and  C_47
REMARK   24  A    between atoms: C_47  and  C_48
REMARK                            x       y       z     vdW  Elec       q    Type
REMARK                         _______ _______ _______ _____ _____    ______ ____
ROOT
ATOM      1  C   UNL     1       6.006   2.234  25.742  0.00  0.00    +0.080 C 
ENDROOT
BRANCH   1   3
ATOM      2  C   UNL     1       5.146   0.735  27.556  0.00  0.00    +0.234 C 
ATOM      3  N   UNL     1       4.969   1.385  26.338  0.00  0.00    -0.311 N 
ATOM      4  H   UNL     1       4.019   1.469  26.006  0.00  0.00    +0.149 HD
ATOM      5  O   UNL     1       6.237   0.672  28.112  0.00  0.00    -0.274 OA
BRANCH   2   6
ATOM      6  C   UNL     1       3.918  -0.076  28.068  0.00  0.00    +0.163 C 
BRANCH   6   9
ATOM      7  N   UNL     1       4.792  -3.479  26.825  0.00  0.00    -0.283 N 
ATOM      8  C   UNL     1       4.271  -2.186  26.780  0.00  0.00    +0.303 C 
ATOM      9  N   UNL     1       4.261  -1.509  27.977  0.00  0.00    -0.288 N 
ATOM     10  H   UNL     1       4.651  -1.935  28.801  0.00  0.00    +0.151 HD
ATOM     11  O   UNL     1       3.845  -1.674  25.749  0.00  0.00    -0.253 OA
ATOM     12  C   UNL     1       5.152  -4.129  28.063  0.00  0.00    +0.134 C 
BRANCH   7  13
ATOM     13  C   UNL     1       4.714  -4.316  25.628  0.00  0.00    +0.164 C 
BRANCH  13  17
ATOM     14  C   UNL     1       7.573  -3.413  23.316  0.00  0.00    +0.081 A 
ATOM     15  S   UNL     1       6.607  -4.130  22.063  0.00  0.00    -0.080 S 
ATOM     16  C   UNL     1       5.373  -4.484  23.185  0.00  0.00    +0.071 A 
ATOM     17  C   UNL     1       5.703  -4.083  24.467  0.00  0.00    +0.066 A 
ATOM     18  N   UNL     1       6.974  -3.440  24.520  0.00  0.00    -0.247 NA
BRANCH  14  20
ATOM     19  C   UNL     1       8.520  -1.522  21.954  0.00  0.00    +0.014 C 
ATOM     20  C   UNL     1       8.885  -2.691  22.861  0.00  0.00    +0.038 C 
ATOM     21  C   UNL     1      10.054  -2.300  23.806  0.00  0.00    +0.014 C 
ENDBRANCH  14  20
ENDBRANCH  13  17
ENDBRANCH   7  13
ENDBRANCH   6   9
BRANCH   6  22
ATOM     22  C   UNL     1       3.547   0.325  29.525  0.00  0.00    +0.012 C 
ATOM     23  C   UNL     1       2.411  -0.534  30.101  0.00  0.00    +0.009 C 
ATOM     24  C   UNL     1       3.113   1.795  29.639  0.00  0.00    +0.009 C 
ENDBRANCH   6  22
ENDBRANCH   2   6
ENDBRANCH   1   3
BRANCH   1  25
ATOM     25  C   UNL     1       5.680   3.735  25.851  0.00  0.00    +0.055 C 
BRANCH  25  26
ATOM     26  C   UNL     1       6.792   4.661  26.340  0.00  0.00    +0.137 C 
BRANCH  26  27
ATOM     27  O   UNL     1       7.760   3.861  27.022  0.00  0.00    -0.390 OA
ATOM     28  H   UNL     1       7.392   2.960  27.087  0.00  0.00    +0.210 HD
ENDBRANCH  26  27
BRANCH  26  29
ATOM     29  C   UNL     1       7.410   5.396  25.104  0.00  0.00    +0.109 C 
BRANCH  29  30
ATOM     30  N   UNL     1       6.370   5.909  24.215  0.00  0.00    -0.275 N 
ATOM     31  H   UNL     1       5.628   6.425  24.649  0.00  0.00    +0.152 HD
ATOM     32  C   UNL     1       6.255   5.730  22.845  0.00  0.00    +0.401 C 
ATOM     33  O   UNL     1       7.112   5.312  22.112  0.00  0.00    -0.226 OA
BRANCH  32  34
ATOM     34  O   UNL     1       5.025   6.121  22.485  0.00  0.00    -0.445 OA
BRANCH  34  35
ATOM     35  C   UNL     1       3.785   6.286  23.243  0.00  0.00    +0.278 C 
BRANCH  35  36
ATOM     36  C   UNL     1       2.998   5.052  22.956  0.00  0.00    +0.046 A 
ATOM     37  S   UNL     1       2.244   4.746  21.438  0.00  0.00    -0.077 S 
ATOM     38  C   UNL     1       2.000   3.117  21.919  0.00  0.00    +0.156 A 
ATOM     39  N   UNL     1       2.292   2.851  23.167  0.00  0.00    -0.255 NA
ATOM     40  C   UNL     1       2.836   3.952  23.759  0.00  0.00    +0.125 A 
ENDBRANCH  35  36
ENDBRANCH  34  35
ENDBRANCH  32  34
ENDBRANCH  29  30
BRANCH  29  41
ATOM     41  C   UNL     1       8.432   6.514  25.530  0.00  0.00    +0.060 C 
BRANCH  41  42
ATOM     42  C   UNL     1       9.856   6.255  25.073  0.00  0.00    -0.046 A 
ATOM     43  C   UNL     1      10.103   5.307  24.074  0.00  0.00    +0.004 A 
ATOM     44  C   UNL     1      11.375   5.169  23.522  0.00  0.00    +0.000 A 
ATOM     45  C   UNL     1      12.429   5.944  23.998  0.00  0.00    +0.000 A 
ATOM     46  C   UNL     1      12.221   6.815  25.066  0.00  0.00    +0.000 A 
ATOM     47  C   UNL     1      10.941   6.966  25.610  0.00  0.00    +0.004 A 
ENDBRANCH  41  42
ENDBRANCH  29  41
ENDBRANCH  26  29
ENDBRANCH  25  26
ENDBRANCH   1  25
BRANCH   1  48
ATOM     48  C   UNL     1       6.254   1.910  24.242  0.00  0.00    +0.057 C 
BRANCH  48  49
ATOM     49  C   UNL     1       7.710   1.794  23.827  0.00  0.00    -0.046 A 
ATOM     50  C   UNL     1       8.676   1.438  24.773  0.00  0.00    +0.004 A 
ATOM     51  C   UNL     1      10.027   1.387  24.431  0.00  0.00    +0.000 A 
ATOM     52  C   UNL     1      10.427   1.673  23.128  0.00  0.00    +0.000 A 
ATOM     53  C   UNL     1       9.473   1.995  22.164  0.00  0.00    +0.000 A 
ATOM     54  C   UNL     1       8.124   2.064  22.513  0.00  0.00    +0.004 A 
ENDBRANCH  48  49
ENDBRANCH   1  48
TORSDOF 19
ENDMDL
MODEL 6
REMARK VINA RESULT:      -6.0      2.184      3.538
REMARK  Name = 
REMARK  24 active torsions:
REMARK  status: ('A' for Active; 'I' for Inactive)
REMARK    1  A    between atoms: C_1  and  C_2
REMARK    2  A    between atoms: C_2  and  C_3
REMARK    3  A    between atoms: C_2  and  C_4
REMARK    4  A    between atoms: C_6  and  C_9
REMARK    5  A    between atoms: C_9  and  N_10
REMARK    6  A    between atoms: N_10  and  C_11
REMARK    7  A    between atoms: N_14  and  C_15
REMARK    8  A    between atoms: C_15  and  C_17
REMARK    9  A    between atoms: C_15  and  C_20
REMARK   10  A    between atoms: C_17  and  C_18
REMARK   11  A    between atoms: C_17  and  C_19
REMARK   12  A    between atoms: N_22  and  C_23
REMARK   13  A    between atoms: C_23  and  C_24
REMARK   14  A    between atoms: C_23  and  C_31
REMARK   15  A    between atoms: C_24  and  C_25
REMARK   16  A    between atoms: C_31  and  C_32
REMARK   17  A    between atoms: C_32  and  C_34
REMARK   18  A    between atoms: C_32  and  O_53
REMARK   19  A    between atoms: C_34  and  C_36
REMARK   20  A    between atoms: C_34  and  N_43
REMARK   21  A    between atoms: C_36  and  C_37
REMARK   22  A    between atoms: C_44  and  O_46
REMARK   23  A    between atoms: O_46  and  C_47
REMARK   24  A    between atoms: C_47  and  C_48
REMARK                            x       y       z     vdW  Elec       q    Type
REMARK                         _______ _______ _______ _____ _____    ______ ____
ROOT
ATOM      1  C   UNL     1       6.482   1.622  25.972  0.00  0.00    +0.080 C 
ENDROOT
BRANCH   1   3
ATOM      2  C   UNL     1       4.072   2.206  25.615  0.00  0.00    +0.234 C 
ATOM      3  N   UNL     1       5.168   2.057  26.459  0.00  0.00    -0.311 N 
ATOM      4  H   UNL     1       4.972   2.003  27.447  0.00  0.00    +0.149 HD
ATOM      5  O   UNL     1       4.175   2.170  24.393  0.00  0.00    -0.274 OA
BRANCH   2   6
ATOM      6  C   UNL     1       2.740   2.617  26.313  0.00  0.00    +0.163 C 
BRANCH   6   9
ATOM      7  N   UNL     1       1.946  -0.252  28.555  0.00  0.00    -0.283 N 
ATOM      8  C   UNL     1       1.872   0.554  27.419  0.00  0.00    +0.303 C 
ATOM      9  N   UNL     1       2.563   1.740  27.488  0.00  0.00    -0.288 N 
ATOM     10  H   UNL     1       3.110   1.959  28.302  0.00  0.00    +0.151 HD
ATOM     11  O   UNL     1       1.234   0.238  26.418  0.00  0.00    -0.253 OA
ATOM     12  C   UNL     1       2.571   0.189  29.780  0.00  0.00    +0.134 C 
BRANCH   7  13
ATOM     13  C   UNL     1       1.130  -1.464  28.618  0.00  0.00    +0.164 C 
BRANCH  13  17
ATOM     14  C   UNL     1       3.407  -4.488  28.602  0.00  0.00    +0.081 A 
ATOM     15  S   UNL     1       2.029  -5.353  27.995  0.00  0.00    -0.080 S 
ATOM     16  C   UNL     1       1.090  -3.931  28.033  0.00  0.00    +0.071 A 
ATOM     17  C   UNL     1       1.805  -2.846  28.509  0.00  0.00    +0.066 A 
ATOM     18  N   UNL     1       3.157  -3.184  28.811  0.00  0.00    -0.247 NA
BRANCH  14  20
ATOM     19  C   UNL     1       5.264  -5.308  30.087  0.00  0.00    +0.014 C 
ATOM     20  C   UNL     1       4.760  -5.274  28.649  0.00  0.00    +0.038 C 
ATOM     21  C   UNL     1       5.017  -6.637  27.952  0.00  0.00    +0.014 C 
ENDBRANCH  14  20
ENDBRANCH  13  17
ENDBRANCH   7  13
ENDBRANCH   6   9
BRANCH   6  22
ATOM     22  C   UNL     1       2.762   4.117  26.725  0.00  0.00    +0.012 C 
ATOM     23  C   UNL     1       2.474   4.320  28.220  0.00  0.00    +0.009 C 
ATOM     24  C   UNL     1       1.739   4.957  25.944  0.00  0.00    +0.009 C 
ENDBRANCH   6  22
ENDBRANCH   2   6
ENDBRANCH   1   3
BRANCH   1  25
ATOM     25  C   UNL     1       7.252   0.784  27.009  0.00  0.00    +0.055 C 
BRANCH  25  26
ATOM     26  C   UNL     1       6.795  -0.657  27.226  0.00  0.00    +0.137 C 
BRANCH  26  27
ATOM     27  O   UNL     1       5.603  -0.858  26.464  0.00  0.00    -0.390 OA
ATOM     28  H   UNL     1       5.525  -0.103  25.851  0.00  0.00    +0.210 HD
ENDBRANCH  26  27
BRANCH  26  29
ATOM     29  C   UNL     1       7.944  -1.620  26.776  0.00  0.00    +0.109 C 
BRANCH  29  30
ATOM     30  N   UNL     1       7.418  -2.765  26.037  0.00  0.00    -0.275 N 
ATOM     31  H   UNL     1       6.914  -2.559  25.195  0.00  0.00    +0.152 HD
ATOM     32  C   UNL     1       7.489  -4.107  26.380  0.00  0.00    +0.401 C 
ATOM     33  O   UNL     1       8.192  -4.583  27.232  0.00  0.00    -0.226 OA
BRANCH  32  34
ATOM     34  O   UNL     1       6.646  -4.776  25.582  0.00  0.00    -0.445 OA
BRANCH  34  35
ATOM     35  C   UNL     1       5.430  -4.372  24.877  0.00  0.00    +0.278 C 
BRANCH  35  36
ATOM     36  C   UNL     1       5.807  -4.380  23.433  0.00  0.00    +0.046 A 
ATOM     37  S   UNL     1       6.915  -5.509  22.755  0.00  0.00    -0.077 S 
ATOM     38  C   UNL     1       6.407  -5.025  21.189  0.00  0.00    +0.156 A 
ATOM     39  N   UNL     1       5.607  -3.990  21.154  0.00  0.00    -0.255 NA
ATOM     40  C   UNL     1       5.285  -3.611  22.424  0.00  0.00    +0.125 A 
ENDBRANCH  35  36
ENDBRANCH  34  35
ENDBRANCH  32  34
ENDBRANCH  29  30
BRANCH  29  41
ATOM     41  C   UNL     1       9.072  -0.865  25.980  0.00  0.00    +0.060 C 
BRANCH  41  42
ATOM     42  C   UNL     1       9.084  -1.166  24.493  0.00  0.00    -0.046 A 
ATOM     43  C   UNL     1       7.893  -1.102  23.762  0.00  0.00    +0.004 A 
ATOM     44  C   UNL     1       7.902  -1.210  22.373  0.00  0.00    +0.000 A 
ATOM     45  C   UNL     1       9.100  -1.434  21.700  0.00  0.00    +0.000 A 
ATOM     46  C   UNL     1      10.279  -1.608  22.423  0.00  0.00    +0.000 A 
ATOM     47  C   UNL     1      10.272  -1.484  23.817  0.00  0.00    +0.004 A 
ENDBRANCH  41  42
ENDBRANCH  29  41
ENDBRANCH  26  29
ENDBRANCH  25  26
ENDBRANCH   1  25
BRANCH   1  48
ATOM     48  C   UNL     1       7.390   2.813  25.555  0.00  0.00    +0.057 C 
BRANCH  48  49
ATOM     49  C   UNL     1       8.235   2.593  24.314  0.00  0.00    -0.046 A 
ATOM     50  C   UNL     1       7.620   2.512  23.060  0.00  0.00    +0.004 A 
ATOM     51  C   UNL     1       8.368   2.248  21.913  0.00  0.00    +0.000 A 
ATOM     52  C   UNL     1       9.748   2.079  22.004  0.00  0.00    +0.000 A 
ATOM     53  C   UNL     1      10.381   2.191  23.240  0.00  0.00    +0.000 A 
ATOM     54  C   UNL     1       9.628   2.438  24.390  0.00  0.00    +0.004 A 
ENDBRANCH  48  49
ENDBRANCH   1  48
TORSDOF 19
ENDMDL
MODEL 7
REMARK VINA RESULT:      -6.0      2.042      3.253
REMARK  Name = 
REMARK  24 active torsions:
REMARK  status: ('A' for Active; 'I' for Inactive)
REMARK    1  A    between atoms: C_1  and  C_2
REMARK    2  A    between atoms: C_2  and  C_3
REMARK    3  A    between atoms: C_2  and  C_4
REMARK    4  A    between atoms: C_6  and  C_9
REMARK    5  A    between atoms: C_9  and  N_10
REMARK    6  A    between atoms: N_10  and  C_11
REMARK    7  A    between atoms: N_14  and  C_15
REMARK    8  A    between atoms: C_15  and  C_17
REMARK    9  A    between atoms: C_15  and  C_20
REMARK   10  A    between atoms: C_17  and  C_18
REMARK   11  A    between atoms: C_17  and  C_19
REMARK   12  A    between atoms: N_22  and  C_23
REMARK   13  A    between atoms: C_23  and  C_24
REMARK   14  A    between atoms: C_23  and  C_31
REMARK   15  A    between atoms: C_24  and  C_25
REMARK   16  A    between atoms: C_31  and  C_32
REMARK   17  A    between atoms: C_32  and  C_34
REMARK   18  A    between atoms: C_32  and  O_53
REMARK   19  A    between atoms: C_34  and  C_36
REMARK   20  A    between atoms: C_34  and  N_43
REMARK   21  A    between atoms: C_36  and  C_37
REMARK   22  A    between atoms: C_44  and  O_46
REMARK   23  A    between atoms: O_46  and  C_47
REMARK   24  A    between atoms: C_47  and  C_48
REMARK                            x       y       z     vdW  Elec       q    Type
REMARK                         _______ _______ _______ _____ _____    ______ ____
ROOT
ATOM      1  C   UNL     1       6.510   1.178  25.330  0.00  0.00    +0.080 C 
ENDROOT
BRANCH   1   3
ATOM      2  C   UNL     1       4.204   1.817  26.074  0.00  0.00    +0.234 C 
ATOM      3  N   UNL     1       5.504   1.419  26.371  0.00  0.00    -0.311 N 
ATOM      4  H   UNL     1       5.661   1.048  27.296  0.00  0.00    +0.149 HD
ATOM      5  O   UNL     1       3.870   2.177  24.949  0.00  0.00    -0.274 OA
BRANCH   2   6
ATOM      6  C   UNL     1       3.253   1.968  27.298  0.00  0.00    +0.163 C 
BRANCH   6   9
ATOM      7  N   UNL     1       2.667  -1.615  28.144  0.00  0.00    -0.283 N 
ATOM      8  C   UNL     1       2.474  -0.397  27.491  0.00  0.00    +0.303 C 
ATOM      9  N   UNL     1       3.200   0.662  27.985  0.00  0.00    -0.288 N 
ATOM     10  H   UNL     1       3.849   0.520  28.739  0.00  0.00    +0.151 HD
ATOM     11  O   UNL     1       1.708  -0.264  26.541  0.00  0.00    -0.253 OA
ATOM     12  C   UNL     1       3.451  -1.733  29.351  0.00  0.00    +0.134 C 
BRANCH   7  13
ATOM     13  C   UNL     1       1.833  -2.757  27.772  0.00  0.00    +0.164 C 
BRANCH  13  17
ATOM     14  C   UNL     1       3.327  -4.367  24.688  0.00  0.00    +0.081 A 
ATOM     15  S   UNL     1       2.181  -5.642  24.965  0.00  0.00    -0.080 S 
ATOM     16  C   UNL     1       1.573  -4.830  26.335  0.00  0.00    +0.071 A 
ATOM     17  C   UNL     1       2.238  -3.641  26.574  0.00  0.00    +0.066 A 
ATOM     18  N   UNL     1       3.238  -3.376  25.593  0.00  0.00    -0.247 NA
BRANCH  14  20
ATOM     19  C   UNL     1       5.184  -3.322  23.351  0.00  0.00    +0.014 C 
ATOM     20  C   UNL     1       4.158  -4.449  23.364  0.00  0.00    +0.038 C 
ATOM     21  C   UNL     1       4.776  -5.751  22.787  0.00  0.00    +0.014 C 
ENDBRANCH  14  20
ENDBRANCH  13  17
ENDBRANCH   7  13
ENDBRANCH   6   9
BRANCH   6  22
ATOM     22  C   UNL     1       3.743   3.090  28.257  0.00  0.00    +0.012 C 
ATOM     23  C   UNL     1       2.864   3.220  29.510  0.00  0.00    +0.009 C 
ATOM     24  C   UNL     1       3.781   4.469  27.579  0.00  0.00    +0.009 C 
ENDBRANCH   6  22
ENDBRANCH   2   6
ENDBRANCH   1   3
BRANCH   1  25
ATOM     25  C   UNL     1       7.109  -0.239  25.400  0.00  0.00    +0.055 C 
BRANCH  25  26
ATOM     26  C   UNL     1       8.562  -0.365  25.855  0.00  0.00    +0.137 C 
BRANCH  26  27
ATOM     27  O   UNL     1       8.592  -0.199  27.274  0.00  0.00    -0.390 OA
ATOM     28  H   UNL     1       7.763   0.247  27.528  0.00  0.00    +0.210 HD
ENDBRANCH  26  27
BRANCH  26  29
ATOM     29  C   UNL     1       9.103  -1.767  25.420  0.00  0.00    +0.109 C 
BRANCH  29  30
ATOM     30  N   UNL     1       8.064  -2.791  25.515  0.00  0.00    -0.275 N 
ATOM     31  H   UNL     1       7.238  -2.640  24.966  0.00  0.00    +0.152 HD
ATOM     32  C   UNL     1       8.056  -3.926  26.310  0.00  0.00    +0.401 C 
ATOM     33  O   UNL     1       9.002  -4.387  26.893  0.00  0.00    -0.226 OA
BRANCH  32  34
ATOM     34  O   UNL     1       6.812  -4.423  26.299  0.00  0.00    -0.445 OA
BRANCH  34  35
ATOM     35  C   UNL     1       6.301  -5.791  26.204  0.00  0.00    +0.278 C 
BRANCH  35  36
ATOM     36  C   UNL     1       5.428  -5.953  27.403  0.00  0.00    +0.046 A 
ATOM     37  S   UNL     1       5.362  -4.805  28.684  0.00  0.00    -0.077 S 
ATOM     38  C   UNL     1       3.952  -5.584  29.273  0.00  0.00    +0.156 A 
ATOM     39  N   UNL     1       3.642  -6.708  28.680  0.00  0.00    -0.255 NA
ATOM     40  C   UNL     1       4.491  -6.928  27.636  0.00  0.00    +0.125 A 
ENDBRANCH  35  36
ENDBRANCH  34  35
ENDBRANCH  32  34
ENDBRANCH  29  30
BRANCH  29  41
ATOM     41  C   UNL     1       9.770  -1.729  23.995  0.00  0.00    +0.060 C 
BRANCH  41  42
ATOM     42  C   UNL     1      10.105  -0.331  23.509  0.00  0.00    -0.046 A 
ATOM     43  C   UNL     1       9.633   0.104  22.266  0.00  0.00    +0.004 A 
ATOM     44  C   UNL     1       9.785   1.431  21.871  0.00  0.00    +0.000 A 
ATOM     45  C   UNL     1      10.458   2.330  22.693  0.00  0.00    +0.000 A 
ATOM     46  C   UNL     1      11.029   1.885  23.884  0.00  0.00    +0.000 A 
ATOM     47  C   UNL     1      10.863   0.556  24.290  0.00  0.00    +0.004 A 
ENDBRANCH  41  42
ENDBRANCH  29  41
ENDBRANCH  26  29
ENDBRANCH  25  26
ENDBRANCH   1  25
BRANCH   1  48
ATOM     48  C   UNL     1       7.685   2.194  25.389  0.00  0.00    +0.057 C 
BRANCH  48  49
ATOM     49  C   UNL     1       7.607   3.346  24.404  0.00  0.00    -0.046 A 
ATOM     50  C   UNL     1       6.861   3.208  23.229  0.00  0.00    +0.004 A 
ATOM     51  C   UNL     1       6.826   4.229  22.280  0.00  0.00    +0.000 A 
ATOM     52  C   UNL     1       7.522   5.414  22.505  0.00  0.00    +0.000 A 
ATOM     53  C   UNL     1       8.242   5.583  23.687  0.00  0.00    +0.000 A 
ATOM     54  C   UNL     1       8.291   4.552  24.627  0.00  0.00    +0.004 A 
ENDBRANCH  48  49
ENDBRANCH   1  48
TORSDOF 19
ENDMDL
MODEL 8
REMARK VINA RESULT:      -6.0      1.892      3.003
REMARK  Name = 
REMARK  24 active torsions:
REMARK  status: ('A' for Active; 'I' for Inactive)
REMARK    1  A    between atoms: C_1  and  C_2
REMARK    2  A    between atoms: C_2  and  C_3
REMARK    3  A    between atoms: C_2  and  C_4
REMARK    4  A    between atoms: C_6  and  C_9
REMARK    5  A    between atoms: C_9  and  N_10
REMARK    6  A    between atoms: N_10  and  C_11
REMARK    7  A    between atoms: N_14  and  C_15
REMARK    8  A    between atoms: C_15  and  C_17
REMARK    9  A    between atoms: C_15  and  C_20
REMARK   10  A    between atoms: C_17  and  C_18
REMARK   11  A    between atoms: C_17  and  C_19
REMARK   12  A    between atoms: N_22  and  C_23
REMARK   13  A    between atoms: C_23  and  C_24
REMARK   14  A    between atoms: C_23  and  C_31
REMARK   15  A    between atoms: C_24  and  C_25
REMARK   16  A    between atoms: C_31  and  C_32
REMARK   17  A    between atoms: C_32  and  C_34
REMARK   18  A    between atoms: C_32  and  O_53
REMARK   19  A    between atoms: C_34  and  C_36
REMARK   20  A    between atoms: C_34  and  N_43
REMARK   21  A    between atoms: C_36  and  C_37
REMARK   22  A    between atoms: C_44  and  O_46
REMARK   23  A    between atoms: O_46  and  C_47
REMARK   24  A    between atoms: C_47  and  C_48
REMARK                            x       y       z     vdW  Elec       q    Type
REMARK                         _______ _______ _______ _____ _____    ______ ____
ROOT
ATOM      1  C   UNL     1       6.200   0.587  24.315  0.00  0.00    +0.080 C 
ENDROOT
BRANCH   1   3
ATOM      2  C   UNL     1       4.814   1.263  26.290  0.00  0.00    +0.234 C 
ATOM      3  N   UNL     1       4.932   0.997  24.929  0.00  0.00    -0.311 N 
ATOM      4  H   UNL     1       4.194   1.345  24.336  0.00  0.00    +0.149 HD
ATOM      5  O   UNL     1       5.703   0.990  27.091  0.00  0.00    -0.274 OA
BRANCH   2   6
ATOM      6  C   UNL     1       3.409   1.746  26.759  0.00  0.00    +0.163 C 
BRANCH   6   9
ATOM      7  N   UNL     1       2.303  -1.034  28.983  0.00  0.00    -0.283 N 
ATOM      8  C   UNL     1       2.437  -0.305  27.800  0.00  0.00    +0.303 C 
ATOM      9  N   UNL     1       3.026   0.931  27.930  0.00  0.00    -0.288 N 
ATOM     10  H   UNL     1       3.364   1.238  28.825  0.00  0.00    +0.151 HD
ATOM     11  O   UNL     1       2.058  -0.726  26.711  0.00  0.00    -0.253 OA
ATOM     12  C   UNL     1       2.613  -0.475  30.278  0.00  0.00    +0.134 C 
BRANCH   7  13
ATOM     13  C   UNL     1       1.565  -2.296  28.956  0.00  0.00    +0.164 C 
BRANCH  13  17
ATOM     14  C   UNL     1       3.971  -5.046  27.967  0.00  0.00    +0.081 A 
ATOM     15  S   UNL     1       2.579  -6.085  27.986  0.00  0.00    -0.080 S 
ATOM     16  C   UNL     1       1.579  -4.775  28.424  0.00  0.00    +0.071 A 
ATOM     17  C   UNL     1       2.293  -3.598  28.564  0.00  0.00    +0.066 A 
ATOM     18  N   UNL     1       3.677  -3.770  28.271  0.00  0.00    -0.247 NA
BRANCH  14  20
ATOM     19  C   UNL     1       4.972  -6.783  26.448  0.00  0.00    +0.014 C 
ATOM     20  C   UNL     1       5.304  -5.674  27.438  0.00  0.00    +0.038 C 
ATOM     21  C   UNL     1       6.532  -4.859  26.948  0.00  0.00    +0.014 C 
ENDBRANCH  14  20
ENDBRANCH  13  17
ENDBRANCH   7  13
ENDBRANCH   6   9
BRANCH   6  22
ATOM     22  C   UNL     1       3.422   3.262  27.107  0.00  0.00    +0.012 C 
ATOM     23  C   UNL     1       2.014   3.875  27.125  0.00  0.00    +0.009 C 
ATOM     24  C   UNL     1       4.267   4.085  26.122  0.00  0.00    +0.009 C 
ENDBRANCH   6  22
ENDBRANCH   2   6
ENDBRANCH   1   3
BRANCH   1  25
ATOM     25  C   UNL     1       6.544  -0.888  24.593  0.00  0.00    +0.055 C 
BRANCH  25  26
ATOM     26  C   UNL     1       7.862  -1.179  25.307  0.00  0.00    +0.137 C 
BRANCH  26  27
ATOM     27  O   UNL     1       7.569  -1.432  26.683  0.00  0.00    -0.390 OA
ATOM     28  H   UNL     1       8.225  -2.080  27.001  0.00  0.00    +0.210 HD
ENDBRANCH  26  27
BRANCH  26  29
ATOM     29  C   UNL     1       8.542  -2.411  24.620  0.00  0.00    +0.109 C 
BRANCH  29  30
ATOM     30  N   UNL     1       7.637  -3.058  23.672  0.00  0.00    -0.275 N 
ATOM     31  H   UNL     1       6.976  -2.462  23.210  0.00  0.00    +0.152 HD
ATOM     32  C   UNL     1       7.546  -4.406  23.365  0.00  0.00    +0.401 C 
ATOM     33  O   UNL     1       8.348  -5.254  23.657  0.00  0.00    -0.226 OA
BRANCH  32  34
ATOM     34  O   UNL     1       6.414  -4.591  22.673  0.00  0.00    -0.445 OA
BRANCH  34  35
ATOM     35  C   UNL     1       5.400  -5.645  22.711  0.00  0.00    +0.278 C 
BRANCH  35  36
ATOM     36  C   UNL     1       4.215  -5.007  23.356  0.00  0.00    +0.046 A 
ATOM     37  S   UNL     1       2.635  -5.689  23.308  0.00  0.00    -0.077 S 
ATOM     38  C   UNL     1       2.151  -4.584  24.529  0.00  0.00    +0.156 A 
ATOM     39  N   UNL     1       3.031  -3.664  24.833  0.00  0.00    -0.255 NA
ATOM     40  C   UNL     1       4.191  -3.890  24.153  0.00  0.00    +0.125 A 
ENDBRANCH  35  36
ENDBRANCH  34  35
ENDBRANCH  32  34
ENDBRANCH  29  30
BRANCH  29  41
ATOM     41  C   UNL     1       9.922  -2.036  23.964  0.00  0.00    +0.060 C 
BRANCH  41  42
ATOM     42  C   UNL     1       9.964  -0.640  23.372  0.00  0.00    -0.046 A 
ATOM     43  C   UNL     1      10.659   0.376  24.038  0.00  0.00    +0.004 A 
ATOM     44  C   UNL     1      10.853   1.618  23.438  0.00  0.00    +0.000 A 
ATOM     45  C   UNL     1      10.310   1.878  22.183  0.00  0.00    +0.000 A 
ATOM     46  C   UNL     1       9.524   0.914  21.556  0.00  0.00    +0.000 A 
ATOM     47  C   UNL     1       9.342  -0.340  22.150  0.00  0.00    +0.004 A 
ENDBRANCH  41  42
ENDBRANCH  29  41
ENDBRANCH  26  29
ENDBRANCH  25  26
ENDBRANCH   1  25
BRANCH   1  48
ATOM     48  C   UNL     1       7.402   1.451  24.790  0.00  0.00    +0.057 C 
BRANCH  48  49
ATOM     49  C   UNL     1       7.524   2.818  24.142  0.00  0.00    -0.046 A 
ATOM     50  C   UNL     1       8.206   3.843  24.805  0.00  0.00    +0.004 A 
ATOM     51  C   UNL     1       8.278   5.125  24.259  0.00  0.00    +0.000 A 
ATOM     52  C   UNL     1       7.682   5.392  23.029  0.00  0.00    +0.000 A 
ATOM     53  C   UNL     1       7.028   4.373  22.338  0.00  0.00    +0.000 A 
ATOM     54  C   UNL     1       6.942   3.096  22.895  0.00  0.00    +0.004 A 
ENDBRANCH  48  49
ENDBRANCH   1  48
TORSDOF 19
ENDMDL
MODEL 9
REMARK VINA RESULT:      -5.9      1.812      2.353
REMARK  Name = 
REMARK  24 active torsions:
REMARK  status: ('A' for Active; 'I' for Inactive)
REMARK    1  A    between atoms: C_1  and  C_2
REMARK    2  A    between atoms: C_2  and  C_3
REMARK    3  A    between atoms: C_2  and  C_4
REMARK    4  A    between atoms: C_6  and  C_9
REMARK    5  A    between atoms: C_9  and  N_10
REMARK    6  A    between atoms: N_10  and  C_11
REMARK    7  A    between atoms: N_14  and  C_15
REMARK    8  A    between atoms: C_15  and  C_17
REMARK    9  A    between atoms: C_15  and  C_20
REMARK   10  A    between atoms: C_17  and  C_18
REMARK   11  A    between atoms: C_17  and  C_19
REMARK   12  A    between atoms: N_22  and  C_23
REMARK   13  A    between atoms: C_23  and  C_24
REMARK   14  A    between atoms: C_23  and  C_31
REMARK   15  A    between atoms: C_24  and  C_25
REMARK   16  A    between atoms: C_31  and  C_32
REMARK   17  A    between atoms: C_32  and  C_34
REMARK   18  A    between atoms: C_32  and  O_53
REMARK   19  A    between atoms: C_34  and  C_36
REMARK   20  A    between atoms: C_34  and  N_43
REMARK   21  A    between atoms: C_36  and  C_37
REMARK   22  A    between atoms: C_44  and  O_46
REMARK   23  A    between atoms: O_46  and  C_47
REMARK   24  A    between atoms: C_47  and  C_48
REMARK                            x       y       z     vdW  Elec       q    Type
REMARK                         _______ _______ _______ _____ _____    ______ ____
ROOT
ATOM      1  C   UNL     1       6.583   1.136  26.669  0.00  0.00    +0.080 C 
ENDROOT
BRANCH   1   3
ATOM      2  C   UNL     1       4.090   0.890  26.713  0.00  0.00    +0.234 C 
ATOM      3  N   UNL     1       5.327   0.792  27.344  0.00  0.00    -0.311 N 
ATOM      4  H   UNL     1       5.362   0.233  28.183  0.00  0.00    +0.149 HD
ATOM      5  O   UNL     1       3.950   1.446  25.629  0.00  0.00    -0.274 OA
BRANCH   2   6
ATOM      6  C   UNL     1       2.868   0.425  27.560  0.00  0.00    +0.163 C 
BRANCH   6   9
ATOM      7  N   UNL     1       2.412  -3.274  27.505  0.00  0.00    -0.283 N 
ATOM      8  C   UNL     1       2.056  -1.930  27.387  0.00  0.00    +0.303 C 
ATOM      9  N   UNL     1       3.011  -1.026  27.791  0.00  0.00    -0.288 N 
ATOM     10  H   UNL     1       3.910  -1.348  28.104  0.00  0.00    +0.151 HD
ATOM     11  O   UNL     1       0.966  -1.564  26.955  0.00  0.00    -0.253 OA
ATOM     12  C   UNL     1       3.631  -3.700  28.150  0.00  0.00    +0.134 C 
BRANCH   7  13
ATOM     13  C   UNL     1       1.407  -4.299  27.228  0.00  0.00    +0.164 C 
BRANCH  13  17
ATOM     14  C   UNL     1       1.434  -6.774  24.363  0.00  0.00    +0.081 A 
ATOM     15  S   UNL     1       1.565  -5.379  23.338  0.00  0.00    -0.080 S 
ATOM     16  C   UNL     1       1.553  -4.350  24.697  0.00  0.00    +0.071 A 
ATOM     17  C   UNL     1       1.435  -5.053  25.882  0.00  0.00    +0.066 A 
ATOM     18  N   UNL     1       1.392  -6.462  25.671  0.00  0.00    -0.247 NA
BRANCH  14  20
ATOM     19  C   UNL     1       1.329  -9.264  24.699  0.00  0.00    +0.014 C 
ATOM     20  C   UNL     1       1.562  -8.169  23.665  0.00  0.00    +0.038 C 
ATOM     21  C   UNL     1       0.896  -8.547  22.314  0.00  0.00    +0.014 C 
ENDBRANCH  14  20
ENDBRANCH  13  17
ENDBRANCH   7  13
ENDBRANCH   6   9
BRANCH   6  22
ATOM     22  C   UNL     1       2.785   1.205  28.904  0.00  0.00    +0.012 C 
ATOM     23  C   UNL     1       1.484   0.923  29.669  0.00  0.00    +0.009 C 
ATOM     24  C   UNL     1       2.881   2.727  28.709  0.00  0.00    +0.009 C 
ENDBRANCH   6  22
ENDBRANCH   2   6
ENDBRANCH   1   3
BRANCH   1  25
ATOM     25  C   UNL     1       7.770   0.280  27.150  0.00  0.00    +0.055 C 
BRANCH  25  26
ATOM     26  C   UNL     1       7.805  -1.181  26.708  0.00  0.00    +0.137 C 
BRANCH  26  27
ATOM     27  O   UNL     1       6.530  -1.500  26.147  0.00  0.00    -0.390 OA
ATOM     28  H   UNL     1       5.925  -0.770  26.377  0.00  0.00    +0.210 HD
ENDBRANCH  26  27
BRANCH  26  29
ATOM     29  C   UNL     1       8.961  -1.361  25.667  0.00  0.00    +0.109 C 
BRANCH  29  30
ATOM     30  N   UNL     1       8.511  -2.113  24.498  0.00  0.00    -0.275 N 
ATOM     31  H   UNL     1       7.806  -1.679  23.933  0.00  0.00    +0.152 HD
ATOM     32  C   UNL     1       8.905  -3.380  24.096  0.00  0.00    +0.401 C 
ATOM     33  O   UNL     1       9.853  -3.992  24.513  0.00  0.00    -0.226 OA
BRANCH  32  34
ATOM     34  O   UNL     1       8.049  -3.792  23.151  0.00  0.00    -0.445 OA
BRANCH  34  35
ATOM     35  C   UNL     1       6.654  -3.451  22.872  0.00  0.00    +0.278 C 
BRANCH  35  36
ATOM     36  C   UNL     1       5.860  -4.506  23.567  0.00  0.00    +0.046 A 
ATOM     37  S   UNL     1       5.443  -6.007  22.836  0.00  0.00    -0.077 S 
ATOM     38  C   UNL     1       4.976  -6.597  24.378  0.00  0.00    +0.156 A 
ATOM     39  N   UNL     1       4.961  -5.707  25.338  0.00  0.00    -0.255 NA
ATOM     40  C   UNL     1       5.440  -4.518  24.873  0.00  0.00    +0.125 A 
ENDBRANCH  35  36
ENDBRANCH  34  35
ENDBRANCH  32  34
ENDBRANCH  29  30
BRANCH  29  41
ATOM     41  C   UNL     1       9.622   0.011  25.273  0.00  0.00    +0.060 C 
BRANCH  41  42
ATOM     42  C   UNL     1       9.256   0.496  23.883  0.00  0.00    -0.046 A 
ATOM     43  C   UNL     1       7.917   0.493  23.477  0.00  0.00    +0.004 A 
ATOM     44  C   UNL     1       7.536   1.085  22.274  0.00  0.00    +0.000 A 
ATOM     45  C   UNL     1       8.498   1.641  21.436  0.00  0.00    +0.000 A 
ATOM     46  C   UNL     1       9.847   1.554  21.776  0.00  0.00    +0.000 A 
ATOM     47  C   UNL     1      10.229   0.975  22.992  0.00  0.00    +0.004 A 
ENDBRANCH  41  42
ENDBRANCH  29  41
ENDBRANCH  26  29
ENDBRANCH  25  26
ENDBRANCH   1  25
BRANCH   1  48
ATOM     48  C   UNL     1       6.971   2.631  26.853  0.00  0.00    +0.057 C 
BRANCH  48  49
ATOM     49  C   UNL     1       7.246   3.400  25.574  0.00  0.00    -0.046 A 
ATOM     50  C   UNL     1       6.185   3.753  24.734  0.00  0.00    +0.004 A 
ATOM     51  C   UNL     1       6.419   4.405  23.523  0.00  0.00    +0.000 A 
ATOM     52  C   UNL     1       7.720   4.730  23.146  0.00  0.00    +0.000 A 
ATOM     53  C   UNL     1       8.785   4.417  23.988  0.00  0.00    +0.000 A 
ATOM     54  C   UNL     1       8.551   3.749  25.191  0.00  0.00    +0.004 A 
ENDBRANCH  48  49
ENDBRANCH   1  48
TORSDOF 19
ENDMDL
