MODEL 1
REMARK VINA RESULT:      -7.0      0.000      0.000
REMARK  Name = 
REMARK  16 active torsions:
REMARK  status: ('A' for Active; 'I' for Inactive)
REMARK    1  A    between atoms: C_1  and  C_2
REMARK    2  A    between atoms: C_2  and  C_3
REMARK    3  A    between atoms: C_2  and  O_4
REMARK    4  A    between atoms: O_4  and  C_5
REMARK    5  A    between atoms: C_5  and  C_7
REMARK    6  A    between atoms: C_7  and  C_8
REMARK    7  A    between atoms: C_7  and  N_9
REMARK    8  A    between atoms: N_9  and  P_10
REMARK    9  A    between atoms: P_10  and  O_12
REMARK   10  A    between atoms: P_10  and  O_30
REMARK   11  A    between atoms: O_12  and  C_13
REMARK   12  A    between atoms: C_13  and  C_14
REMARK   13  A    between atoms: C_15  and  O_29
REMARK   14  A    between atoms: C_16  and  C_27
REMARK   15  A    between atoms: C_17  and  N_19
REMARK   16  A    between atoms: O_30  and  C_31
REMARK                            x       y       z     vdW  Elec       q    Type
REMARK                         _______ _______ _______ _____ _____    ______ ____
ROOT
ATOM      1  O   UNL     1       7.415  -3.184  25.499  0.00  0.00    -0.284 OA
ENDROOT
BRANCH   1   2
ATOM      2  P   UNL     1       7.562  -4.853  25.605  0.00  0.00    +0.462 P 
ATOM      3  O   UNL     1       9.039  -5.198  25.859  0.00  0.00    -0.228 OA
BRANCH   2   4
ATOM      4  N   UNL     1       7.909  -4.923  23.860  0.00  0.00    -0.199 NA
ATOM      5  H   UNL     1       8.580  -5.676  23.759  0.00  0.00    +0.135 HD
BRANCH   4   6
ATOM      6  C   UNL     1       6.712  -5.219  23.045  0.00  0.00    +0.171 C 
ATOM      7  C   UNL     1       7.119  -6.118  21.882  0.00  0.00    +0.036 C 
BRANCH   6   8
ATOM      8  C   UNL     1       6.095  -3.907  22.541  0.00  0.00    +0.325 C 
ATOM      9  O   UNL     1       6.747  -2.925  22.203  0.00  0.00    -0.249 OA
BRANCH   8  10
ATOM     10  O   UNL     1       4.734  -3.952  22.597  0.00  0.00    -0.461 OA
BRANCH  10  12
ATOM     11  C   UNL     1       3.905  -3.493  24.819  0.00  0.00    +0.052 C 
ATOM     12  C   UNL     1       4.172  -4.568  23.773  0.00  0.00    +0.170 C 
ATOM     13  C   UNL     1       2.873  -5.251  23.362  0.00  0.00    +0.052 C 
ENDBRANCH  10  12
ENDBRANCH   8  10
ENDBRANCH   6   8
ENDBRANCH   4   6
ENDBRANCH   2   4
BRANCH   2  14
ATOM     14  O   UNL     1       7.226  -4.786  27.301  0.00  0.00    -0.413 OA
BRANCH  14  15
ATOM     15  C   UNL     1       5.951  -5.152  27.671  0.00  0.00    +0.131 A 
ATOM     16  C   UNL     1       5.232  -4.503  28.679  0.00  0.00    +0.046 A 
ATOM     17  C   UNL     1       3.916  -4.873  28.953  0.00  0.00    +0.004 A 
ATOM     18  C   UNL     1       3.321  -5.909  28.237  0.00  0.00    +0.000 A 
ATOM     19  C   UNL     1       4.050  -6.583  27.256  0.00  0.00    +0.004 A 
ATOM     20  C   UNL     1       5.366  -6.208  26.974  0.00  0.00    +0.046 A 
ENDBRANCH  14  15
ENDBRANCH   2  14
ENDBRANCH   1   2
BRANCH   1  21
ATOM     21  C   UNL     1       8.458  -2.413  26.088  0.00  0.00    +0.206 C 
BRANCH  21  22
ATOM     22  C   UNL     1       8.830  -1.114  25.340  0.00  0.00    +0.178 C 
ATOM     23  O   UNL     1       7.724  -0.444  24.678  0.00  0.00    -0.347 OA
ATOM     24  C   UNL     1       8.242   0.203  23.477  0.00  0.00    +0.249 C 
ATOM     25  C   UNL     1       9.730  -0.183  23.344  0.00  0.00    +0.179 C 
ATOM     26  F   UNL     1      10.514   0.778  23.924  0.00  0.00    -0.235 F 
ATOM     27  C   UNL     1      10.218  -0.396  21.918  0.00  0.00    +0.054 C 
ATOM     28  C   UNL     1       9.810  -1.428  24.206  0.00  0.00    +0.186 C 
BRANCH  24  29
ATOM     29  N   UNL     1       8.018   1.650  23.511  0.00  0.00    -0.256 N 
ATOM     30  C   UNL     1       7.895   2.341  22.320  0.00  0.00    +0.310 C 
ATOM     31  O   UNL     1       7.824   1.800  21.222  0.00  0.00    -0.252 OA
ATOM     32  N   UNL     1       7.906   3.708  22.428  0.00  0.00    -0.240 N 
ATOM     33  H   UNL     1       7.788   4.217  21.563  0.00  0.00    +0.159 HD
ATOM     34  C   UNL     1       8.456   4.427  23.459  0.00  0.00    +0.222 C 
ATOM     35  O   UNL     1       8.668   5.633  23.358  0.00  0.00    -0.275 OA
ATOM     36  C   UNL     1       8.892   3.625  24.654  0.00  0.00    +0.115 C 
ATOM     37  C   UNL     1       8.022   2.387  24.763  0.00  0.00    +0.121 C 
ENDBRANCH  24  29
BRANCH  28  38
ATOM     38  O   UNL     1       9.421  -2.596  23.470  0.00  0.00    -0.386 OA
ATOM     39  H   UNL     1       9.117  -2.324  22.584  0.00  0.00    +0.210 HD
ENDBRANCH  28  38
ENDBRANCH  21  22
ENDBRANCH   1  21
TORSDOF 12
ENDMDL
MODEL 2
REMARK VINA RESULT:      -6.6      1.727      3.804
REMARK  Name = 
REMARK  16 active torsions:
REMARK  status: ('A' for Active; 'I' for Inactive)
REMARK    1  A    between atoms: C_1  and  C_2
REMARK    2  A    between atoms: C_2  and  C_3
REMARK    3  A    between atoms: C_2  and  O_4
REMARK    4  A    between atoms: O_4  and  C_5
REMARK    5  A    between atoms: C_5  and  C_7
REMARK    6  A    between atoms: C_7  and  C_8
REMARK    7  A    between atoms: C_7  and  N_9
REMARK    8  A    between atoms: N_9  and  P_10
REMARK    9  A    between atoms: P_10  and  O_12
REMARK   10  A    between atoms: P_10  and  O_30
REMARK   11  A    between atoms: O_12  and  C_13
REMARK   12  A    between atoms: C_13  and  C_14
REMARK   13  A    between atoms: C_15  and  O_29
REMARK   14  A    between atoms: C_16  and  C_27
REMARK   15  A    between atoms: C_17  and  N_19
REMARK   16  A    between atoms: O_30  and  C_31
REMARK                            x       y       z     vdW  Elec       q    Type
REMARK                         _______ _______ _______ _____ _____    ______ ____
ROOT
ATOM      1  O   UNL     1       6.874  -1.923  26.488  0.00  0.00    -0.284 OA
ENDROOT
BRANCH   1   2
ATOM      2  P   UNL     1       6.321  -3.360  25.818  0.00  0.00    +0.462 P 
ATOM      3  O   UNL     1       4.840  -3.186  25.445  0.00  0.00    -0.228 OA
BRANCH   2   4
ATOM      4  N   UNL     1       5.789  -3.895  27.431  0.00  0.00    -0.199 NA
ATOM      5  H   UNL     1       4.796  -4.072  27.331  0.00  0.00    +0.135 HD
BRANCH   4   6
ATOM      6  C   UNL     1       6.465  -5.129  27.882  0.00  0.00    +0.171 C 
ATOM      7  C   UNL     1       7.639  -5.417  26.951  0.00  0.00    +0.036 C 
BRANCH   6   8
ATOM      8  C   UNL     1       5.464  -6.293  27.887  0.00  0.00    +0.325 C 
ATOM      9  O   UNL     1       5.655  -7.361  28.459  0.00  0.00    -0.249 OA
BRANCH   8  10
ATOM     10  O   UNL     1       4.381  -6.012  27.110  0.00  0.00    -0.461 OA
BRANCH  10  12
ATOM     11  C   UNL     1       2.476  -7.080  26.078  0.00  0.00    +0.052 C 
ATOM     12  C   UNL     1       3.996  -7.035  26.172  0.00  0.00    +0.170 C 
ATOM     13  C   UNL     1       4.607  -6.679  24.821  0.00  0.00    +0.052 C 
ENDBRANCH  10  12
ENDBRANCH   8  10
ENDBRANCH   6   8
ENDBRANCH   4   6
ENDBRANCH   2   4
BRANCH   2  14
ATOM     14  O   UNL     1       6.836  -2.840  24.251  0.00  0.00    -0.413 OA
BRANCH  14  15
ATOM     15  C   UNL     1       6.819  -3.805  23.267  0.00  0.00    +0.131 A 
ATOM     16  C   UNL     1       7.548  -4.995  23.353  0.00  0.00    +0.046 A 
ATOM     17  C   UNL     1       7.427  -5.965  22.358  0.00  0.00    +0.004 A 
ATOM     18  C   UNL     1       6.597  -5.740  21.263  0.00  0.00    +0.000 A 
ATOM     19  C   UNL     1       5.898  -4.536  21.158  0.00  0.00    +0.004 A 
ATOM     20  C   UNL     1       6.011  -3.567  22.158  0.00  0.00    +0.046 A 
ENDBRANCH  14  15
ENDBRANCH   2  14
ENDBRANCH   1   2
BRANCH   1  21
ATOM     21  C   UNL     1       8.276  -1.683  26.414  0.00  0.00    +0.206 C 
BRANCH  21  22
ATOM     22  C   UNL     1       8.693  -0.408  25.649  0.00  0.00    +0.178 C 
ATOM     23  O   UNL     1       7.639   0.221  24.874  0.00  0.00    -0.347 OA
ATOM     24  C   UNL     1       8.247   0.829  23.695  0.00  0.00    +0.249 C 
ATOM     25  C   UNL     1       9.745   0.460  23.699  0.00  0.00    +0.179 C 
ATOM     26  F   UNL     1      10.468   1.453  24.304  0.00  0.00    -0.235 F 
ATOM     27  C   UNL     1      10.351   0.200  22.328  0.00  0.00    +0.054 C 
ATOM     28  C   UNL     1       9.767  -0.751  24.613  0.00  0.00    +0.186 C 
BRANCH  24  29
ATOM     29  N   UNL     1       8.005   2.274  23.654  0.00  0.00    -0.256 N 
ATOM     30  C   UNL     1       7.857   2.897  22.430  0.00  0.00    +0.310 C 
ATOM     31  O   UNL     1       7.778   2.297  21.363  0.00  0.00    -0.252 OA
ATOM     32  N   UNL     1       7.852   4.269  22.463  0.00  0.00    -0.240 N 
ATOM     33  H   UNL     1       7.715   4.728  21.574  0.00  0.00    +0.159 HD
ATOM     34  C   UNL     1       8.407   5.048  23.446  0.00  0.00    +0.222 C 
ATOM     35  O   UNL     1       8.602   6.250  23.277  0.00  0.00    -0.275 OA
ATOM     36  C   UNL     1       8.869   4.318  24.676  0.00  0.00    +0.115 C 
ATOM     37  C   UNL     1       8.017   3.077  24.864  0.00  0.00    +0.121 C 
ENDBRANCH  24  29
BRANCH  28  38
ATOM     38  O   UNL     1       9.453  -1.951  23.894  0.00  0.00    -0.386 OA
ATOM     39  H   UNL     1       9.305  -1.727  22.955  0.00  0.00    +0.210 HD
ENDBRANCH  28  38
ENDBRANCH  21  22
ENDBRANCH   1  21
TORSDOF 12
ENDMDL
MODEL 3
REMARK VINA RESULT:      -6.3      1.799      2.470
REMARK  Name = 
REMARK  16 active torsions:
REMARK  status: ('A' for Active; 'I' for Inactive)
REMARK    1  A    between atoms: C_1  and  C_2
REMARK    2  A    between atoms: C_2  and  C_3
REMARK    3  A    between atoms: C_2  and  O_4
REMARK    4  A    between atoms: O_4  and  C_5
REMARK    5  A    between atoms: C_5  and  C_7
REMARK    6  A    between atoms: C_7  and  C_8
REMARK    7  A    between atoms: C_7  and  N_9
REMARK    8  A    between atoms: N_9  and  P_10
REMARK    9  A    between atoms: P_10  and  O_12
REMARK   10  A    between atoms: P_10  and  O_30
REMARK   11  A    between atoms: O_12  and  C_13
REMARK   12  A    between atoms: C_13  and  C_14
REMARK   13  A    between atoms: C_15  and  O_29
REMARK   14  A    between atoms: C_16  and  C_27
REMARK   15  A    between atoms: C_17  and  N_19
REMARK   16  A    between atoms: O_30  and  C_31
REMARK                            x       y       z     vdW  Elec       q    Type
REMARK                         _______ _______ _______ _____ _____    ______ ____
ROOT
ATOM      1  O   UNL     1       8.532  -3.024  24.356  0.00  0.00    -0.284 OA
ENDROOT
BRANCH   1   2
ATOM      2  P   UNL     1       7.863  -4.555  24.519  0.00  0.00    +0.462 P 
ATOM      3  O   UNL     1       8.966  -5.598  24.278  0.00  0.00    -0.228 OA
BRANCH   2   4
ATOM      4  N   UNL     1       7.536  -4.586  22.769  0.00  0.00    -0.199 NA
ATOM      5  H   UNL     1       8.385  -4.949  22.352  0.00  0.00    +0.135 HD
BRANCH   4   6
ATOM      6  C   UNL     1       6.400  -5.461  22.409  0.00  0.00    +0.171 C 
ATOM      7  C   UNL     1       6.509  -5.827  20.932  0.00  0.00    +0.036 C 
BRANCH   6   8
ATOM      8  C   UNL     1       5.078  -4.738  22.704  0.00  0.00    +0.325 C 
ATOM      9  O   UNL     1       4.885  -3.545  22.494  0.00  0.00    -0.249 OA
BRANCH   8  10
ATOM     10  O   UNL     1       4.185  -5.575  23.302  0.00  0.00    -0.461 OA
BRANCH  10  12
ATOM     11  C   UNL     1       2.663  -5.128  25.125  0.00  0.00    +0.052 C 
ATOM     12  C   UNL     1       4.094  -5.479  24.737  0.00  0.00    +0.170 C 
ATOM     13  C   UNL     1       4.491  -6.831  25.318  0.00  0.00    +0.052 C 
ENDBRANCH  10  12
ENDBRANCH   8  10
ENDBRANCH   6   8
ENDBRANCH   4   6
ENDBRANCH   2   4
BRANCH   2  14
ATOM     14  O   UNL     1       8.181  -4.526  26.219  0.00  0.00    -0.413 OA
BRANCH  14  15
ATOM     15  C   UNL     1       7.072  -4.580  27.034  0.00  0.00    +0.131 A 
ATOM     16  C   UNL     1       6.822  -5.637  27.914  0.00  0.00    +0.046 A 
ATOM     17  C   UNL     1       5.721  -5.594  28.769  0.00  0.00    +0.004 A 
ATOM     18  C   UNL     1       4.852  -4.506  28.730  0.00  0.00    +0.000 A 
ATOM     19  C   UNL     1       5.079  -3.468  27.825  0.00  0.00    +0.004 A 
ATOM     20  C   UNL     1       6.187  -3.506  26.975  0.00  0.00    +0.046 A 
ENDBRANCH  14  15
ENDBRANCH   2  14
ENDBRANCH   1   2
BRANCH   1  21
ATOM     21  C   UNL     1       8.474  -2.437  23.060  0.00  0.00    +0.206 C 
BRANCH  21  22
ATOM     22  C   UNL     1       8.456  -0.893  23.029  0.00  0.00    +0.178 C 
ATOM     23  O   UNL     1       8.865  -0.244  24.261  0.00  0.00    -0.347 OA
ATOM     24  C   UNL     1       8.114   0.999  24.389  0.00  0.00    +0.249 C 
ATOM     25  C   UNL     1       7.112   1.061  23.217  0.00  0.00    +0.179 C 
ATOM     26  F   UNL     1       7.656   1.762  22.175  0.00  0.00    -0.235 F 
ATOM     27  C   UNL     1       5.762   1.681  23.552  0.00  0.00    +0.054 C 
ATOM     28  C   UNL     1       7.026  -0.395  22.800  0.00  0.00    +0.186 C 
BRANCH  24  29
ATOM     29  N   UNL     1       9.006   2.159  24.451  0.00  0.00    -0.256 N 
ATOM     30  C   UNL     1       8.531   3.347  24.973  0.00  0.00    +0.310 C 
ATOM     31  O   UNL     1       7.440   3.465  25.520  0.00  0.00    -0.252 OA
ATOM     32  N   UNL     1       9.348   4.436  24.799  0.00  0.00    -0.240 N 
ATOM     33  H   UNL     1       9.018   5.301  25.203  0.00  0.00    +0.159 HD
ATOM     34  C   UNL     1      10.304   4.573  23.824  0.00  0.00    +0.222 C 
ATOM     35  O   UNL     1      10.800   5.666  23.563  0.00  0.00    -0.275 OA
ATOM     36  C   UNL     1      10.603   3.336  23.025  0.00  0.00    +0.115 C 
ATOM     37  C   UNL     1      10.344   2.115  23.888  0.00  0.00    +0.121 C 
ENDBRANCH  24  29
BRANCH  28  38
ATOM     38  O   UNL     1       6.075  -1.110  23.601  0.00  0.00    -0.386 OA
ATOM     39  H   UNL     1       5.487  -0.467  24.042  0.00  0.00    +0.210 HD
ENDBRANCH  28  38
ENDBRANCH  21  22
ENDBRANCH   1  21
TORSDOF 12
ENDMDL
MODEL 4
REMARK VINA RESULT:      -6.3      2.916      8.178
REMARK  Name = 
REMARK  16 active torsions:
REMARK  status: ('A' for Active; 'I' for Inactive)
REMARK    1  A    between atoms: C_1  and  C_2
REMARK    2  A    between atoms: C_2  and  C_3
REMARK    3  A    between atoms: C_2  and  O_4
REMARK    4  A    between atoms: O_4  and  C_5
REMARK    5  A    between atoms: C_5  and  C_7
REMARK    6  A    between atoms: C_7  and  C_8
REMARK    7  A    between atoms: C_7  and  N_9
REMARK    8  A    between atoms: N_9  and  P_10
REMARK    9  A    between atoms: P_10  and  O_12
REMARK   10  A    between atoms: P_10  and  O_30
REMARK   11  A    between atoms: O_12  and  C_13
REMARK   12  A    between atoms: C_13  and  C_14
REMARK   13  A    between atoms: C_15  and  O_29
REMARK   14  A    between atoms: C_16  and  C_27
REMARK   15  A    between atoms: C_17  and  N_19
REMARK   16  A    between atoms: O_30  and  C_31
REMARK                            x       y       z     vdW  Elec       q    Type
REMARK                         _______ _______ _______ _____ _____    ______ ____
ROOT
ATOM      1  O   UNL     1       8.975   0.064  23.061  0.00  0.00    -0.284 OA
ENDROOT
BRANCH   1   2
ATOM      2  P   UNL     1       9.422   1.020  24.366  0.00  0.00    +0.462 P 
ATOM      3  O   UNL     1      10.531   0.294  25.146  0.00  0.00    -0.228 OA
BRANCH   2   4
ATOM      4  N   UNL     1       8.234   0.168  25.383  0.00  0.00    -0.199 NA
ATOM      5  H   UNL     1       8.753  -0.116  26.206  0.00  0.00    +0.135 HD
BRANCH   4   6
ATOM      6  C   UNL     1       7.101   1.026  25.789  0.00  0.00    +0.171 C 
ATOM      7  C   UNL     1       6.870   0.860  27.287  0.00  0.00    +0.036 C 
BRANCH   6   8
ATOM      8  C   UNL     1       5.849   0.639  24.989  0.00  0.00    +0.325 C 
ATOM      9  O   UNL     1       4.982  -0.127  25.397  0.00  0.00    -0.249 OA
BRANCH   8  10
ATOM     10  O   UNL     1       5.872   1.193  23.745  0.00  0.00    -0.461 OA
BRANCH  10  12
ATOM     11  C   UNL     1       6.191   3.105  22.302  0.00  0.00    +0.052 C 
ATOM     12  C   UNL     1       5.789   2.631  23.693  0.00  0.00    +0.170 C 
ATOM     13  C   UNL     1       4.349   3.023  23.998  0.00  0.00    +0.052 C 
ENDBRANCH  10  12
ENDBRANCH   8  10
ENDBRANCH   6   8
ENDBRANCH   4   6
ENDBRANCH   2   4
BRANCH   2  14
ATOM     14  O   UNL     1      10.578   1.847  23.380  0.00  0.00    -0.413 OA
BRANCH  14  15
ATOM     15  C   UNL     1      10.619   3.215  23.530  0.00  0.00    +0.131 A 
ATOM     16  C   UNL     1      11.776   3.972  23.323  0.00  0.00    +0.046 A 
ATOM     17  C   UNL     1      11.732   5.363  23.416  0.00  0.00    +0.004 A 
ATOM     18  C   UNL     1      10.537   6.001  23.740  0.00  0.00    +0.000 A 
ATOM     19  C   UNL     1       9.390   5.245  23.984  0.00  0.00    +0.004 A 
ATOM     20  C   UNL     1       9.430   3.852  23.883  0.00  0.00    +0.046 A 
ENDBRANCH  14  15
ENDBRANCH   2  14
ENDBRANCH   1   2
BRANCH   1  21
ATOM     21  C   UNL     1       9.571  -1.228  22.983  0.00  0.00    +0.206 C 
BRANCH  21  22
ATOM     22  C   UNL     1       8.613  -2.417  23.211  0.00  0.00    +0.178 C 
ATOM     23  O   UNL     1       7.251  -2.056  23.563  0.00  0.00    -0.347 OA
ATOM     24  C   UNL     1       6.727  -3.085  24.455  0.00  0.00    +0.249 C 
ATOM     25  C   UNL     1       7.872  -4.079  24.745  0.00  0.00    +0.179 C 
ATOM     26  F   UNL     1       7.812  -5.128  23.868  0.00  0.00    -0.235 F 
ATOM     27  C   UNL     1       7.895  -4.642  26.159  0.00  0.00    +0.054 C 
ATOM     28  C   UNL     1       9.097  -3.255  24.399  0.00  0.00    +0.186 C 
BRANCH  24  29
ATOM     29  N   UNL     1       5.534  -3.723  23.891  0.00  0.00    -0.256 N 
ATOM     30  C   UNL     1       4.456  -3.982  24.716  0.00  0.00    +0.310 C 
ATOM     31  O   UNL     1       4.372  -3.589  25.875  0.00  0.00    -0.252 OA
ATOM     32  N   UNL     1       3.473  -4.770  24.172  0.00  0.00    -0.240 N 
ATOM     33  H   UNL     1       2.670  -4.939  24.761  0.00  0.00    +0.159 HD
ATOM     34  C   UNL     1       3.638  -5.657  23.138  0.00  0.00    +0.222 C 
ATOM     35  O   UNL     1       2.792  -6.512  22.888  0.00  0.00    -0.275 OA
ATOM     36  C   UNL     1       4.960  -5.592  22.426  0.00  0.00    +0.115 C 
ATOM     37  C   UNL     1       5.499  -4.176  22.512  0.00  0.00    +0.121 C 
ENDBRANCH  24  29
BRANCH  28  38
ATOM     38  O   UNL     1       9.502  -2.434  25.502  0.00  0.00    -0.386 OA
ATOM     39  H   UNL     1       9.546  -2.987  26.306  0.00  0.00    +0.210 HD
ENDBRANCH  28  38
ENDBRANCH  21  22
ENDBRANCH   1  21
TORSDOF 12
ENDMDL
MODEL 5
REMARK VINA RESULT:      -6.3      2.895      8.372
REMARK  Name = 
REMARK  16 active torsions:
REMARK  status: ('A' for Active; 'I' for Inactive)
REMARK    1  A    between atoms: C_1  and  C_2
REMARK    2  A    between atoms: C_2  and  C_3
REMARK    3  A    between atoms: C_2  and  O_4
REMARK    4  A    between atoms: O_4  and  C_5
REMARK    5  A    between atoms: C_5  and  C_7
REMARK    6  A    between atoms: C_7  and  C_8
REMARK    7  A    between atoms: C_7  and  N_9
REMARK    8  A    between atoms: N_9  and  P_10
REMARK    9  A    between atoms: P_10  and  O_12
REMARK   10  A    between atoms: P_10  and  O_30
REMARK   11  A    between atoms: O_12  and  C_13
REMARK   12  A    between atoms: C_13  and  C_14
REMARK   13  A    between atoms: C_15  and  O_29
REMARK   14  A    between atoms: C_16  and  C_27
REMARK   15  A    between atoms: C_17  and  N_19
REMARK   16  A    between atoms: O_30  and  C_31
REMARK                            x       y       z     vdW  Elec       q    Type
REMARK                         _______ _______ _______ _____ _____    ______ ____
ROOT
ATOM      1  O   UNL     1       6.822   1.263  24.595  0.00  0.00    -0.284 OA
ENDROOT
BRANCH   1   2
ATOM      2  P   UNL     1       8.281   1.501  23.799  0.00  0.00    +0.462 P 
ATOM      3  O   UNL     1       7.988   1.762  22.313  0.00  0.00    -0.228 OA
BRANCH   2   4
ATOM      4  N   UNL     1       8.344  -0.237  23.419  0.00  0.00    -0.199 NA
ATOM      5  H   UNL     1       8.573  -0.279  22.432  0.00  0.00    +0.135 HD
BRANCH   4   6
ATOM      6  C   UNL     1       9.375  -0.961  24.193  0.00  0.00    +0.171 C 
ATOM      7  C   UNL     1      10.353   0.053  24.778  0.00  0.00    +0.036 C 
BRANCH   6   8
ATOM      8  C   UNL     1      10.096  -1.963  23.280  0.00  0.00    +0.325 C 
ATOM      9  O   UNL     1      10.394  -1.737  22.112  0.00  0.00    -0.249 OA
BRANCH   8  10
ATOM     10  O   UNL     1      10.284  -3.155  23.913  0.00  0.00    -0.461 OA
BRANCH  10  12
ATOM     11  C   UNL     1       8.060  -4.046  23.598  0.00  0.00    +0.052 C 
ATOM     12  C   UNL     1       9.140  -3.685  24.611  0.00  0.00    +0.170 C 
ATOM     13  C   UNL     1       9.595  -4.923  25.374  0.00  0.00    +0.052 C 
ENDBRANCH  10  12
ENDBRANCH   8  10
ENDBRANCH   6   8
ENDBRANCH   4   6
ENDBRANCH   2   4
BRANCH   2  14
ATOM     14  O   UNL     1       8.219   3.190  24.167  0.00  0.00    -0.413 OA
BRANCH  14  15
ATOM     15  C   UNL     1       9.395   3.883  23.984  0.00  0.00    +0.131 A 
ATOM     16  C   UNL     1      10.572   3.283  23.525  0.00  0.00    +0.046 A 
ATOM     17  C   UNL     1      11.708   4.056  23.287  0.00  0.00    +0.004 A 
ATOM     18  C   UNL     1      11.680   5.428  23.529  0.00  0.00    +0.000 A 
ATOM     19  C   UNL     1      10.518   6.021  24.023  0.00  0.00    +0.004 A 
ATOM     20  C   UNL     1       9.376   5.250  24.254  0.00  0.00    +0.046 A 
ENDBRANCH  14  15
ENDBRANCH   2  14
ENDBRANCH   1   2
BRANCH   1  21
ATOM     21  C   UNL     1       6.888   1.075  26.005  0.00  0.00    +0.206 C 
BRANCH  21  22
ATOM     22  C   UNL     1       6.295  -0.251  26.529  0.00  0.00    +0.178 C 
ATOM     23  O   UNL     1       6.222  -1.324  25.553  0.00  0.00    -0.347 OA
ATOM     24  C   UNL     1       5.047  -2.133  25.859  0.00  0.00    +0.249 C 
ATOM     25  C   UNL     1       4.303  -1.453  27.028  0.00  0.00    +0.179 C 
ATOM     26  F   UNL     1       4.707  -1.998  28.217  0.00  0.00    -0.235 F 
ATOM     27  C   UNL     1       2.785  -1.533  26.961  0.00  0.00    +0.054 C 
ATOM     28  C   UNL     1       4.841  -0.037  26.960  0.00  0.00    +0.186 C 
BRANCH  24  29
ATOM     29  N   UNL     1       5.414  -3.524  26.136  0.00  0.00    -0.256 N 
ATOM     30  C   UNL     1       4.649  -4.542  25.600  0.00  0.00    +0.310 C 
ATOM     31  O   UNL     1       3.748  -4.363  24.785  0.00  0.00    -0.252 OA
ATOM     32  N   UNL     1       4.922  -5.799  26.076  0.00  0.00    -0.240 N 
ATOM     33  H   UNL     1       4.384  -6.550  25.666  0.00  0.00    +0.159 HD
ATOM     34  C   UNL     1       5.507  -6.089  27.283  0.00  0.00    +0.222 C 
ATOM     35  O   UNL     1       5.473  -7.223  27.755  0.00  0.00    -0.275 OA
ATOM     36  C   UNL     1       6.073  -4.915  28.033  0.00  0.00    +0.115 C 
ATOM     37  C   UNL     1       6.503  -3.854  27.038  0.00  0.00    +0.121 C 
ENDBRANCH  24  29
BRANCH  28  38
ATOM     38  O   UNL     1       4.112   0.753  26.011  0.00  0.00    -0.386 OA
ATOM     39  H   UNL     1       3.899   1.615  26.416  0.00  0.00    +0.210 HD
ENDBRANCH  28  38
ENDBRANCH  21  22
ENDBRANCH   1  21
TORSDOF 12
ENDMDL
MODEL 6
REMARK VINA RESULT:      -6.2      2.088      2.878
REMARK  Name = 
REMARK  16 active torsions:
REMARK  status: ('A' for Active; 'I' for Inactive)
REMARK    1  A    between atoms: C_1  and  C_2
REMARK    2  A    between atoms: C_2  and  C_3
REMARK    3  A    between atoms: C_2  and  O_4
REMARK    4  A    between atoms: O_4  and  C_5
REMARK    5  A    between atoms: C_5  and  C_7
REMARK    6  A    between atoms: C_7  and  C_8
REMARK    7  A    between atoms: C_7  and  N_9
REMARK    8  A    between atoms: N_9  and  P_10
REMARK    9  A    between atoms: P_10  and  O_12
REMARK   10  A    between atoms: P_10  and  O_30
REMARK   11  A    between atoms: O_12  and  C_13
REMARK   12  A    between atoms: C_13  and  C_14
REMARK   13  A    between atoms: C_15  and  O_29
REMARK   14  A    between atoms: C_16  and  C_27
REMARK   15  A    between atoms: C_17  and  N_19
REMARK   16  A    between atoms: O_30  and  C_31
REMARK                            x       y       z     vdW  Elec       q    Type
REMARK                         _______ _______ _______ _____ _____    ______ ____
ROOT
ATOM      1  O   UNL     1       5.786  -2.593  25.788  0.00  0.00    -0.284 OA
ENDROOT
BRANCH   1   2
ATOM      2  P   UNL     1       5.929  -4.219  26.180  0.00  0.00    +0.462 P 
ATOM      3  O   UNL     1       6.052  -4.343  27.707  0.00  0.00    -0.228 OA
BRANCH   2   4
ATOM      4  N   UNL     1       7.702  -4.069  26.111  0.00  0.00    -0.199 NA
ATOM      5  H   UNL     1       8.025  -4.388  27.017  0.00  0.00    +0.135 HD
BRANCH   4   6
ATOM      6  C   UNL     1       8.311  -4.901  25.051  0.00  0.00    +0.171 C 
ATOM      7  C   UNL     1       9.732  -5.266  25.468  0.00  0.00    +0.036 C 
BRANCH   6   8
ATOM      8  C   UNL     1       8.303  -4.133  23.723  0.00  0.00    +0.325 C 
ATOM      9  O   UNL     1       8.706  -2.981  23.593  0.00  0.00    -0.249 OA
BRANCH   8  10
ATOM     10  O   UNL     1       7.717  -4.866  22.736  0.00  0.00    -0.461 OA
BRANCH  10  12
ATOM     11  C   UNL     1       5.753  -3.549  22.238  0.00  0.00    +0.052 C 
ATOM     12  C   UNL     1       6.276  -4.890  22.739  0.00  0.00    +0.170 C 
ATOM     13  C   UNL     1       5.829  -6.018  21.817  0.00  0.00    +0.052 C 
ENDBRANCH  10  12
ENDBRANCH   8  10
ENDBRANCH   6   8
ENDBRANCH   4   6
ENDBRANCH   2   4
BRANCH   2  14
ATOM     14  O   UNL     1       4.207  -4.365  26.249  0.00  0.00    -0.413 OA
BRANCH  14  15
ATOM     15  C   UNL     1       3.636  -5.154  25.275  0.00  0.00    +0.131 A 
ATOM     16  C   UNL     1       3.818  -6.539  25.210  0.00  0.00    +0.046 A 
ATOM     17  C   UNL     1       3.149  -7.290  24.244  0.00  0.00    +0.004 A 
ATOM     18  C   UNL     1       2.316  -6.658  23.324  0.00  0.00    +0.000 A 
ATOM     19  C   UNL     1       2.163  -5.272  23.364  0.00  0.00    +0.004 A 
ATOM     20  C   UNL     1       2.825  -4.518  24.336  0.00  0.00    +0.046 A 
ENDBRANCH  14  15
ENDBRANCH   2  14
ENDBRANCH   1   2
BRANCH   1  21
ATOM     21  C   UNL     1       6.473  -1.671  26.630  0.00  0.00    +0.206 C 
BRANCH  21  22
ATOM     22  C   UNL     1       7.019  -0.408  25.928  0.00  0.00    +0.178 C 
ATOM     23  O   UNL     1       6.839  -0.374  24.488  0.00  0.00    -0.347 OA
ATOM     24  C   UNL     1       7.969   0.344  23.909  0.00  0.00    +0.249 C 
ATOM     25  C   UNL     1       8.947   0.678  25.055  0.00  0.00    +0.179 C 
ATOM     26  F   UNL     1       8.689   1.932  25.538  0.00  0.00    -0.235 F 
ATOM     27  C   UNL     1      10.422   0.605  24.687  0.00  0.00    +0.054 C 
ATOM     28  C   UNL     1       8.536  -0.322  26.119  0.00  0.00    +0.186 C 
BRANCH  24  29
ATOM     29  N   UNL     1       7.526   1.525  23.162  0.00  0.00    -0.256 N 
ATOM     30  C   UNL     1       8.292   1.980  22.107  0.00  0.00    +0.310 C 
ATOM     31  O   UNL     1       9.262   1.379  21.657  0.00  0.00    -0.252 OA
ATOM     32  N   UNL     1       7.931   3.204  21.601  0.00  0.00    -0.240 N 
ATOM     33  H   UNL     1       8.471   3.528  20.811  0.00  0.00    +0.159 HD
ATOM     34  C   UNL     1       7.239   4.177  22.276  0.00  0.00    +0.222 C 
ATOM     35  O   UNL     1       7.189   5.332  21.861  0.00  0.00    -0.275 OA
ATOM     36  C   UNL     1       6.660   3.766  23.601  0.00  0.00    +0.115 C 
ATOM     37  C   UNL     1       6.354   2.281  23.569  0.00  0.00    +0.121 C 
ENDBRANCH  24  29
BRANCH  28  38
ATOM     38  O   UNL     1       9.174  -1.590  25.917  0.00  0.00    -0.386 OA
ATOM     39  H   UNL     1       9.826  -1.732  26.629  0.00  0.00    +0.210 HD
ENDBRANCH  28  38
ENDBRANCH  21  22
ENDBRANCH   1  21
TORSDOF 12
ENDMDL
MODEL 7
REMARK VINA RESULT:      -6.2      3.423      7.848
REMARK  Name = 
REMARK  16 active torsions:
REMARK  status: ('A' for Active; 'I' for Inactive)
REMARK    1  A    between atoms: C_1  and  C_2
REMARK    2  A    between atoms: C_2  and  C_3
REMARK    3  A    between atoms: C_2  and  O_4
REMARK    4  A    between atoms: O_4  and  C_5
REMARK    5  A    between atoms: C_5  and  C_7
REMARK    6  A    between atoms: C_7  and  C_8
REMARK    7  A    between atoms: C_7  and  N_9
REMARK    8  A    between atoms: N_9  and  P_10
REMARK    9  A    between atoms: P_10  and  O_12
REMARK   10  A    between atoms: P_10  and  O_30
REMARK   11  A    between atoms: O_12  and  C_13
REMARK   12  A    between atoms: C_13  and  C_14
REMARK   13  A    between atoms: C_15  and  O_29
REMARK   14  A    between atoms: C_16  and  C_27
REMARK   15  A    between atoms: C_17  and  N_19
REMARK   16  A    between atoms: O_30  and  C_31
REMARK                            x       y       z     vdW  Elec       q    Type
REMARK                         _______ _______ _______ _____ _____    ______ ____
ROOT
ATOM      1  O   UNL     1       7.894   1.851  26.284  0.00  0.00    -0.284 OA
ENDROOT
BRANCH   1   2
ATOM      2  P   UNL     1       7.168   3.326  25.944  0.00  0.00    +0.462 P 
ATOM      3  O   UNL     1       7.575   4.332  27.033  0.00  0.00    -0.228 OA
BRANCH   2   4
ATOM      4  N   UNL     1       5.785   2.870  26.967  0.00  0.00    -0.199 NA
ATOM      5  H   UNL     1       5.974   3.300  27.866  0.00  0.00    +0.135 HD
BRANCH   4   6
ATOM      6  C   UNL     1       4.493   3.367  26.448  0.00  0.00    +0.171 C 
ATOM      7  C   UNL     1       3.688   3.950  27.605  0.00  0.00    +0.036 C 
BRANCH   6   8
ATOM      8  C   UNL     1       3.735   2.218  25.768  0.00  0.00    +0.325 C 
ATOM      9  O   UNL     1       3.125   1.343  26.375  0.00  0.00    -0.249 OA
BRANCH   8  10
ATOM     10  O   UNL     1       3.897   2.255  24.416  0.00  0.00    -0.461 OA
BRANCH  10  12
ATOM     11  C   UNL     1       4.029   3.499  22.349  0.00  0.00    +0.052 C 
ATOM     12  C   UNL     1       3.460   3.463  23.762  0.00  0.00    +0.170 C 
ATOM     13  C   UNL     1       1.937   3.445  23.727  0.00  0.00    +0.052 C 
ENDBRANCH  10  12
ENDBRANCH   8  10
ENDBRANCH   6   8
ENDBRANCH   4   6
ENDBRANCH   2   4
BRANCH   2  14
ATOM     14  O   UNL     1       8.513   3.770  24.950  0.00  0.00    -0.413 OA
BRANCH  14  15
ATOM     15  C   UNL     1       8.672   3.032  23.798  0.00  0.00    +0.131 A 
ATOM     16  C   UNL     1       7.609   2.689  22.957  0.00  0.00    +0.046 A 
ATOM     17  C   UNL     1       7.848   2.006  21.765  0.00  0.00    +0.004 A 
ATOM     18  C   UNL     1       9.147   1.641  21.421  0.00  0.00    +0.000 A 
ATOM     19  C   UNL     1      10.205   1.949  22.277  0.00  0.00    +0.004 A 
ATOM     20  C   UNL     1       9.968   2.642  23.467  0.00  0.00    +0.046 A 
ENDBRANCH  14  15
ENDBRANCH   2  14
ENDBRANCH   1   2
BRANCH   1  21
ATOM     21  C   UNL     1       7.039   0.712  26.312  0.00  0.00    +0.206 C 
BRANCH  21  22
ATOM     22  C   UNL     1       7.230  -0.293  25.155  0.00  0.00    +0.178 C 
ATOM     23  O   UNL     1       6.988  -1.683  25.496  0.00  0.00    -0.347 OA
ATOM     24  C   UNL     1       7.883  -2.508  24.691  0.00  0.00    +0.249 C 
ATOM     25  C   UNL     1       8.798  -1.559  23.888  0.00  0.00    +0.179 C 
ATOM     26  F   UNL     1       8.261  -1.333  22.649  0.00  0.00    -0.235 F 
ATOM     27  C   UNL     1      10.229  -2.042  23.705  0.00  0.00    +0.054 C 
ATOM     28  C   UNL     1       8.687  -0.271  24.682  0.00  0.00    +0.186 C 
BRANCH  24  29
ATOM     29  N   UNL     1       7.135  -3.444  23.849  0.00  0.00    -0.256 N 
ATOM     30  C   UNL     1       7.688  -4.676  23.555  0.00  0.00    +0.310 C 
ATOM     31  O   UNL     1       8.718  -5.102  24.067  0.00  0.00    -0.252 OA
ATOM     32  N   UNL     1       7.032  -5.402  22.593  0.00  0.00    -0.240 N 
ATOM     33  H   UNL     1       7.417  -6.315  22.395  0.00  0.00    +0.159 HD
ATOM     34  C   UNL     1       6.215  -4.887  21.619  0.00  0.00    +0.222 C 
ATOM     35  O   UNL     1       5.885  -5.555  20.641  0.00  0.00    -0.275 OA
ATOM     36  C   UNL     1       5.859  -3.434  21.765  0.00  0.00    +0.115 C 
ATOM     37  C   UNL     1       5.873  -3.067  23.237  0.00  0.00    +0.121 C 
ENDBRANCH  24  29
BRANCH  28  38
ATOM     38  O   UNL     1       9.607  -0.257  25.783  0.00  0.00    -0.386 OA
ATOM     39  H   UNL     1      10.454   0.122  25.480  0.00  0.00    +0.210 HD
ENDBRANCH  28  38
ENDBRANCH  21  22
ENDBRANCH   1  21
TORSDOF 12
ENDMDL
MODEL 8
REMARK VINA RESULT:      -6.1      3.483      8.589
REMARK  Name = 
REMARK  16 active torsions:
REMARK  status: ('A' for Active; 'I' for Inactive)
REMARK    1  A    between atoms: C_1  and  C_2
REMARK    2  A    between atoms: C_2  and  C_3
REMARK    3  A    between atoms: C_2  and  O_4
REMARK    4  A    between atoms: O_4  and  C_5
REMARK    5  A    between atoms: C_5  and  C_7
REMARK    6  A    between atoms: C_7  and  C_8
REMARK    7  A    between atoms: C_7  and  N_9
REMARK    8  A    between atoms: N_9  and  P_10
REMARK    9  A    between atoms: P_10  and  O_12
REMARK   10  A    between atoms: P_10  and  O_30
REMARK   11  A    between atoms: O_12  and  C_13
REMARK   12  A    between atoms: C_13  and  C_14
REMARK   13  A    between atoms: C_15  and  O_29
REMARK   14  A    between atoms: C_16  and  C_27
REMARK   15  A    between atoms: C_17  and  N_19
REMARK   16  A    between atoms: O_30  and  C_31
REMARK                            x       y       z     vdW  Elec       q    Type
REMARK                         _______ _______ _______ _____ _____    ______ ____
ROOT
ATOM      1  O   UNL     1       7.793   1.447  22.934  0.00  0.00    -0.284 OA
ENDROOT
BRANCH   1   2
ATOM      2  P   UNL     1       6.924   2.600  23.790  0.00  0.00    +0.462 P 
ATOM      3  O   UNL     1       6.240   1.910  24.981  0.00  0.00    -0.228 OA
BRANCH   2   4
ATOM      4  N   UNL     1       5.482   2.218  22.819  0.00  0.00    -0.199 NA
ATOM      5  H   UNL     1       4.941   1.584  23.396  0.00  0.00    +0.135 HD
BRANCH   4   6
ATOM      6  C   UNL     1       4.666   3.410  22.504  0.00  0.00    +0.171 C 
ATOM      7  C   UNL     1       5.413   4.656  22.969  0.00  0.00    +0.036 C 
BRANCH   6   8
ATOM      8  C   UNL     1       3.298   3.296  23.191  0.00  0.00    +0.325 C 
ATOM      9  O   UNL     1       3.106   2.694  24.242  0.00  0.00    -0.249 OA
BRANCH   8  10
ATOM     10  O   UNL     1       2.322   3.878  22.440  0.00  0.00    -0.461 OA
BRANCH  10  12
ATOM     11  C   UNL     1       1.394   2.405  20.764  0.00  0.00    +0.052 C 
ATOM     12  C   UNL     1       2.341   3.569  21.032  0.00  0.00    +0.170 C 
ATOM     13  C   UNL     1       1.889   4.814  20.278  0.00  0.00    +0.052 C 
ENDBRANCH  10  12
ENDBRANCH   8  10
ENDBRANCH   6   8
ENDBRANCH   4   6
ENDBRANCH   2   4
BRANCH   2  14
ATOM     14  O   UNL     1       8.325   2.970  24.735  0.00  0.00    -0.413 OA
BRANCH  14  15
ATOM     15  C   UNL     1       8.761   4.275  24.669  0.00  0.00    +0.131 A 
ATOM     16  C   UNL     1       9.614   4.746  23.666  0.00  0.00    +0.046 A 
ATOM     17  C   UNL     1       9.956   6.097  23.611  0.00  0.00    +0.004 A 
ATOM     18  C   UNL     1       9.467   6.978  24.572  0.00  0.00    +0.000 A 
ATOM     19  C   UNL     1       8.646   6.502  25.596  0.00  0.00    +0.004 A 
ATOM     20  C   UNL     1       8.295   5.151  25.647  0.00  0.00    +0.046 A 
ENDBRANCH  14  15
ENDBRANCH   2  14
ENDBRANCH   1   2
BRANCH   1  21
ATOM     21  C   UNL     1       8.676   0.622  23.689  0.00  0.00    +0.206 C 
BRANCH  21  22
ATOM     22  C   UNL     1       8.100  -0.742  24.127  0.00  0.00    +0.178 C 
ATOM     23  O   UNL     1       9.049  -1.639  24.762  0.00  0.00    -0.347 OA
ATOM     24  C   UNL     1       8.677  -3.007  24.419  0.00  0.00    +0.249 C 
ATOM     25  C   UNL     1       7.494  -2.936  23.431  0.00  0.00    +0.179 C 
ATOM     26  F   UNL     1       6.311  -3.027  24.114  0.00  0.00    -0.235 F 
ATOM     27  C   UNL     1       7.496  -3.998  22.341  0.00  0.00    +0.054 C 
ATOM     28  C   UNL     1       7.613  -1.520  22.900  0.00  0.00    +0.186 C 
BRANCH  24  29
ATOM     29  N   UNL     1       8.387  -3.799  25.616  0.00  0.00    -0.256 N 
ATOM     30  C   UNL     1       8.757  -5.130  25.651  0.00  0.00    +0.310 C 
ATOM     31  O   UNL     1       9.444  -5.670  24.789  0.00  0.00    -0.252 OA
ATOM     32  N   UNL     1       8.262  -5.853  26.706  0.00  0.00    -0.240 N 
ATOM     33  H   UNL     1       8.554  -6.819  26.751  0.00  0.00    +0.159 HD
ATOM     34  C   UNL     1       7.138  -5.546  27.430  0.00  0.00    +0.222 C 
ATOM     35  O   UNL     1       6.610  -6.371  28.172  0.00  0.00    -0.275 OA
ATOM     36  C   UNL     1       6.535  -4.196  27.160  0.00  0.00    +0.115 C 
ATOM     37  C   UNL     1       7.633  -3.242  26.726  0.00  0.00    +0.121 C 
ENDBRANCH  24  29
BRANCH  28  38
ATOM     38  O   UNL     1       8.548  -1.448  21.815  0.00  0.00    -0.386 OA
ATOM     39  H   UNL     1       8.068  -1.579  20.976  0.00  0.00    +0.210 HD
ENDBRANCH  28  38
ENDBRANCH  21  22
ENDBRANCH   1  21
TORSDOF 12
ENDMDL
MODEL 9
REMARK VINA RESULT:      -6.0      2.864      5.337
REMARK  Name = 
REMARK  16 active torsions:
REMARK  status: ('A' for Active; 'I' for Inactive)
REMARK    1  A    between atoms: C_1  and  C_2
REMARK    2  A    between atoms: C_2  and  C_3
REMARK    3  A    between atoms: C_2  and  O_4
REMARK    4  A    between atoms: O_4  and  C_5
REMARK    5  A    between atoms: C_5  and  C_7
REMARK    6  A    between atoms: C_7  and  C_8
REMARK    7  A    between atoms: C_7  and  N_9
REMARK    8  A    between atoms: N_9  and  P_10
REMARK    9  A    between atoms: P_10  and  O_12
REMARK   10  A    between atoms: P_10  and  O_30
REMARK   11  A    between atoms: O_12  and  C_13
REMARK   12  A    between atoms: C_13  and  C_14
REMARK   13  A    between atoms: C_15  and  O_29
REMARK   14  A    between atoms: C_16  and  C_27
REMARK   15  A    between atoms: C_17  and  N_19
REMARK   16  A    between atoms: O_30  and  C_31
REMARK                            x       y       z     vdW  Elec       q    Type
REMARK                         _______ _______ _______ _____ _____    ______ ____
ROOT
ATOM      1  O   UNL     1       6.235  -1.610  24.412  0.00  0.00    -0.284 OA
ENDROOT
BRANCH   1   2
ATOM      2  P   UNL     1       7.809  -2.190  24.336  0.00  0.00    +0.462 P 
ATOM      3  O   UNL     1       8.498  -1.910  25.682  0.00  0.00    -0.228 OA
BRANCH   2   4
ATOM      4  N   UNL     1       8.361  -0.587  23.790  0.00  0.00    -0.199 NA
ATOM      5  H   UNL     1       9.220  -0.421  24.301  0.00  0.00    +0.135 HD
BRANCH   4   6
ATOM      6  C   UNL     1       8.635  -0.534  22.338  0.00  0.00    +0.171 C 
ATOM      7  C   UNL     1       9.806  -1.459  22.024  0.00  0.00    +0.036 C 
BRANCH   6   8
ATOM      8  C   UNL     1       8.943   0.911  21.924  0.00  0.00    +0.325 C 
ATOM      9  O   UNL     1       8.176   1.620  21.280  0.00  0.00    -0.249 OA
BRANCH   8  10
ATOM     10  O   UNL     1      10.204   1.269  22.294  0.00  0.00    -0.461 OA
BRANCH  10  12
ATOM     11  C   UNL     1      11.228   1.087  24.476  0.00  0.00    +0.052 C 
ATOM     12  C   UNL     1      10.325   1.920  23.574  0.00  0.00    +0.170 C 
ATOM     13  C   UNL     1      10.928   3.299  23.337  0.00  0.00    +0.052 C 
ENDBRANCH  10  12
ENDBRANCH   8  10
ENDBRANCH   6   8
ENDBRANCH   4   6
ENDBRANCH   2   4
BRANCH   2  14
ATOM     14  O   UNL     1       7.274  -3.746  24.867  0.00  0.00    -0.413 OA
BRANCH  14  15
ATOM     15  C   UNL     1       6.753  -4.564  23.889  0.00  0.00    +0.131 A 
ATOM     16  C   UNL     1       5.478  -5.133  23.968  0.00  0.00    +0.046 A 
ATOM     17  C   UNL     1       4.980  -5.889  22.907  0.00  0.00    +0.004 A 
ATOM     18  C   UNL     1       5.762  -6.099  21.774  0.00  0.00    +0.000 A 
ATOM     19  C   UNL     1       7.048  -5.563  21.709  0.00  0.00    +0.004 A 
ATOM     20  C   UNL     1       7.546  -4.798  22.767  0.00  0.00    +0.046 A 
ENDBRANCH  14  15
ENDBRANCH   2  14
ENDBRANCH   1   2
BRANCH   1  21
ATOM     21  C   UNL     1       5.888  -0.858  25.570  0.00  0.00    +0.206 C 
BRANCH  21  22
ATOM     22  C   UNL     1       5.650   0.650  25.337  0.00  0.00    +0.178 C 
ATOM     23  O   UNL     1       5.977   1.130  24.006  0.00  0.00    -0.347 OA
ATOM     24  C   UNL     1       6.453   2.504  24.126  0.00  0.00    +0.249 C 
ATOM     25  C   UNL     1       6.518   2.847  25.629  0.00  0.00    +0.179 C 
ATOM     26  F   UNL     1       5.355   3.456  26.018  0.00  0.00    -0.235 F 
ATOM     27  C   UNL     1       7.681   3.738  26.040  0.00  0.00    +0.054 C 
ATOM     28  C   UNL     1       6.553   1.469  26.264  0.00  0.00    +0.186 C 
BRANCH  24  29
ATOM     29  N   UNL     1       5.618   3.428  23.355  0.00  0.00    -0.256 N 
ATOM     30  C   UNL     1       6.206   4.519  22.744  0.00  0.00    +0.310 C 
ATOM     31  O   UNL     1       7.419   4.698  22.687  0.00  0.00    -0.252 OA
ATOM     32  N   UNL     1       5.337   5.447  22.230  0.00  0.00    -0.240 N 
ATOM     33  H   UNL     1       5.763   6.232  21.757  0.00  0.00    +0.159 HD
ATOM     34  C   UNL     1       4.040   5.640  22.633  0.00  0.00    +0.222 C 
ATOM     35  O   UNL     1       3.417   6.653  22.323  0.00  0.00    -0.275 OA
ATOM     36  C   UNL     1       3.486   4.603  23.569  0.00  0.00    +0.115 C 
ATOM     37  C   UNL     1       4.174   3.277  23.302  0.00  0.00    +0.121 C 
ENDBRANCH  24  29
BRANCH  28  38
ATOM     38  O   UNL     1       7.889   0.950  26.305  0.00  0.00    -0.386 OA
ATOM     39  H   UNL     1       8.487   1.582  25.863  0.00  0.00    +0.210 HD
ENDBRANCH  28  38
ENDBRANCH  21  22
ENDBRANCH   1  21
TORSDOF 12
ENDMDL
