MODEL 1
REMARK VINA RESULT:      -6.6      0.000      0.000
REMARK  Name = 
REMARK  13 active torsions:
REMARK  status: ('A' for Active; 'I' for Inactive)
REMARK    1  A    between atoms: C_1  and  C_2
REMARK    2  A    between atoms: C_3  and  O_51
REMARK    3  A    between atoms: C_9  and  C_43
REMARK    4  A    between atoms: C_11  and  O_12
REMARK    5  A    between atoms: O_12  and  C_13
REMARK    6  A    between atoms: N_20  and  C_42
REMARK    7  A    between atoms: C_29  and  C_33
REMARK    8  A    between atoms: N_35  and  S_36
REMARK    9  A    between atoms: S_36  and  C_39
REMARK   10  A    between atoms: C_45  and  C_48
REMARK   11  A    between atoms: C_48  and  C_49
REMARK   12  A    between atoms: C_48  and  C_50
REMARK   13  A    between atoms: O_51  and  C_52
REMARK                            x       y       z     vdW  Elec       q    Type
REMARK                         _______ _______ _______ _____ _____    ______ ____
ROOT
ATOM      1  C   UNL     1       4.561   2.137  25.764  0.00  0.00    +0.175 C 
ATOM      2  C   UNL     1       3.473   2.995  26.464  0.00  0.00    +0.058 C 
ATOM      3  C   UNL     1       3.409   2.316  27.863  0.00  0.00    +0.091 C 
ATOM      4  C   UNL     1       4.696   2.761  28.627  0.00  0.00    +0.219 C 
ATOM      5  N   UNL     1       5.626   1.804  29.044  0.00  0.00    -0.304 N 
ATOM      6  C   UNL     1       5.873   1.889  30.477  0.00  0.00    +0.132 C 
ATOM      7  C   UNL     1       6.908   1.747  28.304  0.00  0.00    +0.107 C 
ATOM      8  C   UNL     1       7.560   0.366  28.351  0.00  0.00    +0.019 C 
ATOM      9  C   UNL     1       8.236  -0.025  27.020  0.00  0.00    +0.006 C 
ATOM     10  C   UNL     1       7.972  -1.481  26.620  0.00  0.00    +0.027 C 
ATOM     11  C   UNL     1       6.571  -1.774  26.161  0.00  0.00    -0.031 C 
ATOM     12  C   UNL     1       5.696  -2.434  26.939  0.00  0.00    -0.025 C 
ATOM     13  C   UNL     1       4.385  -3.061  26.661  0.00  0.00    +0.046 C 
ATOM     14  C   UNL     1       2.925  -2.681  26.996  0.00  0.00    +0.119 C 
ATOM     15  N   UNL     1       2.556  -1.304  27.109  0.00  0.00    -0.301 N 
ATOM     16  H   UNL     1       2.205  -0.927  26.229  0.00  0.00    +0.150 HD
ATOM     17  C   UNL     1       2.962  -0.367  28.059  0.00  0.00    +0.218 C 
ATOM     18  O   UNL     1       3.133  -0.558  29.248  0.00  0.00    -0.275 OA
ATOM     19  C   UNL     1       3.733  -3.441  27.990  0.00  0.00    +0.046 C 
ATOM     20  O   UNL     1       4.881   3.959  28.859  0.00  0.00    -0.275 OA
ATOM     21  C   UNL     1       3.172   0.927  27.316  0.00  0.00    +0.090 C 
ATOM     22  C   UNL     1       4.278   0.742  26.281  0.00  0.00    +0.058 C 
ENDROOT
BRANCH  14  23
ATOM     23  C   UNL     1       1.859  -3.488  26.261  0.00  0.00    +0.256 C 
ATOM     24  N   UNL     1       2.337  -4.605  25.601  0.00  0.00    -0.188 N 
ATOM     25  H   UNL     1       3.300  -4.904  25.692  0.00  0.00    +0.176 HD
ATOM     26  O   UNL     1       0.687  -3.138  26.301  0.00  0.00    -0.272 OA
BRANCH  24  27
ATOM     27  S   UNL     1       1.419  -5.561  24.625  0.00  0.00    +0.048 S 
ATOM     28  O   UNL     1       0.817  -4.718  23.605  0.00  0.00    -0.155 OA
ATOM     29  O   UNL     1       0.580  -6.340  25.529  0.00  0.00    -0.155 OA
BRANCH  27  30
ATOM     30  C   UNL     1       2.528  -6.710  23.764  0.00  0.00    +0.151 C 
ATOM     31  C   UNL     1       3.949  -6.760  24.254  0.00  0.00    +0.030 C 
ATOM     32  C   UNL     1       3.624  -6.018  22.987  0.00  0.00    +0.030 C 
ENDBRANCH  27  30
ENDBRANCH  24  27
ENDBRANCH  14  23
BRANCH   1  33
ATOM     33  O   UNL     1       4.667   2.053  24.345  0.00  0.00    -0.488 OA
BRANCH  33  40
ATOM     34  C   UNL     1      10.460   4.014  23.631  0.00  0.00    +0.050 C 
ATOM     35  C   UNL     1       8.974   4.225  23.794  0.00  0.00    +0.017 A 
ATOM     36  C   UNL     1       8.147   3.095  23.701  0.00  0.00    +0.082 A 
ATOM     37  N   UNL     1       8.710   1.887  23.441  0.00  0.00    -0.244 NA
ATOM     38  C   UNL     1       7.919   0.801  23.396  0.00  0.00    +0.100 A 
ATOM     39  C   UNL     1       6.573   0.878  23.631  0.00  0.00    +0.076 A 
ATOM     40  C   UNL     1       5.979   2.083  23.927  0.00  0.00    +0.132 A 
ATOM     41  C   UNL     1       6.756   3.254  23.922  0.00  0.00    +0.043 A 
ATOM     42  C   UNL     1       6.224   4.548  24.122  0.00  0.00    +0.017 A 
ATOM     43  C   UNL     1       7.063   5.664  24.181  0.00  0.00    +0.047 A 
ATOM     44  C   UNL     1       8.442   5.507  24.054  0.00  0.00    +0.125 A 
BRANCH  38  45
ATOM     45  C   UNL     1       8.455  -0.555  23.221  0.00  0.00    +0.127 A 
ATOM     46  S   UNL     1      10.067  -0.988  23.582  0.00  0.00    -0.074 S 
ATOM     47  C   UNL     1       9.655  -2.642  23.357  0.00  0.00    +0.070 A 
ATOM     48  C   UNL     1       8.329  -2.782  22.992  0.00  0.00    +0.052 A 
ATOM     49  N   UNL     1       7.669  -1.573  22.895  0.00  0.00    -0.242 NA
BRANCH  48  50
ATOM     50  C   UNL     1       7.571  -4.043  22.707  0.00  0.00    +0.032 C 
ATOM     51  C   UNL     1       6.326  -3.761  21.864  0.00  0.00    +0.014 C 
ATOM     52  C   UNL     1       7.177  -4.789  23.986  0.00  0.00    +0.014 C 
ENDBRANCH  48  50
ENDBRANCH  38  45
BRANCH  44  53
ATOM     53  O   UNL     1       9.354   6.524  24.157  0.00  0.00    -0.495 OA
ATOM     54  C   UNL     1       9.618   7.069  25.441  0.00  0.00    +0.277 C 
ENDBRANCH  44  53
ENDBRANCH  33  40
ENDBRANCH   1  33
TORSDOF 8
ENDMDL
MODEL 2
REMARK VINA RESULT:      -5.7      2.896      6.294
REMARK  Name = 
REMARK  13 active torsions:
REMARK  status: ('A' for Active; 'I' for Inactive)
REMARK    1  A    between atoms: C_1  and  C_2
REMARK    2  A    between atoms: C_3  and  O_51
REMARK    3  A    between atoms: C_9  and  C_43
REMARK    4  A    between atoms: C_11  and  O_12
REMARK    5  A    between atoms: O_12  and  C_13
REMARK    6  A    between atoms: N_20  and  C_42
REMARK    7  A    between atoms: C_29  and  C_33
REMARK    8  A    between atoms: N_35  and  S_36
REMARK    9  A    between atoms: S_36  and  C_39
REMARK   10  A    between atoms: C_45  and  C_48
REMARK   11  A    between atoms: C_48  and  C_49
REMARK   12  A    between atoms: C_48  and  C_50
REMARK   13  A    between atoms: O_51  and  C_52
REMARK                            x       y       z     vdW  Elec       q    Type
REMARK                         _______ _______ _______ _____ _____    ______ ____
ROOT
ATOM      1  C   UNL     1       6.350  -0.075  25.192  0.00  0.00    +0.175 C 
ATOM      2  C   UNL     1       7.474   0.479  26.109  0.00  0.00    +0.058 C 
ATOM      3  C   UNL     1       8.469  -0.717  26.118  0.00  0.00    +0.091 C 
ATOM      4  C   UNL     1       9.174  -0.714  24.725  0.00  0.00    +0.219 C 
ATOM      5  N   UNL     1       9.039  -1.815  23.873  0.00  0.00    -0.304 N 
ATOM      6  C   UNL     1      10.337  -2.353  23.487  0.00  0.00    +0.132 C 
ATOM      7  C   UNL     1       8.181  -1.638  22.679  0.00  0.00    +0.107 C 
ATOM      8  C   UNL     1       7.575  -2.951  22.184  0.00  0.00    +0.019 C 
ATOM      9  C   UNL     1       6.124  -2.792  21.682  0.00  0.00    +0.006 C 
ATOM     10  C   UNL     1       5.204  -3.927  22.142  0.00  0.00    +0.027 C 
ATOM     11  C   UNL     1       4.851  -3.912  23.603  0.00  0.00    -0.031 C 
ATOM     12  C   UNL     1       5.400  -4.780  24.472  0.00  0.00    -0.025 C 
ATOM     13  C   UNL     1       5.064  -5.149  25.864  0.00  0.00    +0.046 C 
ATOM     14  C   UNL     1       5.711  -4.853  27.235  0.00  0.00    +0.119 C 
ATOM     15  N   UNL     1       6.423  -3.628  27.436  0.00  0.00    -0.301 N 
ATOM     16  H   UNL     1       5.827  -2.897  27.823  0.00  0.00    +0.150 HD
ATOM     17  C   UNL     1       7.610  -3.202  26.843  0.00  0.00    +0.218 C 
ATOM     18  O   UNL     1       8.586  -3.883  26.585  0.00  0.00    -0.275 OA
ATOM     19  C   UNL     1       6.195  -6.007  26.429  0.00  0.00    +0.046 C 
ATOM     20  O   UNL     1       9.848   0.262  24.387  0.00  0.00    -0.275 OA
ATOM     21  C   UNL     1       7.439  -1.732  26.558  0.00  0.00    +0.090 C 
ATOM     22  C   UNL     1       6.285  -1.538  25.581  0.00  0.00    +0.058 C 
ENDROOT
BRANCH  14  23
ATOM     23  C   UNL     1       4.857  -5.209  28.448  0.00  0.00    +0.256 C 
ATOM     24  N   UNL     1       3.792  -6.049  28.175  0.00  0.00    -0.188 N 
ATOM     25  H   UNL     1       3.666  -6.464  27.260  0.00  0.00    +0.176 HD
ATOM     26  O   UNL     1       5.147  -4.772  29.554  0.00  0.00    -0.272 OA
BRANCH  24  27
ATOM     27  S   UNL     1       2.645  -6.470  29.276  0.00  0.00    +0.048 S 
ATOM     28  O   UNL     1       2.052  -5.250  29.799  0.00  0.00    -0.155 OA
ATOM     29  O   UNL     1       3.303  -7.414  30.173  0.00  0.00    -0.155 OA
BRANCH  27  30
ATOM     30  C   UNL     1       1.327  -7.358  28.401  0.00  0.00    +0.151 C 
ATOM     31  C   UNL     1       1.534  -7.574  26.927  0.00  0.00    +0.030 C 
ATOM     32  C   UNL     1       0.591  -6.500  27.397  0.00  0.00    +0.030 C 
ENDBRANCH  27  30
ENDBRANCH  24  27
ENDBRANCH  14  23
BRANCH   1  33
ATOM     33  O   UNL     1       5.019   0.436  25.227  0.00  0.00    -0.488 OA
BRANCH  33  40
ATOM     34  C   UNL     1       4.524   5.617  28.517  0.00  0.00    +0.050 C 
ATOM     35  C   UNL     1       4.167   4.186  28.189  0.00  0.00    +0.017 A 
ATOM     36  C   UNL     1       4.656   3.659  26.985  0.00  0.00    +0.082 A 
ATOM     37  N   UNL     1       5.388   4.457  26.165  0.00  0.00    -0.244 NA
ATOM     38  C   UNL     1       5.890   3.935  25.033  0.00  0.00    +0.100 A 
ATOM     39  C   UNL     1       5.705   2.620  24.700  0.00  0.00    +0.076 A 
ATOM     40  C   UNL     1       4.994   1.780  25.525  0.00  0.00    +0.132 A 
ATOM     41  C   UNL     1       4.397   2.298  26.688  0.00  0.00    +0.043 A 
ATOM     42  C   UNL     1       3.573   1.539  27.549  0.00  0.00    +0.017 A 
ATOM     43  C   UNL     1       3.072   2.094  28.730  0.00  0.00    +0.047 A 
ATOM     44  C   UNL     1       3.394   3.405  29.075  0.00  0.00    +0.125 A 
BRANCH  38  45
ATOM     45  C   UNL     1       6.775   4.696  24.141  0.00  0.00    +0.127 A 
ATOM     46  S   UNL     1       6.240   5.475  22.719  0.00  0.00    -0.074 S 
ATOM     47  C   UNL     1       7.774   6.239  22.581  0.00  0.00    +0.070 A 
ATOM     48  C   UNL     1       8.622   5.845  23.598  0.00  0.00    +0.052 A 
ATOM     49  N   UNL     1       8.038   4.941  24.464  0.00  0.00    -0.242 NA
BRANCH  48  50
ATOM     50  C   UNL     1      10.037   6.273  23.849  0.00  0.00    +0.032 C 
ATOM     51  C   UNL     1      11.011   5.111  23.644  0.00  0.00    +0.014 C 
ATOM     52  C   UNL     1      10.226   6.872  25.247  0.00  0.00    +0.014 C 
ENDBRANCH  48  50
ENDBRANCH  38  45
BRANCH  44  53
ATOM     53  O   UNL     1       3.006   4.022  30.236  0.00  0.00    -0.495 OA
ATOM     54  C   UNL     1       1.617   4.181  30.485  0.00  0.00    +0.277 C 
ENDBRANCH  44  53
ENDBRANCH  33  40
ENDBRANCH   1  33
TORSDOF 8
ENDMDL
MODEL 3
REMARK VINA RESULT:      -5.6      2.665      7.717
REMARK  Name = 
REMARK  13 active torsions:
REMARK  status: ('A' for Active; 'I' for Inactive)
REMARK    1  A    between atoms: C_1  and  C_2
REMARK    2  A    between atoms: C_3  and  O_51
REMARK    3  A    between atoms: C_9  and  C_43
REMARK    4  A    between atoms: C_11  and  O_12
REMARK    5  A    between atoms: O_12  and  C_13
REMARK    6  A    between atoms: N_20  and  C_42
REMARK    7  A    between atoms: C_29  and  C_33
REMARK    8  A    between atoms: N_35  and  S_36
REMARK    9  A    between atoms: S_36  and  C_39
REMARK   10  A    between atoms: C_45  and  C_48
REMARK   11  A    between atoms: C_48  and  C_49
REMARK   12  A    between atoms: C_48  and  C_50
REMARK   13  A    between atoms: O_51  and  C_52
REMARK                            x       y       z     vdW  Elec       q    Type
REMARK                         _______ _______ _______ _____ _____    ______ ____
ROOT
ATOM      1  C   UNL     1       3.746   0.922  27.437  0.00  0.00    +0.175 C 
ATOM      2  C   UNL     1       4.358   0.631  28.833  0.00  0.00    +0.058 C 
ATOM      3  C   UNL     1       5.054   1.987  29.144  0.00  0.00    +0.091 C 
ATOM      4  C   UNL     1       3.916   2.992  29.507  0.00  0.00    +0.219 C 
ATOM      5  N   UNL     1       3.721   4.137  28.728  0.00  0.00    -0.304 N 
ATOM      6  C   UNL     1       3.774   5.348  29.536  0.00  0.00    +0.132 C 
ATOM      7  C   UNL     1       2.528   4.156  27.851  0.00  0.00    +0.107 C 
ATOM      8  C   UNL     1       2.704   5.056  26.629  0.00  0.00    +0.019 C 
ATOM      9  C   UNL     1       2.062   4.469  25.353  0.00  0.00    +0.006 C 
ATOM     10  C   UNL     1       2.944   4.631  24.111  0.00  0.00    +0.027 C 
ATOM     11  C   UNL     1       4.163   3.753  24.073  0.00  0.00    -0.031 C 
ATOM     12  C   UNL     1       5.395   4.242  24.302  0.00  0.00    -0.025 C 
ATOM     13  C   UNL     1       6.748   3.685  24.089  0.00  0.00    +0.046 C 
ATOM     14  C   UNL     1       7.839   3.132  25.034  0.00  0.00    +0.119 C 
ATOM     15  N   UNL     1       7.463   2.489  26.255  0.00  0.00    -0.301 N 
ATOM     16  H   UNL     1       7.376   1.479  26.146  0.00  0.00    +0.150 HD
ATOM     17  C   UNL     1       6.845   3.040  27.377  0.00  0.00    +0.218 C 
ATOM     18  O   UNL     1       7.051   4.137  27.861  0.00  0.00    -0.275 OA
ATOM     19  C   UNL     1       7.766   4.596  24.774  0.00  0.00    +0.046 C 
ATOM     20  O   UNL     1       3.197   2.769  30.485  0.00  0.00    -0.275 OA
ATOM     21  C   UNL     1       5.849   2.017  27.858  0.00  0.00    +0.090 C 
ATOM     22  C   UNL     1       4.806   1.775  26.772  0.00  0.00    +0.058 C 
ENDROOT
BRANCH  14  23
ATOM     23  C   UNL     1       8.984   2.398  24.344  0.00  0.00    +0.256 C 
ATOM     24  N   UNL     1       9.101   1.063  24.685  0.00  0.00    -0.188 N 
ATOM     25  H   UNL     1       8.412   0.602  25.268  0.00  0.00    +0.176 HD
ATOM     26  O   UNL     1       9.702   2.989  23.548  0.00  0.00    -0.272 OA
BRANCH  24  27
ATOM     27  S   UNL     1      10.331   0.089  24.189  0.00  0.00    +0.048 S 
ATOM     28  O   UNL     1      10.151  -1.215  24.808  0.00  0.00    -0.155 OA
ATOM     29  O   UNL     1      11.548   0.856  24.426  0.00  0.00    -0.155 OA
BRANCH  27  30
ATOM     30  C   UNL     1      10.164  -0.156  22.399  0.00  0.00    +0.151 C 
ATOM     31  C   UNL     1       8.774  -0.416  21.888  0.00  0.00    +0.030 C 
ATOM     32  C   UNL     1       9.744  -1.557  22.022  0.00  0.00    +0.030 C 
ENDBRANCH  27  30
ENDBRANCH  24  27
ENDBRANCH  14  23
BRANCH   1  33
ATOM     33  O   UNL     1       3.401  -0.118  26.525  0.00  0.00    -0.488 OA
BRANCH  33  40
ATOM     34  C   UNL     1       3.719  -5.803  28.870  0.00  0.00    +0.050 C 
ATOM     35  C   UNL     1       3.192  -4.388  28.825  0.00  0.00    +0.017 A 
ATOM     36  C   UNL     1       3.839  -3.485  27.970  0.00  0.00    +0.082 A 
ATOM     37  N   UNL     1       4.916  -3.907  27.257  0.00  0.00    -0.244 NA
ATOM     38  C   UNL     1       5.505  -3.050  26.407  0.00  0.00    +0.100 A 
ATOM     39  C   UNL     1       5.036  -1.778  26.222  0.00  0.00    +0.076 A 
ATOM     40  C   UNL     1       3.930  -1.330  26.907  0.00  0.00    +0.132 A 
ATOM     41  C   UNL     1       3.319  -2.171  27.853  0.00  0.00    +0.043 A 
ATOM     42  C   UNL     1       2.238  -1.773  28.671  0.00  0.00    +0.017 A 
ATOM     43  C   UNL     1       1.626  -2.682  29.539  0.00  0.00    +0.047 A 
ATOM     44  C   UNL     1       2.074  -4.001  29.595  0.00  0.00    +0.125 A 
BRANCH  38  45
ATOM     45  C   UNL     1       6.609  -3.453  25.525  0.00  0.00    +0.127 A 
ATOM     46  S   UNL     1       8.168  -3.860  26.089  0.00  0.00    -0.074 S 
ATOM     47  C   UNL     1       8.576  -4.410  24.511  0.00  0.00    +0.070 A 
ATOM     48  C   UNL     1       7.525  -4.232  23.632  0.00  0.00    +0.052 A 
ATOM     49  N   UNL     1       6.419  -3.658  24.228  0.00  0.00    -0.242 NA
BRANCH  48  50
ATOM     50  C   UNL     1       7.461  -4.579  22.175  0.00  0.00    +0.032 C 
ATOM     51  C   UNL     1       6.254  -3.923  21.503  0.00  0.00    +0.014 C 
ATOM     52  C   UNL     1       7.433  -6.093  21.937  0.00  0.00    +0.014 C 
ENDBRANCH  48  50
ENDBRANCH  38  45
BRANCH  44  53
ATOM     53  O   UNL     1       1.506  -4.982  30.365  0.00  0.00    -0.495 OA
ATOM     54  C   UNL     1       0.444  -5.745  29.813  0.00  0.00    +0.277 C 
ENDBRANCH  44  53
ENDBRANCH  33  40
ENDBRANCH   1  33
TORSDOF 8
ENDMDL
MODEL 4
REMARK VINA RESULT:      -5.5      3.652      7.399
REMARK  Name = 
REMARK  13 active torsions:
REMARK  status: ('A' for Active; 'I' for Inactive)
REMARK    1  A    between atoms: C_1  and  C_2
REMARK    2  A    between atoms: C_3  and  O_51
REMARK    3  A    between atoms: C_9  and  C_43
REMARK    4  A    between atoms: C_11  and  O_12
REMARK    5  A    between atoms: O_12  and  C_13
REMARK    6  A    between atoms: N_20  and  C_42
REMARK    7  A    between atoms: C_29  and  C_33
REMARK    8  A    between atoms: N_35  and  S_36
REMARK    9  A    between atoms: S_36  and  C_39
REMARK   10  A    between atoms: C_45  and  C_48
REMARK   11  A    between atoms: C_48  and  C_49
REMARK   12  A    between atoms: C_48  and  C_50
REMARK   13  A    between atoms: O_51  and  C_52
REMARK                            x       y       z     vdW  Elec       q    Type
REMARK                         _______ _______ _______ _____ _____    ______ ____
ROOT
ATOM      1  C   UNL     1       8.277  -0.218  23.034  0.00  0.00    +0.175 C 
ATOM      2  C   UNL     1       9.825  -0.167  23.140  0.00  0.00    +0.058 C 
ATOM      3  C   UNL     1      10.063  -0.975  24.448  0.00  0.00    +0.091 C 
ATOM      4  C   UNL     1       9.826  -2.475  24.087  0.00  0.00    +0.219 C 
ATOM      5  N   UNL     1       8.810  -3.194  24.725  0.00  0.00    -0.304 N 
ATOM      6  C   UNL     1       9.328  -4.397  25.365  0.00  0.00    +0.132 C 
ATOM      7  C   UNL     1       7.609  -3.516  23.922  0.00  0.00    +0.107 C 
ATOM      8  C   UNL     1       6.354  -3.695  24.775  0.00  0.00    +0.019 C 
ATOM      9  C   UNL     1       5.086  -3.120  24.108  0.00  0.00    +0.006 C 
ATOM     10  C   UNL     1       4.192  -2.352  25.086  0.00  0.00    +0.027 C 
ATOM     11  C   UNL     1       4.731  -1.024  25.538  0.00  0.00    -0.031 C 
ATOM     12  C   UNL     1       5.243  -0.850  26.770  0.00  0.00    -0.025 C 
ATOM     13  C   UNL     1       5.598   0.359  27.544  0.00  0.00    +0.046 C 
ATOM     14  C   UNL     1       6.937   1.020  27.941  0.00  0.00    +0.119 C 
ATOM     15  N   UNL     1       8.074   0.897  27.081  0.00  0.00    -0.301 N 
ATOM     16  H   UNL     1       8.150   1.679  26.431  0.00  0.00    +0.150 HD
ATOM     17  C   UNL     1       8.798  -0.248  26.751  0.00  0.00    +0.218 C 
ATOM     18  O   UNL     1       9.089  -1.168  27.492  0.00  0.00    -0.275 OA
ATOM     19  C   UNL     1       6.376  -0.067  28.788  0.00  0.00    +0.046 C 
ATOM     20  O   UNL     1      10.541  -3.018  23.240  0.00  0.00    -0.275 OA
ATOM     21  C   UNL     1       9.127  -0.134  25.286  0.00  0.00    +0.090 C 
ATOM     22  C   UNL     1       7.834  -0.101  24.478  0.00  0.00    +0.058 C 
ENDROOT
BRANCH  14  23
ATOM     23  C   UNL     1       6.821   2.428  28.517  0.00  0.00    +0.256 C 
ATOM     24  N   UNL     1       6.329   3.372  27.634  0.00  0.00    -0.188 N 
ATOM     25  H   UNL     1       5.984   3.113  26.718  0.00  0.00    +0.176 HD
ATOM     26  O   UNL     1       7.135   2.644  29.680  0.00  0.00    -0.272 OA
BRANCH  24  27
ATOM     27  S   UNL     1       6.236   4.982  27.963  0.00  0.00    +0.048 S 
ATOM     28  O   UNL     1       5.416   5.605  26.936  0.00  0.00    -0.155 OA
ATOM     29  O   UNL     1       7.615   5.412  28.167  0.00  0.00    -0.155 OA
BRANCH  27  30
ATOM     30  C   UNL     1       5.350   5.183  29.533  0.00  0.00    +0.151 C 
ATOM     31  C   UNL     1       4.046   5.929  29.473  0.00  0.00    +0.030 C 
ATOM     32  C   UNL     1       5.275   6.618  30.000  0.00  0.00    +0.030 C 
ENDBRANCH  27  30
ENDBRANCH  24  27
ENDBRANCH  14  23
BRANCH   1  33
ATOM     33  O   UNL     1       7.534   0.737  22.280  0.00  0.00    -0.488 OA
BRANCH  33  40
ATOM     34  C   UNL     1       7.903   6.421  24.621  0.00  0.00    +0.050 C 
ATOM     35  C   UNL     1       8.498   5.139  24.087  0.00  0.00    +0.017 A 
ATOM     36  C   UNL     1       7.627   4.058  23.885  0.00  0.00    +0.082 A 
ATOM     37  N   UNL     1       6.314   4.201  24.205  0.00  0.00    -0.244 NA
ATOM     38  C   UNL     1       5.476   3.178  23.968  0.00  0.00    +0.100 A 
ATOM     39  C   UNL     1       5.903   2.012  23.392  0.00  0.00    +0.076 A 
ATOM     40  C   UNL     1       7.220   1.849  23.030  0.00  0.00    +0.132 A 
ATOM     41  C   UNL     1       8.145   2.868  23.316  0.00  0.00    +0.043 A 
ATOM     42  C   UNL     1       9.532   2.759  23.067  0.00  0.00    +0.017 A 
ATOM     43  C   UNL     1      10.387   3.839  23.304  0.00  0.00    +0.047 A 
ATOM     44  C   UNL     1       9.872   5.044  23.779  0.00  0.00    +0.125 A 
BRANCH  38  45
ATOM     45  C   UNL     1       4.028   3.281  24.190  0.00  0.00    +0.127 A 
ATOM     46  S   UNL     1       2.912   3.698  22.966  0.00  0.00    -0.074 S 
ATOM     47  C   UNL     1       1.622   3.294  24.029  0.00  0.00    +0.070 A 
ATOM     48  C   UNL     1       2.097   2.893  25.263  0.00  0.00    +0.052 A 
ATOM     49  N   UNL     1       3.476   2.919  25.341  0.00  0.00    -0.242 NA
BRANCH  48  50
ATOM     50  C   UNL     1       1.315   2.455  26.464  0.00  0.00    +0.032 C 
ATOM     51  C   UNL     1       0.994   3.639  27.377  0.00  0.00    +0.014 C 
ATOM     52  C   UNL     1       2.034   1.361  27.261  0.00  0.00    +0.014 C 
ENDBRANCH  48  50
ENDBRANCH  38  45
BRANCH  44  53
ATOM     53  O   UNL     1      10.613   6.178  23.987  0.00  0.00    -0.495 OA
ATOM     54  C   UNL     1      12.020   6.051  24.127  0.00  0.00    +0.277 C 
ENDBRANCH  44  53
ENDBRANCH  33  40
ENDBRANCH   1  33
TORSDOF 8
ENDMDL
MODEL 5
REMARK VINA RESULT:      -5.4      2.643      7.056
REMARK  Name = 
REMARK  13 active torsions:
REMARK  status: ('A' for Active; 'I' for Inactive)
REMARK    1  A    between atoms: C_1  and  C_2
REMARK    2  A    between atoms: C_3  and  O_51
REMARK    3  A    between atoms: C_9  and  C_43
REMARK    4  A    between atoms: C_11  and  O_12
REMARK    5  A    between atoms: O_12  and  C_13
REMARK    6  A    between atoms: N_20  and  C_42
REMARK    7  A    between atoms: C_29  and  C_33
REMARK    8  A    between atoms: N_35  and  S_36
REMARK    9  A    between atoms: S_36  and  C_39
REMARK   10  A    between atoms: C_45  and  C_48
REMARK   11  A    between atoms: C_48  and  C_49
REMARK   12  A    between atoms: C_48  and  C_50
REMARK   13  A    between atoms: O_51  and  C_52
REMARK                            x       y       z     vdW  Elec       q    Type
REMARK                         _______ _______ _______ _____ _____    ______ ____
ROOT
ATOM      1  C   UNL     1       3.760  -2.014  27.636  0.00  0.00    +0.175 C 
ATOM      2  C   UNL     1       2.551  -1.517  26.799  0.00  0.00    +0.058 C 
ATOM      3  C   UNL     1       2.236  -2.780  25.947  0.00  0.00    +0.091 C 
ATOM      4  C   UNL     1       1.550  -3.800  26.909  0.00  0.00    +0.219 C 
ATOM      5  N   UNL     1       2.147  -5.041  27.151  0.00  0.00    -0.304 N 
ATOM      6  C   UNL     1       1.238  -6.139  26.847  0.00  0.00    +0.132 C 
ATOM      7  C   UNL     1       2.766  -5.241  28.481  0.00  0.00    +0.107 C 
ATOM      8  C   UNL     1       3.895  -6.271  28.462  0.00  0.00    +0.019 C 
ATOM      9  C   UNL     1       5.076  -5.885  29.378  0.00  0.00    +0.006 C 
ATOM     10  C   UNL     1       6.442  -6.144  28.734  0.00  0.00    +0.027 C 
ATOM     11  C   UNL     1       6.812  -5.205  27.620  0.00  0.00    -0.031 C 
ATOM     12  C   UNL     1       6.776  -5.587  26.331  0.00  0.00    -0.025 C 
ATOM     13  C   UNL     1       7.309  -4.979  25.093  0.00  0.00    +0.046 C 
ATOM     14  C   UNL     1       6.661  -4.249  23.895  0.00  0.00    +0.119 C 
ATOM     15  N   UNL     1       5.468  -3.485  24.088  0.00  0.00    -0.301 N 
ATOM     16  H   UNL     1       5.667  -2.503  24.277  0.00  0.00    +0.150 HD
ATOM     17  C   UNL     1       4.194  -3.930  24.437  0.00  0.00    +0.218 C 
ATOM     18  O   UNL     1       3.643  -4.946  24.054  0.00  0.00    -0.275 OA
ATOM     19  C   UNL     1       6.742  -5.735  23.893  0.00  0.00    +0.046 C 
ATOM     20  O   UNL     1       0.481  -3.503  27.449  0.00  0.00    -0.275 OA
ATOM     21  C   UNL     1       3.641  -2.919  25.407  0.00  0.00    +0.090 C 
ATOM     22  C   UNL     1       4.522  -2.876  26.651  0.00  0.00    +0.058 C 
ENDROOT
BRANCH  14  23
ATOM     23  C   UNL     1       7.637  -3.537  22.963  0.00  0.00    +0.256 C 
ATOM     24  N   UNL     1       8.381  -2.537  23.563  0.00  0.00    -0.188 N 
ATOM     25  H   UNL     1       8.341  -2.374  24.562  0.00  0.00    +0.176 HD
ATOM     26  O   UNL     1       7.726  -3.877  21.790  0.00  0.00    -0.272 OA
BRANCH  24  27
ATOM     27  S   UNL     1       9.399  -1.532  22.751  0.00  0.00    +0.048 S 
ATOM     28  O   UNL     1       8.765  -1.169  21.494  0.00  0.00    -0.155 OA
ATOM     29  O   UNL     1      10.691  -2.207  22.758  0.00  0.00    -0.155 OA
BRANCH  27  30
ATOM     30  C   UNL     1       9.562  -0.003  23.714  0.00  0.00    +0.151 C 
ATOM     31  C   UNL     1      10.955   0.373  24.139  0.00  0.00    +0.030 C 
ATOM     32  C   UNL     1      10.010  -0.236  25.138  0.00  0.00    +0.030 C 
ENDBRANCH  27  30
ENDBRANCH  24  27
ENDBRANCH  14  23
BRANCH   1  33
ATOM     33  O   UNL     1       4.695  -1.116  28.230  0.00  0.00    -0.488 OA
BRANCH  33  40
ATOM     34  C   UNL     1       3.633   4.949  28.175  0.00  0.00    +0.050 C 
ATOM     35  C   UNL     1       3.405   3.543  28.677  0.00  0.00    +0.017 A 
ATOM     36  C   UNL     1       3.994   2.496  27.953  0.00  0.00    +0.082 A 
ATOM     37  N   UNL     1       4.703   2.787  26.831  0.00  0.00    -0.244 NA
ATOM     38  C   UNL     1       5.301   1.784  26.166  0.00  0.00    +0.100 A 
ATOM     39  C   UNL     1       5.236   0.488  26.601  0.00  0.00    +0.076 A 
ATOM     40  C   UNL     1       4.550   0.166  27.749  0.00  0.00    +0.132 A 
ATOM     41  C   UNL     1       3.857   1.173  28.443  0.00  0.00    +0.043 A 
ATOM     42  C   UNL     1       3.051   0.928  29.578  0.00  0.00    +0.017 A 
ATOM     43  C   UNL     1       2.449   1.984  30.268  0.00  0.00    +0.047 A 
ATOM     44  C   UNL     1       2.651   3.297  29.845  0.00  0.00    +0.125 A 
BRANCH  38  45
ATOM     45  C   UNL     1       6.168   2.020  25.004  0.00  0.00    +0.127 A 
ATOM     46  S   UNL     1       6.016   1.179  23.526  0.00  0.00    -0.074 S 
ATOM     47  C   UNL     1       7.145   2.263  22.813  0.00  0.00    +0.070 A 
ATOM     48  C   UNL     1       7.602   3.186  23.734  0.00  0.00    +0.052 A 
ATOM     49  N   UNL     1       7.049   3.012  24.988  0.00  0.00    -0.242 NA
BRANCH  48  50
ATOM     50  C   UNL     1       8.582   4.301  23.526  0.00  0.00    +0.032 C 
ATOM     51  C   UNL     1      10.014   3.834  23.791  0.00  0.00    +0.014 C 
ATOM     52  C   UNL     1       8.264   5.526  24.392  0.00  0.00    +0.014 C 
ENDBRANCH  48  50
ENDBRANCH  38  45
BRANCH  44  53
ATOM     53  O   UNL     1       2.158   4.405  30.484  0.00  0.00    -0.495 OA
ATOM     54  C   UNL     1       0.927   4.953  30.034  0.00  0.00    +0.277 C 
ENDBRANCH  44  53
ENDBRANCH  33  40
ENDBRANCH   1  33
TORSDOF 8
ENDMDL
MODEL 6
REMARK VINA RESULT:      -5.3      3.209      7.680
REMARK  Name = 
REMARK  13 active torsions:
REMARK  status: ('A' for Active; 'I' for Inactive)
REMARK    1  A    between atoms: C_1  and  C_2
REMARK    2  A    between atoms: C_3  and  O_51
REMARK    3  A    between atoms: C_9  and  C_43
REMARK    4  A    between atoms: C_11  and  O_12
REMARK    5  A    between atoms: O_12  and  C_13
REMARK    6  A    between atoms: N_20  and  C_42
REMARK    7  A    between atoms: C_29  and  C_33
REMARK    8  A    between atoms: N_35  and  S_36
REMARK    9  A    between atoms: S_36  and  C_39
REMARK   10  A    between atoms: C_45  and  C_48
REMARK   11  A    between atoms: C_48  and  C_49
REMARK   12  A    between atoms: C_48  and  C_50
REMARK   13  A    between atoms: O_51  and  C_52
REMARK                            x       y       z     vdW  Elec       q    Type
REMARK                         _______ _______ _______ _____ _____    ______ ____
ROOT
ATOM      1  C   UNL     1       3.823  -1.922  28.222  0.00  0.00    +0.175 C 
ATOM      2  C   UNL     1       2.673  -1.267  27.410  0.00  0.00    +0.058 C 
ATOM      3  C   UNL     1       2.279  -2.430  26.455  0.00  0.00    +0.091 C 
ATOM      4  C   UNL     1       1.498  -3.466  27.322  0.00  0.00    +0.219 C 
ATOM      5  N   UNL     1       1.992  -4.766  27.472  0.00  0.00    -0.304 N 
ATOM      6  C   UNL     1       1.007  -5.761  27.068  0.00  0.00    +0.132 C 
ATOM      7  C   UNL     1       2.566  -5.118  28.790  0.00  0.00    +0.107 C 
ATOM      8  C   UNL     1       3.612  -6.228  28.705  0.00  0.00    +0.019 C 
ATOM      9  C   UNL     1       4.801  -6.011  29.666  0.00  0.00    +0.006 C 
ATOM     10  C   UNL     1       6.155  -6.324  29.023  0.00  0.00    +0.027 C 
ATOM     11  C   UNL     1       6.620  -5.332  27.994  0.00  0.00    -0.031 C 
ATOM     12  C   UNL     1       6.581  -5.607  26.678  0.00  0.00    -0.025 C 
ATOM     13  C   UNL     1       7.184  -4.947  25.500  0.00  0.00    +0.046 C 
ATOM     14  C   UNL     1       6.620  -4.076  24.355  0.00  0.00    +0.119 C 
ATOM     15  N   UNL     1       5.485  -3.238  24.592  0.00  0.00    -0.301 N 
ATOM     16  H   UNL     1       5.756  -2.293  24.862  0.00  0.00    +0.150 HD
ATOM     17  C   UNL     1       4.173  -3.608  24.886  0.00  0.00    +0.218 C 
ATOM     18  O   UNL     1       3.554  -4.544  24.414  0.00  0.00    -0.275 OA
ATOM     19  C   UNL     1       6.585  -5.559  24.235  0.00  0.00    +0.046 C 
ATOM     20  O   UNL     1       0.444  -3.130  27.869  0.00  0.00    -0.275 OA
ATOM     21  C   UNL     1       3.681  -2.636  25.926  0.00  0.00    +0.090 C 
ATOM     22  C   UNL     1       4.537  -2.761  27.182  0.00  0.00    +0.058 C 
ENDROOT
BRANCH  14  23
ATOM     23  C   UNL     1       7.667  -3.371  23.498  0.00  0.00    +0.256 C 
ATOM     24  N   UNL     1       8.522  -2.542  24.200  0.00  0.00    -0.188 N 
ATOM     25  H   UNL     1       8.506  -2.498  25.212  0.00  0.00    +0.176 HD
ATOM     26  O   UNL     1       7.711  -3.575  22.292  0.00  0.00    -0.272 OA
BRANCH  24  27
ATOM     27  S   UNL     1       9.646  -1.568  23.496  0.00  0.00    +0.048 S 
ATOM     28  O   UNL     1      10.493  -2.394  22.651  0.00  0.00    -0.155 OA
ATOM     29  O   UNL     1      10.223  -0.795  24.589  0.00  0.00    -0.155 OA
BRANCH  27  30
ATOM     30  C   UNL     1       8.777  -0.416  22.396  0.00  0.00    +0.151 C 
ATOM     31  C   UNL     1       9.313  -0.296  20.996  0.00  0.00    +0.030 C 
ATOM     32  C   UNL     1       9.610   0.782  22.003  0.00  0.00    +0.030 C 
ENDBRANCH  27  30
ENDBRANCH  24  27
ENDBRANCH  14  23
BRANCH   1  33
ATOM     33  O   UNL     1       4.812  -1.150  28.899  0.00  0.00    -0.488 OA
BRANCH  33  40
ATOM     34  C   UNL     1       5.657   3.967  25.580  0.00  0.00    +0.050 C 
ATOM     35  C   UNL     1       6.067   2.606  26.093  0.00  0.00    +0.017 A 
ATOM     36  C   UNL     1       5.301   2.048  27.126  0.00  0.00    +0.082 A 
ATOM     37  N   UNL     1       4.261   2.759  27.634  0.00  0.00    -0.244 NA
ATOM     38  C   UNL     1       3.504   2.201  28.594  0.00  0.00    +0.100 A 
ATOM     39  C   UNL     1       3.736   0.933  29.052  0.00  0.00    +0.076 A 
ATOM     40  C   UNL     1       4.763   0.177  28.536  0.00  0.00    +0.132 A 
ATOM     41  C   UNL     1       5.620   0.742  27.576  0.00  0.00    +0.043 A 
ATOM     42  C   UNL     1       6.755   0.081  27.054  0.00  0.00    +0.017 A 
ATOM     43  C   UNL     1       7.522   0.669  26.044  0.00  0.00    +0.047 A 
ATOM     44  C   UNL     1       7.164   1.915  25.533  0.00  0.00    +0.125 A 
BRANCH  38  45
ATOM     45  C   UNL     1       2.302   2.857  29.127  0.00  0.00    +0.127 A 
ATOM     46  S   UNL     1       1.354   2.209  30.390  0.00  0.00    -0.074 S 
ATOM     47  C   UNL     1       0.479   3.688  30.469  0.00  0.00    +0.070 A 
ATOM     48  C   UNL     1       0.927   4.585  29.518  0.00  0.00    +0.052 A 
ATOM     49  N   UNL     1       1.954   4.079  28.744  0.00  0.00    -0.242 NA
BRANCH  48  50
ATOM     50  C   UNL     1       0.444   5.979  29.253  0.00  0.00    +0.032 C 
ATOM     51  C   UNL     1       1.185   6.606  28.071  0.00  0.00    +0.014 C 
ATOM     52  C   UNL     1       0.566   6.883  30.484  0.00  0.00    +0.014 C 
ENDBRANCH  48  50
ENDBRANCH  38  45
BRANCH  44  53
ATOM     53  O   UNL     1       7.811   2.550  24.506  0.00  0.00    -0.495 OA
ATOM     54  C   UNL     1       9.206   2.786  24.628  0.00  0.00    +0.277 C 
ENDBRANCH  44  53
ENDBRANCH  33  40
ENDBRANCH   1  33
TORSDOF 8
ENDMDL
MODEL 7
REMARK VINA RESULT:      -5.2      3.175      7.480
REMARK  Name = 
REMARK  13 active torsions:
REMARK  status: ('A' for Active; 'I' for Inactive)
REMARK    1  A    between atoms: C_1  and  C_2
REMARK    2  A    between atoms: C_3  and  O_51
REMARK    3  A    between atoms: C_9  and  C_43
REMARK    4  A    between atoms: C_11  and  O_12
REMARK    5  A    between atoms: O_12  and  C_13
REMARK    6  A    between atoms: N_20  and  C_42
REMARK    7  A    between atoms: C_29  and  C_33
REMARK    8  A    between atoms: N_35  and  S_36
REMARK    9  A    between atoms: S_36  and  C_39
REMARK   10  A    between atoms: C_45  and  C_48
REMARK   11  A    between atoms: C_48  and  C_49
REMARK   12  A    between atoms: C_48  and  C_50
REMARK   13  A    between atoms: O_51  and  C_52
REMARK                            x       y       z     vdW  Elec       q    Type
REMARK                         _______ _______ _______ _____ _____    ______ ____
ROOT
ATOM      1  C   UNL     1       3.752  -2.574  27.327  0.00  0.00    +0.175 C 
ATOM      2  C   UNL     1       2.715  -2.101  26.273  0.00  0.00    +0.058 C 
ATOM      3  C   UNL     1       2.793  -3.258  25.235  0.00  0.00    +0.091 C 
ATOM      4  C   UNL     1       2.053  -4.474  25.876  0.00  0.00    +0.219 C 
ATOM      5  N   UNL     1       2.747  -5.662  26.122  0.00  0.00    -0.304 N 
ATOM      6  C   UNL     1       2.101  -6.800  25.481  0.00  0.00    +0.132 C 
ATOM      7  C   UNL     1       3.058  -5.978  27.535  0.00  0.00    +0.107 C 
ATOM      8  C   UNL     1       4.294  -6.864  27.688  0.00  0.00    +0.019 C 
ATOM      9  C   UNL     1       5.159  -6.483  28.908  0.00  0.00    +0.006 C 
ATOM     10  C   UNL     1       6.661  -6.494  28.604  0.00  0.00    +0.027 C 
ATOM     11  C   UNL     1       7.145  -5.371  27.730  0.00  0.00    -0.031 C 
ATOM     12  C   UNL     1       7.468  -5.569  26.439  0.00  0.00    -0.025 C 
ATOM     13  C   UNL     1       8.185  -4.736  25.449  0.00  0.00    +0.046 C 
ATOM     14  C   UNL     1       7.740  -3.921  24.214  0.00  0.00    +0.119 C 
ATOM     15  N   UNL     1       6.438  -3.329  24.184  0.00  0.00    -0.301 N 
ATOM     16  H   UNL     1       6.445  -2.368  24.524  0.00  0.00    +0.150 HD
ATOM     17  C   UNL     1       5.194  -3.958  24.150  0.00  0.00    +0.218 C 
ATOM     18  O   UNL     1       4.900  -4.964  23.531  0.00  0.00    -0.275 OA
ATOM     19  C   UNL     1       8.029  -5.374  24.069  0.00  0.00    +0.046 C 
ATOM     20  O   UNL     1       0.856  -4.377  26.159  0.00  0.00    -0.275 OA
ATOM     21  C   UNL     1       4.291  -3.162  25.055  0.00  0.00    +0.090 C 
ATOM     22  C   UNL     1       4.839  -3.198  26.477  0.00  0.00    +0.058 C 
ENDROOT
BRANCH  14  23
ATOM     23  C   UNL     1       8.796  -2.980  23.643  0.00  0.00    +0.256 C 
ATOM     24  N   UNL     1       8.310  -2.046  22.746  0.00  0.00    -0.188 N 
ATOM     25  H   UNL     1       7.318  -1.944  22.572  0.00  0.00    +0.176 HD
ATOM     26  O   UNL     1       9.963  -3.078  23.998  0.00  0.00    -0.272 OA
BRANCH  24  27
ATOM     27  S   UNL     1       9.259  -1.011  21.888  0.00  0.00    +0.048 S 
ATOM     28  O   UNL     1       8.973  -1.204  20.475  0.00  0.00    -0.155 OA
ATOM     29  O   UNL     1      10.609  -1.213  22.401  0.00  0.00    -0.155 OA
BRANCH  27  30
ATOM     30  C   UNL     1       8.754   0.682  22.297  0.00  0.00    +0.151 C 
ATOM     31  C   UNL     1       8.446   1.587  21.136  0.00  0.00    +0.030 C 
ATOM     32  C   UNL     1       9.754   1.728  21.864  0.00  0.00    +0.030 C 
ENDBRANCH  27  30
ENDBRANCH  24  27
ENDBRANCH  14  23
BRANCH   1  33
ATOM     33  O   UNL     1       4.383  -1.671  28.233  0.00  0.00    -0.488 OA
BRANCH  33  40
ATOM     34  C   UNL     1       7.108   2.688  24.843  0.00  0.00    +0.050 C 
ATOM     35  C   UNL     1       7.116   1.466  25.732  0.00  0.00    +0.017 A 
ATOM     36  C   UNL     1       5.909   1.113  26.354  0.00  0.00    +0.082 A 
ATOM     37  N   UNL     1       4.814   1.893  26.159  0.00  0.00    -0.244 NA
ATOM     38  C   UNL     1       3.651   1.526  26.723  0.00  0.00    +0.100 A 
ATOM     39  C   UNL     1       3.535   0.380  27.462  0.00  0.00    +0.076 A 
ATOM     40  C   UNL     1       4.619  -0.445  27.652  0.00  0.00    +0.132 A 
ATOM     41  C   UNL     1       5.871  -0.070  27.134  0.00  0.00    +0.043 A 
ATOM     42  C   UNL     1       7.060  -0.801  27.353  0.00  0.00    +0.017 A 
ATOM     43  C   UNL     1       8.258  -0.414  26.747  0.00  0.00    +0.047 A 
ATOM     44  C   UNL     1       8.286   0.697  25.906  0.00  0.00    +0.125 A 
BRANCH  38  45
ATOM     45  C   UNL     1       2.397   2.253  26.482  0.00  0.00    +0.127 A 
ATOM     46  S   UNL     1       1.385   2.829  27.730  0.00  0.00    -0.074 S 
ATOM     47  C   UNL     1       0.464   3.692  26.562  0.00  0.00    +0.070 A 
ATOM     48  C   UNL     1       0.949   3.479  25.286  0.00  0.00    +0.052 A 
ATOM     49  N   UNL     1       2.040   2.631  25.262  0.00  0.00    -0.242 NA
BRANCH  48  50
ATOM     50  C   UNL     1       0.444   4.042  23.992  0.00  0.00    +0.032 C 
ATOM     51  C   UNL     1       0.445   2.981  22.890  0.00  0.00    +0.014 C 
ATOM     52  C   UNL     1       1.245   5.267  23.537  0.00  0.00    +0.014 C 
ENDBRANCH  48  50
ENDBRANCH  38  45
BRANCH  44  53
ATOM     53  O   UNL     1       9.392   1.124  25.217  0.00  0.00    -0.495 OA
ATOM     54  C   UNL     1      10.567   0.328  25.264  0.00  0.00    +0.277 C 
ENDBRANCH  44  53
ENDBRANCH  33  40
ENDBRANCH   1  33
TORSDOF 8
ENDMDL
MODEL 8
REMARK VINA RESULT:      -5.0      2.798      8.397
REMARK  Name = 
REMARK  13 active torsions:
REMARK  status: ('A' for Active; 'I' for Inactive)
REMARK    1  A    between atoms: C_1  and  C_2
REMARK    2  A    between atoms: C_3  and  O_51
REMARK    3  A    between atoms: C_9  and  C_43
REMARK    4  A    between atoms: C_11  and  O_12
REMARK    5  A    between atoms: O_12  and  C_13
REMARK    6  A    between atoms: N_20  and  C_42
REMARK    7  A    between atoms: C_29  and  C_33
REMARK    8  A    between atoms: N_35  and  S_36
REMARK    9  A    between atoms: S_36  and  C_39
REMARK   10  A    between atoms: C_45  and  C_48
REMARK   11  A    between atoms: C_48  and  C_49
REMARK   12  A    between atoms: C_48  and  C_50
REMARK   13  A    between atoms: O_51  and  C_52
REMARK                            x       y       z     vdW  Elec       q    Type
REMARK                         _______ _______ _______ _____ _____    ______ ____
ROOT
ATOM      1  C   UNL     1       3.974   0.513  27.271  0.00  0.00    +0.175 C 
ATOM      2  C   UNL     1       4.912   0.402  28.503  0.00  0.00    +0.058 C 
ATOM      3  C   UNL     1       5.263   1.898  28.749  0.00  0.00    +0.091 C 
ATOM      4  C   UNL     1       3.993   2.549  29.382  0.00  0.00    +0.219 C 
ATOM      5  N   UNL     1       3.341   3.595  28.722  0.00  0.00    -0.304 N 
ATOM      6  C   UNL     1       3.226   4.773  29.571  0.00  0.00    +0.132 C 
ATOM      7  C   UNL     1       2.036   3.284  28.096  0.00  0.00    +0.107 C 
ATOM      8  C   UNL     1       1.711   4.197  26.914  0.00  0.00    +0.019 C 
ATOM      9  C   UNL     1       1.008   3.456  25.757  0.00  0.00    +0.006 C 
ATOM     10  C   UNL     1       1.542   3.856  24.378  0.00  0.00    +0.027 C 
ATOM     11  C   UNL     1       2.921   3.349  24.055  0.00  0.00    -0.031 C 
ATOM     12  C   UNL     1       3.993   4.161  24.068  0.00  0.00    -0.025 C 
ATOM     13  C   UNL     1       5.375   4.000  23.566  0.00  0.00    +0.046 C 
ATOM     14  C   UNL     1       6.742   3.770  24.248  0.00  0.00    +0.119 C 
ATOM     15  N   UNL     1       6.809   3.047  25.481  0.00  0.00    -0.301 N 
ATOM     16  H   UNL     1       6.979   2.053  25.334  0.00  0.00    +0.150 HD
ATOM     17  C   UNL     1       6.305   3.405  26.730  0.00  0.00    +0.218 C 
ATOM     18  O   UNL     1       6.299   4.517  27.226  0.00  0.00    -0.275 OA
ATOM     19  C   UNL     1       6.224   5.156  24.090  0.00  0.00    +0.046 C 
ATOM     20  O   UNL     1       3.574   2.135  30.467  0.00  0.00    -0.275 OA
ATOM     21  C   UNL     1       5.743   2.147  27.338  0.00  0.00    +0.090 C 
ATOM     22  C   UNL     1       4.607   1.627  26.462  0.00  0.00    +0.058 C 
ENDROOT
BRANCH  14  23
ATOM     23  C   UNL     1       7.880   3.382  23.309  0.00  0.00    +0.256 C 
ATOM     24  N   UNL     1       9.027   2.943  23.945  0.00  0.00    -0.188 N 
ATOM     25  H   UNL     1       9.056   2.800  24.947  0.00  0.00    +0.176 HD
ATOM     26  O   UNL     1       7.728   3.456  22.096  0.00  0.00    -0.272 OA
BRANCH  24  27
ATOM     27  S   UNL     1      10.436   2.597  23.169  0.00  0.00    +0.048 S 
ATOM     28  O   UNL     1      10.114   1.871  21.951  0.00  0.00    -0.155 OA
ATOM     29  O   UNL     1      11.294   1.994  24.182  0.00  0.00    -0.155 OA
BRANCH  27  30
ATOM     30  C   UNL     1      11.192   4.165  22.657  0.00  0.00    +0.151 C 
ATOM     31  C   UNL     1      12.462   4.555  23.363  0.00  0.00    +0.030 C 
ATOM     32  C   UNL     1      11.166   5.223  23.735  0.00  0.00    +0.030 C 
ENDBRANCH  27  30
ENDBRANCH  24  27
ENDBRANCH  14  23
BRANCH   1  33
ATOM     33  O   UNL     1       3.747  -0.582  26.386  0.00  0.00    -0.488 OA
BRANCH  33  40
ATOM     34  C   UNL     1       4.179  -6.292  28.649  0.00  0.00    +0.050 C 
ATOM     35  C   UNL     1       3.519  -4.941  28.511  0.00  0.00    +0.017 A 
ATOM     36  C   UNL     1       4.233  -3.940  27.836  0.00  0.00    +0.082 A 
ATOM     37  N   UNL     1       5.480  -4.216  27.375  0.00  0.00    -0.244 NA
ATOM     38  C   UNL     1       6.142  -3.267  26.691  0.00  0.00    +0.100 A 
ATOM     39  C   UNL     1       5.585  -2.046  26.428  0.00  0.00    +0.076 A 
ATOM     40  C   UNL     1       4.312  -1.746  26.857  0.00  0.00    +0.132 A 
ATOM     41  C   UNL     1       3.607  -2.685  27.629  0.00  0.00    +0.043 A 
ATOM     42  C   UNL     1       2.335  -2.437  28.192  0.00  0.00    +0.017 A 
ATOM     43  C   UNL     1       1.653  -3.441  28.886  0.00  0.00    +0.047 A 
ATOM     44  C   UNL     1       2.223  -4.706  29.019  0.00  0.00    +0.125 A 
BRANCH  38  45
ATOM     45  C   UNL     1       7.450  -3.514  26.071  0.00  0.00    +0.127 A 
ATOM     46  S   UNL     1       8.372  -4.926  26.339  0.00  0.00    -0.074 S 
ATOM     47  C   UNL     1       9.444  -4.444  25.084  0.00  0.00    +0.070 A 
ATOM     48  C   UNL     1       9.069  -3.228  24.546  0.00  0.00    +0.052 A 
ATOM     49  N   UNL     1       7.941  -2.701  25.144  0.00  0.00    -0.242 NA
BRANCH  48  50
ATOM     50  C   UNL     1       9.724  -2.459  23.438  0.00  0.00    +0.032 C 
ATOM     51  C   UNL     1      10.226  -1.101  23.929  0.00  0.00    +0.014 C 
ATOM     52  C   UNL     1       8.795  -2.268  22.233  0.00  0.00    +0.014 C 
ENDBRANCH  48  50
ENDBRANCH  38  45
BRANCH  44  53
ATOM     53  O   UNL     1       1.614  -5.773  29.626  0.00  0.00    -0.495 OA
ATOM     54  C   UNL     1       0.539  -6.412  28.954  0.00  0.00    +0.277 C 
ENDBRANCH  44  53
ENDBRANCH  33  40
ENDBRANCH   1  33
TORSDOF 8
ENDMDL
MODEL 9
REMARK VINA RESULT:      -5.0      2.464      7.273
REMARK  Name = 
REMARK  13 active torsions:
REMARK  status: ('A' for Active; 'I' for Inactive)
REMARK    1  A    between atoms: C_1  and  C_2
REMARK    2  A    between atoms: C_3  and  O_51
REMARK    3  A    between atoms: C_9  and  C_43
REMARK    4  A    between atoms: C_11  and  O_12
REMARK    5  A    between atoms: O_12  and  C_13
REMARK    6  A    between atoms: N_20  and  C_42
REMARK    7  A    between atoms: C_29  and  C_33
REMARK    8  A    between atoms: N_35  and  S_36
REMARK    9  A    between atoms: S_36  and  C_39
REMARK   10  A    between atoms: C_45  and  C_48
REMARK   11  A    between atoms: C_48  and  C_49
REMARK   12  A    between atoms: C_48  and  C_50
REMARK   13  A    between atoms: O_51  and  C_52
REMARK                            x       y       z     vdW  Elec       q    Type
REMARK                         _______ _______ _______ _____ _____    ______ ____
ROOT
ATOM      1  C   UNL     1       4.810  -2.827  27.299  0.00  0.00    +0.175 C 
ATOM      2  C   UNL     1       3.320  -2.858  26.862  0.00  0.00    +0.058 C 
ATOM      3  C   UNL     1       3.428  -3.560  25.478  0.00  0.00    +0.091 C 
ATOM      4  C   UNL     1       3.698  -5.070  25.770  0.00  0.00    +0.219 C 
ATOM      5  N   UNL     1       4.878  -5.668  25.318  0.00  0.00    -0.304 N 
ATOM      6  C   UNL     1       4.602  -6.838  24.495  0.00  0.00    +0.132 C 
ATOM      7  C   UNL     1       5.903  -5.988  26.338  0.00  0.00    +0.107 C 
ATOM      8  C   UNL     1       7.320  -6.017  25.768  0.00  0.00    +0.019 C 
ATOM      9  C   UNL     1       8.370  -5.429  26.735  0.00  0.00    +0.006 C 
ATOM     10  C   UNL     1       9.390  -4.526  26.034  0.00  0.00    +0.027 C 
ATOM     11  C   UNL     1       8.858  -3.197  25.574  0.00  0.00    -0.031 C 
ATOM     12  C   UNL     1       8.607  -2.946  24.277  0.00  0.00    -0.025 C 
ATOM     13  C   UNL     1       8.333  -1.697  23.535  0.00  0.00    +0.046 C 
ATOM     14  C   UNL     1       7.062  -1.083  22.906  0.00  0.00    +0.119 C 
ATOM     15  N   UNL     1       5.781  -1.348  23.486  0.00  0.00    -0.301 N 
ATOM     16  H   UNL     1       5.510  -0.633  24.159  0.00  0.00    +0.150 HD
ATOM     17  C   UNL     1       5.094  -2.559  23.565  0.00  0.00    +0.218 C 
ATOM     18  O   UNL     1       5.038  -3.426  22.713  0.00  0.00    -0.275 OA
ATOM     19  C   UNL     1       7.872  -2.057  22.124  0.00  0.00    +0.046 C 
ATOM     20  O   UNL     1       2.864  -5.726  26.399  0.00  0.00    -0.275 OA
ATOM     21  C   UNL     1       4.453  -2.595  24.928  0.00  0.00    +0.090 C 
ATOM     22  C   UNL     1       5.539  -2.557  25.999  0.00  0.00    +0.058 C 
ENDROOT
BRANCH  14  23
ATOM     23  C   UNL     1       7.189   0.375  22.474  0.00  0.00    +0.256 C 
ATOM     24  N   UNL     1       6.178   1.201  22.930  0.00  0.00    -0.188 N 
ATOM     25  H   UNL     1       5.475   0.869  23.579  0.00  0.00    +0.176 HD
ATOM     26  O   UNL     1       8.142   0.733  21.794  0.00  0.00    -0.272 OA
BRANCH  24  27
ATOM     27  S   UNL     1       6.009   2.778  22.493  0.00  0.00    +0.048 S 
ATOM     28  O   UNL     1       4.757   2.913  21.766  0.00  0.00    -0.155 OA
ATOM     29  O   UNL     1       7.272   3.138  21.860  0.00  0.00    -0.155 OA
BRANCH  27  30
ATOM     30  C   UNL     1       5.842   3.763  24.008  0.00  0.00    +0.151 C 
ATOM     31  C   UNL     1       4.608   4.615  24.117  0.00  0.00    +0.030 C 
ATOM     32  C   UNL     1       5.924   5.253  23.766  0.00  0.00    +0.030 C 
ENDBRANCH  27  30
ENDBRANCH  24  27
ENDBRANCH  14  23
BRANCH   1  33
ATOM     33  O   UNL     1       5.301  -1.899  28.264  0.00  0.00    -0.488 OA
BRANCH  33  40
ATOM     34  C   UNL     1       4.313   4.150  27.671  0.00  0.00    +0.050 C 
ATOM     35  C   UNL     1       3.899   2.743  28.032  0.00  0.00    +0.017 A 
ATOM     36  C   UNL     1       4.761   1.701  27.661  0.00  0.00    +0.082 A 
ATOM     37  N   UNL     1       5.896   1.996  26.976  0.00  0.00    -0.244 NA
ATOM     38  C   UNL     1       6.740   0.999  26.661  0.00  0.00    +0.100 A 
ATOM     39  C   UNL     1       6.500  -0.296  27.035  0.00  0.00    +0.076 A 
ATOM     40  C   UNL     1       5.375  -0.622  27.756  0.00  0.00    +0.132 A 
ATOM     41  C   UNL     1       4.432   0.378  28.052  0.00  0.00    +0.043 A 
ATOM     42  C   UNL     1       3.205   0.128  28.706  0.00  0.00    +0.017 A 
ATOM     43  C   UNL     1       2.346   1.179  29.039  0.00  0.00    +0.047 A 
ATOM     44  C   UNL     1       2.702   2.492  28.738  0.00  0.00    +0.125 A 
BRANCH  38  45
ATOM     45  C   UNL     1       8.035   1.241  26.011  0.00  0.00    +0.127 A 
ATOM     46  S   UNL     1       9.302   0.097  25.973  0.00  0.00    -0.074 S 
ATOM     47  C   UNL     1      10.148   1.097  24.860  0.00  0.00    +0.070 A 
ATOM     48  C   UNL     1       9.446   2.258  24.596  0.00  0.00    +0.052 A 
ATOM     49  N   UNL     1       8.252   2.331  25.286  0.00  0.00    -0.242 NA
BRANCH  48  50
ATOM     50  C   UNL     1       9.824   3.387  23.685  0.00  0.00    +0.032 C 
ATOM     51  C   UNL     1      11.318   3.360  23.360  0.00  0.00    +0.014 C 
ATOM     52  C   UNL     1       9.440   4.754  24.262  0.00  0.00    +0.014 C 
ENDBRANCH  48  50
ENDBRANCH  38  45
BRANCH  44  53
ATOM     53  O   UNL     1       1.962   3.596  29.074  0.00  0.00    -0.495 OA
ATOM     54  C   UNL     1       0.638   3.700  28.573  0.00  0.00    +0.277 C 
ENDBRANCH  44  53
ENDBRANCH  33  40
ENDBRANCH   1  33
TORSDOF 8
ENDMDL
