MODEL 1
REMARK VINA RESULT:      -7.3      0.000      0.000
REMARK  Name = 
REMARK  16 active torsions:
REMARK  status: ('A' for Active; 'I' for Inactive)
REMARK    1  A    between atoms: C_1  and  C_2
REMARK    2  A    between atoms: C_3  and  C_9
REMARK    3  A    between atoms: C_7  and  O_8
REMARK    4  A    between atoms: N_11  and  C_12
REMARK    5  A    between atoms: C_12  and  C_13
REMARK    6  A    between atoms: C_12  and  C_21
REMARK    7  A    between atoms: C_13  and  S_14
REMARK    8  A    between atoms: S_14  and  C_15
REMARK    9  A    between atoms: C_21  and  C_22
REMARK   10  A    between atoms: C_21  and  O_42
REMARK   11  A    between atoms: C_22  and  N_23
REMARK   12  A    between atoms: C_34  and  C_35
REMARK   13  A    between atoms: N_37  and  C_38
REMARK   14  A    between atoms: C_38  and  C_39
REMARK   15  A    between atoms: C_38  and  C_40
REMARK   16  A    between atoms: C_38  and  C_41
REMARK                            x       y       z     vdW  Elec       q    Type
REMARK                         _______ _______ _______ _____ _____    ______ ____
ROOT
ATOM      1  C   UNL     1       7.336  -1.806  24.509  0.00  0.00    +0.113 C 
ENDROOT
BRANCH   1   3
ATOM      2  C   UNL     1       6.779  -4.320  24.725  0.00  0.00    +0.245 C 
ATOM      3  N   UNL     1       6.398  -2.986  24.745  0.00  0.00    -0.305 N 
ATOM      4  H   UNL     1       5.436  -2.782  24.985  0.00  0.00    +0.149 HD
ATOM      5  O   UNL     1       7.935  -4.688  24.545  0.00  0.00    -0.270 OA
BRANCH   2  12
ATOM      6  C   UNL     1       5.123  -5.940  22.613  0.00  0.00    +0.048 C 
ATOM      7  C   UNL     1       4.973  -6.099  24.096  0.00  0.00    +0.003 A 
ATOM      8  C   UNL     1       4.030  -7.049  24.565  0.00  0.00    +0.120 A 
ATOM      9  C   UNL     1       3.908  -7.372  25.914  0.00  0.00    +0.046 A 
ATOM     10  C   UNL     1       4.739  -6.746  26.829  0.00  0.00    +0.004 A 
ATOM     11  C   UNL     1       5.649  -5.769  26.392  0.00  0.00    +0.013 A 
ATOM     12  C   UNL     1       5.747  -5.388  25.034  0.00  0.00    +0.043 A 
BRANCH   8  13
ATOM     13  O   UNL     1       3.218  -7.680  23.656  0.00  0.00    -0.506 OA
ATOM     14  H   UNL     1       2.551  -7.049  23.335  0.00  0.00    +0.292 HD
ENDBRANCH   8  13
ENDBRANCH   2  12
ENDBRANCH   1   3
BRANCH   1  15
ATOM     15  C   UNL     1       6.973  -0.523  25.356  0.00  0.00    +0.149 C 
BRANCH  15  16
ATOM     16  O   UNL     1       6.291  -0.774  26.592  0.00  0.00    -0.389 OA
ATOM     17  H   UNL     1       5.455  -0.274  26.565  0.00  0.00    +0.210 HD
ENDBRANCH  15  16
BRANCH  15  18
ATOM     18  C   UNL     1       6.188   0.607  24.661  0.00  0.00    +0.118 C 
BRANCH  18  19
ATOM     19  N   UNL     1       6.875   1.856  24.279  0.00  0.00    -0.289 NA
ATOM     20  C   UNL     1       7.612   2.357  25.462  0.00  0.00    +0.143 C 
ATOM     21  C   UNL     1       8.559   3.493  25.122  0.00  0.00    +0.032 C 
ATOM     22  C   UNL     1       7.838   4.631  24.418  0.00  0.00    -0.005 C 
ATOM     23  C   UNL     1       7.056   4.094  23.204  0.00  0.00    +0.006 C 
ATOM     24  C   UNL     1       6.352   5.270  22.502  0.00  0.00    +0.005 C 
ATOM     25  C   UNL     1       7.359   6.362  22.101  0.00  0.00    +0.000 C 
ATOM     26  C   UNL     1       8.202   6.848  23.278  0.00  0.00    +0.000 C 
ATOM     27  C   UNL     1       8.865   5.686  24.000  0.00  0.00    +0.004 C 
ATOM     28  C   UNL     1       6.111   2.917  23.599  0.00  0.00    +0.089 C 
BRANCH  20  29
ATOM     29  C   UNL     1       6.724   2.735  26.689  0.00  0.00    +0.231 C 
ATOM     30  N   UNL     1       7.210   2.173  27.850  0.00  0.00    -0.309 N 
ATOM     31  H   UNL     1       8.006   1.556  27.762  0.00  0.00    +0.149 HD
ATOM     32  O   UNL     1       5.741   3.463  26.635  0.00  0.00    -0.274 OA
BRANCH  30  33
ATOM     33  C   UNL     1       6.617   2.301  29.183  0.00  0.00    +0.026 C 
ATOM     34  C   UNL     1       6.590   3.767  29.636  0.00  0.00    +0.031 C 
ATOM     35  C   UNL     1       7.514   1.507  30.151  0.00  0.00    +0.031 C 
ATOM     36  C   UNL     1       5.203   1.703  29.213  0.00  0.00    +0.031 C 
ENDBRANCH  30  33
ENDBRANCH  20  29
ENDBRANCH  18  19
ENDBRANCH  15  18
ENDBRANCH   1  15
BRANCH   1  37
ATOM     37  C   UNL     1       7.342  -1.454  22.977  0.00  0.00    +0.099 C 
BRANCH  37  38
ATOM     38  S   UNL     1       8.978  -1.677  22.138  0.00  0.00    -0.123 S 
BRANCH  38  39
ATOM     39  C   UNL     1       9.826  -0.154  22.537  0.00  0.00    +0.008 A 
ATOM     40  C   UNL     1      10.504  -0.087  23.756  0.00  0.00    +0.015 A 
ATOM     41  C   UNL     1      11.037   1.120  24.211  0.00  0.00    +0.001 A 
ATOM     42  C   UNL     1      10.899   2.277  23.447  0.00  0.00    +0.000 A 
ATOM     43  C   UNL     1      10.233   2.223  22.222  0.00  0.00    +0.001 A 
ATOM     44  C   UNL     1       9.692   1.011  21.768  0.00  0.00    +0.015 A 
ENDBRANCH  38  39
ENDBRANCH  37  38
ENDBRANCH   1  37
TORSDOF 12
ENDMDL
MODEL 2
REMARK VINA RESULT:      -6.9      2.201      8.777
REMARK  Name = 
REMARK  16 active torsions:
REMARK  status: ('A' for Active; 'I' for Inactive)
REMARK    1  A    between atoms: C_1  and  C_2
REMARK    2  A    between atoms: C_3  and  C_9
REMARK    3  A    between atoms: C_7  and  O_8
REMARK    4  A    between atoms: N_11  and  C_12
REMARK    5  A    between atoms: C_12  and  C_13
REMARK    6  A    between atoms: C_12  and  C_21
REMARK    7  A    between atoms: C_13  and  S_14
REMARK    8  A    between atoms: S_14  and  C_15
REMARK    9  A    between atoms: C_21  and  C_22
REMARK   10  A    between atoms: C_21  and  O_42
REMARK   11  A    between atoms: C_22  and  N_23
REMARK   12  A    between atoms: C_34  and  C_35
REMARK   13  A    between atoms: N_37  and  C_38
REMARK   14  A    between atoms: C_38  and  C_39
REMARK   15  A    between atoms: C_38  and  C_40
REMARK   16  A    between atoms: C_38  and  C_41
REMARK                            x       y       z     vdW  Elec       q    Type
REMARK                         _______ _______ _______ _____ _____    ______ ____
ROOT
ATOM      1  C   UNL     1       7.190  -1.439  24.710  0.00  0.00    +0.113 C 
ENDROOT
BRANCH   1   3
ATOM      2  C   UNL     1       6.598   1.070  24.539  0.00  0.00    +0.245 C 
ATOM      3  N   UNL     1       7.519   0.032  24.485  0.00  0.00    -0.305 N 
ATOM      4  H   UNL     1       8.489   0.281  24.336  0.00  0.00    +0.149 HD
ATOM      5  O   UNL     1       5.413   0.906  24.811  0.00  0.00    -0.270 OA
BRANCH   2  12
ATOM      6  C   UNL     1       6.436   2.728  21.884  0.00  0.00    +0.048 C 
ATOM      7  C   UNL     1       7.042   3.240  23.155  0.00  0.00    +0.003 A 
ATOM      8  C   UNL     1       7.565   4.559  23.152  0.00  0.00    +0.120 A 
ATOM      9  C   UNL     1       8.026   5.179  24.311  0.00  0.00    +0.046 A 
ATOM     10  C   UNL     1       7.970   4.484  25.508  0.00  0.00    +0.004 A 
ATOM     11  C   UNL     1       7.500   3.160  25.526  0.00  0.00    +0.013 A 
ATOM     12  C   UNL     1       7.080   2.496  24.351  0.00  0.00    +0.043 A 
BRANCH   8  13
ATOM     13  O   UNL     1       7.605   5.251  21.968  0.00  0.00    -0.506 OA
ATOM     14  H   UNL     1       6.873   5.890  21.948  0.00  0.00    +0.292 HD
ENDBRANCH   8  13
ENDBRANCH   2  12
ENDBRANCH   1   3
BRANCH   1  15
ATOM     15  C   UNL     1       7.511  -1.950  26.170  0.00  0.00    +0.149 C 
BRANCH  15  16
ATOM     16  O   UNL     1       8.612  -1.302  26.819  0.00  0.00    -0.389 OA
ATOM     17  H   UNL     1       8.493  -0.343  26.697  0.00  0.00    +0.210 HD
ENDBRANCH  15  16
BRANCH  15  18
ATOM     18  C   UNL     1       7.726  -3.462  26.379  0.00  0.00    +0.118 C 
BRANCH  18  19
ATOM     19  N   UNL     1       6.782  -4.234  27.211  0.00  0.00    -0.289 NA
ATOM     20  C   UNL     1       6.273  -5.365  26.402  0.00  0.00    +0.143 C 
ATOM     21  C   UNL     1       5.495  -6.371  27.230  0.00  0.00    +0.032 C 
ATOM     22  C   UNL     1       4.363  -5.708  27.998  0.00  0.00    -0.005 C 
ATOM     23  C   UNL     1       4.902  -4.519  28.817  0.00  0.00    +0.006 C 
ATOM     24  C   UNL     1       3.738  -3.880  29.597  0.00  0.00    +0.005 C 
ATOM     25  C   UNL     1       3.028  -4.917  30.485  0.00  0.00    +0.000 C 
ATOM     26  C   UNL     1       2.560  -6.142  29.703  0.00  0.00    +0.000 C 
ATOM     27  C   UNL     1       3.697  -6.751  28.899  0.00  0.00    +0.004 C 
ATOM     28  C   UNL     1       5.708  -3.523  27.928  0.00  0.00    +0.089 C 
BRANCH  20  29
ATOM     29  C   UNL     1       5.463  -4.961  25.130  0.00  0.00    +0.231 C 
ATOM     30  N   UNL     1       5.987  -5.546  23.997  0.00  0.00    -0.309 N 
ATOM     31  H   UNL     1       6.835  -6.086  24.111  0.00  0.00    +0.149 HD
ATOM     32  O   UNL     1       4.470  -4.245  25.139  0.00  0.00    -0.274 OA
BRANCH  30  33
ATOM     33  C   UNL     1       5.492  -5.372  22.630  0.00  0.00    +0.026 C 
ATOM     34  C   UNL     1       5.319  -3.885  22.292  0.00  0.00    +0.031 C 
ATOM     35  C   UNL     1       4.111  -6.052  22.562  0.00  0.00    +0.031 C 
ATOM     36  C   UNL     1       6.428  -6.048  21.618  0.00  0.00    +0.031 C 
ENDBRANCH  30  33
ENDBRANCH  20  29
ENDBRANCH  18  19
ENDBRANCH  15  18
ENDBRANCH   1  15
BRANCH   1  37
ATOM     37  C   UNL     1       7.969  -2.307  23.655  0.00  0.00    +0.099 C 
BRANCH  37  38
ATOM     38  S   UNL     1       9.814  -2.220  23.792  0.00  0.00    -0.123 S 
BRANCH  38  39
ATOM     39  C   UNL     1      10.156  -0.532  23.309  0.00  0.00    +0.008 A 
ATOM     40  C   UNL     1      10.639   0.340  24.287  0.00  0.00    +0.015 A 
ATOM     41  C   UNL     1      10.761   1.706  24.027  0.00  0.00    +0.001 A 
ATOM     42  C   UNL     1      10.402   2.215  22.781  0.00  0.00    +0.000 A 
ATOM     43  C   UNL     1       9.930   1.354  21.790  0.00  0.00    +0.001 A 
ATOM     44  C   UNL     1       9.801  -0.018  22.053  0.00  0.00    +0.015 A 
ENDBRANCH  38  39
ENDBRANCH  37  38
ENDBRANCH   1  37
TORSDOF 12
ENDMDL
MODEL 3
REMARK VINA RESULT:      -6.8      2.650      8.206
REMARK  Name = 
REMARK  16 active torsions:
REMARK  status: ('A' for Active; 'I' for Inactive)
REMARK    1  A    between atoms: C_1  and  C_2
REMARK    2  A    between atoms: C_3  and  C_9
REMARK    3  A    between atoms: C_7  and  O_8
REMARK    4  A    between atoms: N_11  and  C_12
REMARK    5  A    between atoms: C_12  and  C_13
REMARK    6  A    between atoms: C_12  and  C_21
REMARK    7  A    between atoms: C_13  and  S_14
REMARK    8  A    between atoms: S_14  and  C_15
REMARK    9  A    between atoms: C_21  and  C_22
REMARK   10  A    between atoms: C_21  and  O_42
REMARK   11  A    between atoms: C_22  and  N_23
REMARK   12  A    between atoms: C_34  and  C_35
REMARK   13  A    between atoms: N_37  and  C_38
REMARK   14  A    between atoms: C_38  and  C_39
REMARK   15  A    between atoms: C_38  and  C_40
REMARK   16  A    between atoms: C_38  and  C_41
REMARK                            x       y       z     vdW  Elec       q    Type
REMARK                         _______ _______ _______ _____ _____    ______ ____
ROOT
ATOM      1  C   UNL     1       5.633   2.203  28.163  0.00  0.00    +0.113 C 
ENDROOT
BRANCH   1   3
ATOM      2  C   UNL     1       6.803   3.749  26.455  0.00  0.00    +0.245 C 
ATOM      3  N   UNL     1       5.907   2.734  26.760  0.00  0.00    -0.305 N 
ATOM      4  H   UNL     1       5.440   2.279  25.984  0.00  0.00    +0.149 HD
ATOM      5  O   UNL     1       7.501   4.307  27.296  0.00  0.00    -0.270 OA
BRANCH   2  12
ATOM      6  C   UNL     1       9.059   5.636  25.369  0.00  0.00    +0.048 C 
ATOM      7  C   UNL     1       8.006   5.008  24.508  0.00  0.00    +0.003 A 
ATOM      8  C   UNL     1       8.043   5.281  23.116  0.00  0.00    +0.120 A 
ATOM      9  C   UNL     1       7.198   4.644  22.210  0.00  0.00    +0.046 A 
ATOM     10  C   UNL     1       6.292   3.710  22.685  0.00  0.00    +0.004 A 
ATOM     11  C   UNL     1       6.206   3.458  24.065  0.00  0.00    +0.013 A 
ATOM     12  C   UNL     1       7.016   4.135  25.004  0.00  0.00    +0.043 A 
BRANCH   8  13
ATOM     13  O   UNL     1       8.951   6.195  22.645  0.00  0.00    -0.506 OA
ATOM     14  H   UNL     1       9.292   6.717  23.391  0.00  0.00    +0.292 HD
ENDBRANCH   8  13
ENDBRANCH   2  12
ENDBRANCH   1   3
BRANCH   1  15
ATOM     15  C   UNL     1       6.741   1.212  28.698  0.00  0.00    +0.149 C 
BRANCH  15  16
ATOM     16  O   UNL     1       7.926   1.833  29.212  0.00  0.00    -0.389 OA
ATOM     17  H   UNL     1       7.939   1.675  30.173  0.00  0.00    +0.210 HD
ENDBRANCH  15  16
BRANCH  15  18
ATOM     18  C   UNL     1       7.223   0.089  27.760  0.00  0.00    +0.118 C 
BRANCH  18  19
ATOM     19  N   UNL     1       7.460   0.371  26.331  0.00  0.00    -0.289 NA
ATOM     20  C   UNL     1       6.924  -0.762  25.542  0.00  0.00    +0.143 C 
ATOM     21  C   UNL     1       6.880  -0.468  24.054  0.00  0.00    +0.032 C 
ATOM     22  C   UNL     1       8.243  -0.044  23.527  0.00  0.00    -0.005 C 
ATOM     23  C   UNL     1       8.799   1.119  24.370  0.00  0.00    +0.006 C 
ATOM     24  C   UNL     1      10.169   1.538  23.803  0.00  0.00    +0.005 C 
ATOM     25  C   UNL     1      10.064   1.905  22.312  0.00  0.00    +0.000 C 
ATOM     26  C   UNL     1       9.436   0.795  21.473  0.00  0.00    +0.000 C 
ATOM     27  C   UNL     1       8.104   0.349  22.054  0.00  0.00    +0.004 C 
ATOM     28  C   UNL     1       8.807   0.778  25.892  0.00  0.00    +0.089 C 
BRANCH  20  29
ATOM     29  C   UNL     1       7.608  -2.139  25.807  0.00  0.00    +0.231 C 
ATOM     30  N   UNL     1       6.851  -3.178  25.307  0.00  0.00    -0.309 N 
ATOM     31  H   UNL     1       5.952  -2.939  24.909  0.00  0.00    +0.149 HD
ATOM     32  O   UNL     1       8.692  -2.281  26.357  0.00  0.00    -0.274 OA
BRANCH  30  33
ATOM     33  C   UNL     1       7.177  -4.603  25.395  0.00  0.00    +0.026 C 
ATOM     34  C   UNL     1       8.464  -4.922  24.622  0.00  0.00    +0.031 C 
ATOM     35  C   UNL     1       6.012  -5.371  24.742  0.00  0.00    +0.031 C 
ATOM     36  C   UNL     1       7.306  -5.046  26.860  0.00  0.00    +0.031 C 
ENDBRANCH  30  33
ENDBRANCH  20  29
ENDBRANCH  18  19
ENDBRANCH  15  18
ENDBRANCH   1  15
BRANCH   1  37
ATOM     37  C   UNL     1       4.228   1.497  28.180  0.00  0.00    +0.099 C 
BRANCH  37  38
ATOM     38  S   UNL     1       4.012   0.234  29.517  0.00  0.00    -0.123 S 
BRANCH  38  39
ATOM     39  C   UNL     1       3.757  -1.271  28.585  0.00  0.00    +0.008 A 
ATOM     40  C   UNL     1       3.879  -2.486  29.264  0.00  0.00    +0.015 A 
ATOM     41  C   UNL     1       3.867  -3.696  28.569  0.00  0.00    +0.001 A 
ATOM     42  C   UNL     1       3.729  -3.705  27.182  0.00  0.00    +0.000 A 
ATOM     43  C   UNL     1       3.594  -2.500  26.492  0.00  0.00    +0.001 A 
ATOM     44  C   UNL     1       3.613  -1.283  27.190  0.00  0.00    +0.015 A 
ENDBRANCH  38  39
ENDBRANCH  37  38
ENDBRANCH   1  37
TORSDOF 12
ENDMDL
MODEL 4
REMARK VINA RESULT:      -6.7      1.383      2.044
REMARK  Name = 
REMARK  16 active torsions:
REMARK  status: ('A' for Active; 'I' for Inactive)
REMARK    1  A    between atoms: C_1  and  C_2
REMARK    2  A    between atoms: C_3  and  C_9
REMARK    3  A    between atoms: C_7  and  O_8
REMARK    4  A    between atoms: N_11  and  C_12
REMARK    5  A    between atoms: C_12  and  C_13
REMARK    6  A    between atoms: C_12  and  C_21
REMARK    7  A    between atoms: C_13  and  S_14
REMARK    8  A    between atoms: S_14  and  C_15
REMARK    9  A    between atoms: C_21  and  C_22
REMARK   10  A    between atoms: C_21  and  O_42
REMARK   11  A    between atoms: C_22  and  N_23
REMARK   12  A    between atoms: C_34  and  C_35
REMARK   13  A    between atoms: N_37  and  C_38
REMARK   14  A    between atoms: C_38  and  C_39
REMARK   15  A    between atoms: C_38  and  C_40
REMARK   16  A    between atoms: C_38  and  C_41
REMARK                            x       y       z     vdW  Elec       q    Type
REMARK                         _______ _______ _______ _____ _____    ______ ____
ROOT
ATOM      1  C   UNL     1       6.827  -2.637  24.165  0.00  0.00    +0.113 C 
ENDROOT
BRANCH   1   3
ATOM      2  C   UNL     1       4.762  -4.068  24.771  0.00  0.00    +0.245 C 
ATOM      3  N   UNL     1       5.893  -3.831  24.001  0.00  0.00    -0.305 N 
ATOM      4  H   UNL     1       6.078  -4.473  23.240  0.00  0.00    +0.149 HD
ATOM      5  O   UNL     1       4.378  -3.309  25.654  0.00  0.00    -0.270 OA
BRANCH   2  12
ATOM      6  C   UNL     1       4.684  -6.753  26.387  0.00  0.00    +0.048 C 
ATOM      7  C   UNL     1       3.871  -6.493  25.155  0.00  0.00    +0.003 A 
ATOM      8  C   UNL     1       3.010  -7.526  24.703  0.00  0.00    +0.120 A 
ATOM      9  C   UNL     1       2.115  -7.341  23.651  0.00  0.00    +0.046 A 
ATOM     10  C   UNL     1       2.063  -6.104  23.028  0.00  0.00    +0.004 A 
ATOM     11  C   UNL     1       2.939  -5.082  23.429  0.00  0.00    +0.013 A 
ATOM     12  C   UNL     1       3.892  -5.269  24.455  0.00  0.00    +0.043 A 
BRANCH   8  13
ATOM     13  O   UNL     1       3.052  -8.744  25.331  0.00  0.00    -0.506 OA
ATOM     14  H   UNL     1       3.047  -9.448  24.660  0.00  0.00    +0.292 HD
ENDBRANCH   8  13
ENDBRANCH   2  12
ENDBRANCH   1   3
BRANCH   1  15
ATOM     15  C   UNL     1       6.123  -1.240  23.946  0.00  0.00    +0.149 C 
BRANCH  15  16
ATOM     16  O   UNL     1       6.305  -0.658  22.649  0.00  0.00    -0.389 OA
ATOM     17  H   UNL     1       7.099  -1.067  22.259  0.00  0.00    +0.210 HD
ENDBRANCH  15  16
BRANCH  15  18
ATOM     18  C   UNL     1       6.412  -0.115  24.959  0.00  0.00    +0.118 C 
BRANCH  18  19
ATOM     19  N   UNL     1       6.991   1.162  24.500  0.00  0.00    -0.289 NA
ATOM     20  C   UNL     1       7.640   1.817  25.659  0.00  0.00    +0.143 C 
ATOM     21  C   UNL     1       8.488   3.010  25.256  0.00  0.00    +0.032 C 
ATOM     22  C   UNL     1       7.685   4.019  24.450  0.00  0.00    -0.005 C 
ATOM     23  C   UNL     1       6.996   3.321  23.262  0.00  0.00    +0.006 C 
ATOM     24  C   UNL     1       6.208   4.370  22.454  0.00  0.00    +0.005 C 
ATOM     25  C   UNL     1       7.121   5.521  21.996  0.00  0.00    +0.000 C 
ATOM     26  C   UNL     1       7.877   6.170  23.153  0.00  0.00    +0.000 C 
ATOM     27  C   UNL     1       8.623   5.133  23.977  0.00  0.00    +0.004 C 
ATOM     28  C   UNL     1       6.153   2.093  23.722  0.00  0.00    +0.089 C 
BRANCH  20  29
ATOM     29  C   UNL     1       6.682   2.198  26.831  0.00  0.00    +0.231 C 
ATOM     30  N   UNL     1       7.321   2.105  28.049  0.00  0.00    -0.309 N 
ATOM     31  H   UNL     1       8.268   1.750  28.044  0.00  0.00    +0.149 HD
ATOM     32  O   UNL     1       5.523   2.565  26.687  0.00  0.00    -0.274 OA
BRANCH  30  33
ATOM     33  C   UNL     1       6.721   2.368  29.359  0.00  0.00    +0.026 C 
ATOM     34  C   UNL     1       7.750   2.186  30.483  0.00  0.00    +0.031 C 
ATOM     35  C   UNL     1       5.597   1.332  29.553  0.00  0.00    +0.031 C 
ATOM     36  C   UNL     1       6.113   3.777  29.410  0.00  0.00    +0.031 C 
ENDBRANCH  30  33
ENDBRANCH  20  29
ENDBRANCH  18  19
ENDBRANCH  15  18
ENDBRANCH   1  15
BRANCH   1  37
ATOM     37  C   UNL     1       8.037  -2.791  23.172  0.00  0.00    +0.099 C 
BRANCH  37  38
ATOM     38  S   UNL     1       9.690  -2.372  23.895  0.00  0.00    -0.123 S 
BRANCH  38  39
ATOM     39  C   UNL     1       9.878  -0.650  23.452  0.00  0.00    +0.008 A 
ATOM     40  C   UNL     1       9.372  -0.237  22.217  0.00  0.00    +0.015 A 
ATOM     41  C   UNL     1       9.636   1.045  21.731  0.00  0.00    +0.001 A 
ATOM     42  C   UNL     1      10.408   1.931  22.479  0.00  0.00    +0.000 A 
ATOM     43  C   UNL     1      10.910   1.536  23.719  0.00  0.00    +0.001 A 
ATOM     44  C   UNL     1      10.651   0.246  24.205  0.00  0.00    +0.015 A 
ENDBRANCH  38  39
ENDBRANCH  37  38
ENDBRANCH   1  37
TORSDOF 12
ENDMDL
MODEL 5
REMARK VINA RESULT:      -6.7      2.425      4.561
REMARK  Name = 
REMARK  16 active torsions:
REMARK  status: ('A' for Active; 'I' for Inactive)
REMARK    1  A    between atoms: C_1  and  C_2
REMARK    2  A    between atoms: C_3  and  C_9
REMARK    3  A    between atoms: C_7  and  O_8
REMARK    4  A    between atoms: N_11  and  C_12
REMARK    5  A    between atoms: C_12  and  C_13
REMARK    6  A    between atoms: C_12  and  C_21
REMARK    7  A    between atoms: C_13  and  S_14
REMARK    8  A    between atoms: S_14  and  C_15
REMARK    9  A    between atoms: C_21  and  C_22
REMARK   10  A    between atoms: C_21  and  O_42
REMARK   11  A    between atoms: C_22  and  N_23
REMARK   12  A    between atoms: C_34  and  C_35
REMARK   13  A    between atoms: N_37  and  C_38
REMARK   14  A    between atoms: C_38  and  C_39
REMARK   15  A    between atoms: C_38  and  C_40
REMARK   16  A    between atoms: C_38  and  C_41
REMARK                            x       y       z     vdW  Elec       q    Type
REMARK                         _______ _______ _______ _____ _____    ______ ____
ROOT
ATOM      1  C   UNL     1       5.382  -0.522  26.205  0.00  0.00    +0.113 C 
ENDROOT
BRANCH   1   3
ATOM      2  C   UNL     1       4.856  -2.594  24.754  0.00  0.00    +0.245 C 
ATOM      3  N   UNL     1       5.716  -1.584  25.163  0.00  0.00    -0.305 N 
ATOM      4  H   UNL     1       6.612  -1.521  24.695  0.00  0.00    +0.149 HD
ATOM      5  O   UNL     1       3.709  -2.713  25.174  0.00  0.00    -0.270 OA
BRANCH   2  12
ATOM      6  C   UNL     1       4.710  -5.723  24.881  0.00  0.00    +0.048 C 
ATOM      7  C   UNL     1       5.273  -4.957  23.722  0.00  0.00    +0.003 A 
ATOM      8  C   UNL     1       5.759  -5.699  22.615  0.00  0.00    +0.120 A 
ATOM      9  C   UNL     1       6.176  -5.087  21.435  0.00  0.00    +0.046 A 
ATOM     10  C   UNL     1       6.112  -3.706  21.340  0.00  0.00    +0.004 A 
ATOM     11  C   UNL     1       5.677  -2.949  22.441  0.00  0.00    +0.013 A 
ATOM     12  C   UNL     1       5.303  -3.549  23.664  0.00  0.00    +0.043 A 
BRANCH   8  13
ATOM     13  O   UNL     1       5.808  -7.067  22.706  0.00  0.00    -0.506 OA
ATOM     14  H   UNL     1       6.691  -7.333  23.012  0.00  0.00    +0.292 HD
ENDBRANCH   8  13
ENDBRANCH   2  12
ENDBRANCH   1   3
BRANCH   1  15
ATOM     15  C   UNL     1       5.399   0.954  25.640  0.00  0.00    +0.149 C 
BRANCH  15  16
ATOM     16  O   UNL     1       4.115   1.505  25.323  0.00  0.00    -0.389 OA
ATOM     17  H   UNL     1       4.070   2.386  25.739  0.00  0.00    +0.210 HD
ENDBRANCH  15  16
BRANCH  15  18
ATOM     18  C   UNL     1       6.302   1.256  24.428  0.00  0.00    +0.118 C 
BRANCH  18  19
ATOM     19  N   UNL     1       7.393   2.242  24.548  0.00  0.00    -0.289 NA
ATOM     20  C   UNL     1       6.787   3.585  24.702  0.00  0.00    +0.143 C 
ATOM     21  C   UNL     1       7.803   4.643  25.090  0.00  0.00    +0.032 C 
ATOM     22  C   UNL     1       8.964   4.689  24.109  0.00  0.00    -0.005 C 
ATOM     23  C   UNL     1       9.571   3.283  23.939  0.00  0.00    +0.006 C 
ATOM     24  C   UNL     1      10.754   3.364  22.956  0.00  0.00    +0.005 C 
ATOM     25  C   UNL     1      11.800   4.390  23.429  0.00  0.00    +0.000 C 
ATOM     26  C   UNL     1      11.199   5.771  23.683  0.00  0.00    +0.000 C 
ATOM     27  C   UNL     1      10.005   5.689  24.619  0.00  0.00    +0.004 C 
ATOM     28  C   UNL     1       8.487   2.228  23.560  0.00  0.00    +0.089 C 
BRANCH  20  29
ATOM     29  C   UNL     1       5.927   4.070  23.494  0.00  0.00    +0.231 C 
ATOM     30  N   UNL     1       4.625   4.320  23.875  0.00  0.00    -0.309 N 
ATOM     31  H   UNL     1       4.378   4.103  24.832  0.00  0.00    +0.149 HD
ATOM     32  O   UNL     1       6.356   4.238  22.361  0.00  0.00    -0.274 OA
BRANCH  30  33
ATOM     33  C   UNL     1       3.542   4.768  22.998  0.00  0.00    +0.026 C 
ATOM     34  C   UNL     1       3.907   6.085  22.299  0.00  0.00    +0.031 C 
ATOM     35  C   UNL     1       2.312   5.014  23.893  0.00  0.00    +0.031 C 
ATOM     36  C   UNL     1       3.194   3.689  21.962  0.00  0.00    +0.031 C 
ENDBRANCH  30  33
ENDBRANCH  20  29
ENDBRANCH  18  19
ENDBRANCH  15  18
ENDBRANCH   1  15
BRANCH   1  37
ATOM     37  C   UNL     1       6.388  -0.648  27.407  0.00  0.00    +0.099 C 
BRANCH  37  38
ATOM     38  S   UNL     1       8.174  -0.484  26.943  0.00  0.00    -0.123 S 
BRANCH  38  39
ATOM     39  C   UNL     1       8.509  -2.051  26.149  0.00  0.00    +0.008 A 
ATOM     40  C   UNL     1       9.045  -2.025  24.860  0.00  0.00    +0.015 A 
ATOM     41  C   UNL     1       9.168  -3.199  24.114  0.00  0.00    +0.001 A 
ATOM     42  C   UNL     1       8.758  -4.416  24.655  0.00  0.00    +0.000 A 
ATOM     43  C   UNL     1       8.232  -4.458  25.946  0.00  0.00    +0.001 A 
ATOM     44  C   UNL     1       8.101  -3.277  26.693  0.00  0.00    +0.015 A 
ENDBRANCH  38  39
ENDBRANCH  37  38
ENDBRANCH   1  37
TORSDOF 12
ENDMDL
MODEL 6
REMARK VINA RESULT:      -6.7      2.776      8.099
REMARK  Name = 
REMARK  16 active torsions:
REMARK  status: ('A' for Active; 'I' for Inactive)
REMARK    1  A    between atoms: C_1  and  C_2
REMARK    2  A    between atoms: C_3  and  C_9
REMARK    3  A    between atoms: C_7  and  O_8
REMARK    4  A    between atoms: N_11  and  C_12
REMARK    5  A    between atoms: C_12  and  C_13
REMARK    6  A    between atoms: C_12  and  C_21
REMARK    7  A    between atoms: C_13  and  S_14
REMARK    8  A    between atoms: S_14  and  C_15
REMARK    9  A    between atoms: C_21  and  C_22
REMARK   10  A    between atoms: C_21  and  O_42
REMARK   11  A    between atoms: C_22  and  N_23
REMARK   12  A    between atoms: C_34  and  C_35
REMARK   13  A    between atoms: N_37  and  C_38
REMARK   14  A    between atoms: C_38  and  C_39
REMARK   15  A    between atoms: C_38  and  C_40
REMARK   16  A    between atoms: C_38  and  C_41
REMARK                            x       y       z     vdW  Elec       q    Type
REMARK                         _______ _______ _______ _____ _____    ______ ____
ROOT
ATOM      1  C   UNL     1       5.570   0.828  26.832  0.00  0.00    +0.113 C 
ENDROOT
BRANCH   1   3
ATOM      2  C   UNL     1       7.692   0.355  25.436  0.00  0.00    +0.245 C 
ATOM      3  N   UNL     1       6.377   0.787  25.539  0.00  0.00    -0.305 N 
ATOM      4  H   UNL     1       5.906   1.045  24.680  0.00  0.00    +0.149 HD
ATOM      5  O   UNL     1       8.336  -0.076  26.387  0.00  0.00    -0.270 OA
BRANCH   2  12
ATOM      6  C   UNL     1       9.375   2.662  24.143  0.00  0.00    +0.048 C 
ATOM      7  C   UNL     1       9.084   1.357  23.466  0.00  0.00    +0.003 A 
ATOM      8  C   UNL     1       9.612   1.157  22.165  0.00  0.00    +0.120 A 
ATOM      9  C   UNL     1       9.516  -0.065  21.503  0.00  0.00    +0.046 A 
ATOM     10  C   UNL     1       8.885  -1.121  22.139  0.00  0.00    +0.004 A 
ATOM     11  C   UNL     1       8.314  -0.932  23.409  0.00  0.00    +0.013 A 
ATOM     12  C   UNL     1       8.353   0.315  24.072  0.00  0.00    +0.043 A 
BRANCH   8  13
ATOM     13  O   UNL     1      10.250   2.200  21.542  0.00  0.00    -0.506 OA
ATOM     14  H   UNL     1      10.426   2.899  22.194  0.00  0.00    +0.292 HD
ENDBRANCH   8  13
ENDBRANCH   2  12
ENDBRANCH   1   3
BRANCH   1  15
ATOM     15  C   UNL     1       4.191   0.061  26.748  0.00  0.00    +0.149 C 
BRANCH  15  16
ATOM     16  O   UNL     1       3.230   0.413  27.752  0.00  0.00    -0.389 OA
ATOM     17  H   UNL     1       2.477   0.829  27.294  0.00  0.00    +0.210 HD
ENDBRANCH  15  16
BRANCH  15  18
ATOM     18  C   UNL     1       4.219  -1.480  26.711  0.00  0.00    +0.118 C 
BRANCH  18  19
ATOM     19  N   UNL     1       5.317  -2.182  26.019  0.00  0.00    -0.289 NA
ATOM     20  C   UNL     1       4.732  -2.976  24.914  0.00  0.00    +0.143 C 
ATOM     21  C   UNL     1       5.786  -3.535  23.976  0.00  0.00    +0.032 C 
ATOM     22  C   UNL     1       6.829  -4.348  24.727  0.00  0.00    -0.005 C 
ATOM     23  C   UNL     1       7.412  -3.520  25.887  0.00  0.00    +0.006 C 
ATOM     24  C   UNL     1       8.477  -4.360  26.618  0.00  0.00    +0.005 C 
ATOM     25  C   UNL     1       9.569  -4.840  25.645  0.00  0.00    +0.000 C 
ATOM     26  C   UNL     1       9.001  -5.592  24.444  0.00  0.00    +0.000 C 
ATOM     27  C   UNL     1       7.921  -4.782  23.746  0.00  0.00    +0.004 C 
ATOM     28  C   UNL     1       6.292  -2.951  26.812  0.00  0.00    +0.089 C 
BRANCH  20  29
ATOM     29  C   UNL     1       3.741  -4.098  25.353  0.00  0.00    +0.231 C 
ATOM     30  N   UNL     1       2.905  -4.461  24.318  0.00  0.00    -0.309 N 
ATOM     31  H   UNL     1       2.985  -3.932  23.459  0.00  0.00    +0.149 HD
ATOM     32  O   UNL     1       3.726  -4.615  26.463  0.00  0.00    -0.274 OA
BRANCH  30  33
ATOM     33  C   UNL     1       1.841  -5.465  24.381  0.00  0.00    +0.026 C 
ATOM     34  C   UNL     1       2.414  -6.856  24.686  0.00  0.00    +0.031 C 
ATOM     35  C   UNL     1       1.179  -5.504  22.991  0.00  0.00    +0.031 C 
ATOM     36  C   UNL     1       0.784  -5.078  25.425  0.00  0.00    +0.031 C 
ENDBRANCH  30  33
ENDBRANCH  20  29
ENDBRANCH  18  19
ENDBRANCH  15  18
ENDBRANCH   1  15
BRANCH   1  37
ATOM     37  C   UNL     1       5.326   2.327  27.238  0.00  0.00    +0.099 C 
BRANCH  37  38
ATOM     38  S   UNL     1       6.855   3.260  27.710  0.00  0.00    -0.123 S 
BRANCH  38  39
ATOM     39  C   UNL     1       7.008   4.444  26.379  0.00  0.00    +0.008 A 
ATOM     40  C   UNL     1       6.168   4.294  25.274  0.00  0.00    +0.015 A 
ATOM     41  C   UNL     1       6.350   5.070  24.128  0.00  0.00    +0.001 A 
ATOM     42  C   UNL     1       7.377   6.010  24.076  0.00  0.00    +0.000 A 
ATOM     43  C   UNL     1       8.217   6.180  25.177  0.00  0.00    +0.001 A 
ATOM     44  C   UNL     1       8.038   5.395  26.327  0.00  0.00    +0.015 A 
ENDBRANCH  38  39
ENDBRANCH  37  38
ENDBRANCH   1  37
TORSDOF 12
ENDMDL
MODEL 7
REMARK VINA RESULT:      -6.6      2.627      8.745
REMARK  Name = 
REMARK  16 active torsions:
REMARK  status: ('A' for Active; 'I' for Inactive)
REMARK    1  A    between atoms: C_1  and  C_2
REMARK    2  A    between atoms: C_3  and  C_9
REMARK    3  A    between atoms: C_7  and  O_8
REMARK    4  A    between atoms: N_11  and  C_12
REMARK    5  A    between atoms: C_12  and  C_13
REMARK    6  A    between atoms: C_12  and  C_21
REMARK    7  A    between atoms: C_13  and  S_14
REMARK    8  A    between atoms: S_14  and  C_15
REMARK    9  A    between atoms: C_21  and  C_22
REMARK   10  A    between atoms: C_21  and  O_42
REMARK   11  A    between atoms: C_22  and  N_23
REMARK   12  A    between atoms: C_34  and  C_35
REMARK   13  A    between atoms: N_37  and  C_38
REMARK   14  A    between atoms: C_38  and  C_39
REMARK   15  A    between atoms: C_38  and  C_40
REMARK   16  A    between atoms: C_38  and  C_41
REMARK                            x       y       z     vdW  Elec       q    Type
REMARK                         _______ _______ _______ _____ _____    ______ ____
ROOT
ATOM      1  C   UNL     1       6.156   0.508  27.091  0.00  0.00    +0.113 C 
ENDROOT
BRANCH   1   3
ATOM      2  C   UNL     1       6.803   2.820  26.135  0.00  0.00    +0.245 C 
ATOM      3  N   UNL     1       6.309   1.533  25.972  0.00  0.00    -0.305 N 
ATOM      4  H   UNL     1       6.084   1.239  25.030  0.00  0.00    +0.149 HD
ATOM      5  O   UNL     1       7.203   3.257  27.209  0.00  0.00    -0.270 OA
BRANCH   2  12
ATOM      6  C   UNL     1       4.457   4.091  24.489  0.00  0.00    +0.048 C 
ATOM      7  C   UNL     1       5.907   4.263  24.152  0.00  0.00    +0.003 A 
ATOM      8  C   UNL     1       6.231   5.059  23.022  0.00  0.00    +0.120 A 
ATOM      9  C   UNL     1       7.544   5.394  22.700  0.00  0.00    +0.046 A 
ATOM     10  C   UNL     1       8.569   4.936  23.513  0.00  0.00    +0.004 A 
ATOM     11  C   UNL     1       8.274   4.108  24.610  0.00  0.00    +0.013 A 
ATOM     12  C   UNL     1       6.954   3.713  24.919  0.00  0.00    +0.043 A 
BRANCH   8  13
ATOM     13  O   UNL     1       5.214   5.524  22.228  0.00  0.00    -0.506 OA
ATOM     14  H   UNL     1       4.863   4.789  21.698  0.00  0.00    +0.292 HD
ENDBRANCH   8  13
ENDBRANCH   2  12
ENDBRANCH   1   3
BRANCH   1  15
ATOM     15  C   UNL     1       7.403  -0.448  27.258  0.00  0.00    +0.149 C 
BRANCH  15  16
ATOM     16  O   UNL     1       8.408   0.008  28.173  0.00  0.00    -0.389 OA
ATOM     17  H   UNL     1       9.176   0.285  27.641  0.00  0.00    +0.210 HD
ENDBRANCH  15  16
BRANCH  15  18
ATOM     18  C   UNL     1       8.156  -0.886  25.987  0.00  0.00    +0.118 C 
BRANCH  18  19
ATOM     19  N   UNL     1       7.795  -2.150  25.314  0.00  0.00    -0.289 NA
ATOM     20  C   UNL     1       8.993  -2.650  24.601  0.00  0.00    +0.143 C 
ATOM     21  C   UNL     1       8.817  -4.067  24.087  0.00  0.00    +0.032 C 
ATOM     22  C   UNL     1       7.580  -4.194  23.212  0.00  0.00    -0.005 C 
ATOM     23  C   UNL     1       6.346  -3.649  23.956  0.00  0.00    +0.006 C 
ATOM     24  C   UNL     1       5.107  -3.808  23.054  0.00  0.00    +0.005 C 
ATOM     25  C   UNL     1       4.919  -5.273  22.622  0.00  0.00    +0.000 C 
ATOM     26  C   UNL     1       6.163  -5.857  21.957  0.00  0.00    +0.000 C 
ATOM     27  C   UNL     1       7.395  -5.664  22.826  0.00  0.00    +0.004 C 
ATOM     28  C   UNL     1       6.581  -2.199  24.481  0.00  0.00    +0.089 C 
BRANCH  20  29
ATOM     29  C   UNL     1       9.530  -1.721  23.468  0.00  0.00    +0.231 C 
ATOM     30  N   UNL     1       8.786  -0.563  23.377  0.00  0.00    -0.309 N 
ATOM     31  H   UNL     1       7.978  -0.489  23.980  0.00  0.00    +0.149 HD
ATOM     32  O   UNL     1      10.504  -1.970  22.771  0.00  0.00    -0.274 OA
BRANCH  30  33
ATOM     33  C   UNL     1       8.994   0.521  22.414  0.00  0.00    +0.026 C 
ATOM     34  C   UNL     1       7.712   1.343  22.224  0.00  0.00    +0.031 C 
ATOM     35  C   UNL     1       9.357  -0.138  21.069  0.00  0.00    +0.031 C 
ATOM     36  C   UNL     1      10.154   1.427  22.851  0.00  0.00    +0.031 C 
ENDBRANCH  30  33
ENDBRANCH  20  29
ENDBRANCH  18  19
ENDBRANCH  15  18
ENDBRANCH   1  15
BRANCH   1  37
ATOM     37  C   UNL     1       4.859  -0.343  26.834  0.00  0.00    +0.099 C 
BRANCH  37  38
ATOM     38  S   UNL     1       4.425  -1.524  28.194  0.00  0.00    -0.123 S 
BRANCH  38  39
ATOM     39  C   UNL     1       4.628  -3.114  27.402  0.00  0.00    +0.008 A 
ATOM     40  C   UNL     1       3.560  -3.607  26.650  0.00  0.00    +0.015 A 
ATOM     41  C   UNL     1       3.581  -4.911  26.151  0.00  0.00    +0.001 A 
ATOM     42  C   UNL     1       4.676  -5.736  26.398  0.00  0.00    +0.000 A 
ATOM     43  C   UNL     1       5.755  -5.253  27.137  0.00  0.00    +0.001 A 
ATOM     44  C   UNL     1       5.732  -3.945  27.645  0.00  0.00    +0.015 A 
ENDBRANCH  38  39
ENDBRANCH  37  38
ENDBRANCH   1  37
TORSDOF 12
ENDMDL
MODEL 8
REMARK VINA RESULT:      -6.6      2.747      7.621
REMARK  Name = 
REMARK  16 active torsions:
REMARK  status: ('A' for Active; 'I' for Inactive)
REMARK    1  A    between atoms: C_1  and  C_2
REMARK    2  A    between atoms: C_3  and  C_9
REMARK    3  A    between atoms: C_7  and  O_8
REMARK    4  A    between atoms: N_11  and  C_12
REMARK    5  A    between atoms: C_12  and  C_13
REMARK    6  A    between atoms: C_12  and  C_21
REMARK    7  A    between atoms: C_13  and  S_14
REMARK    8  A    between atoms: S_14  and  C_15
REMARK    9  A    between atoms: C_21  and  C_22
REMARK   10  A    between atoms: C_21  and  O_42
REMARK   11  A    between atoms: C_22  and  N_23
REMARK   12  A    between atoms: C_34  and  C_35
REMARK   13  A    between atoms: N_37  and  C_38
REMARK   14  A    between atoms: C_38  and  C_39
REMARK   15  A    between atoms: C_38  and  C_40
REMARK   16  A    between atoms: C_38  and  C_41
REMARK                            x       y       z     vdW  Elec       q    Type
REMARK                         _______ _______ _______ _____ _____    ______ ____
ROOT
ATOM      1  C   UNL     1       6.712   2.661  27.995  0.00  0.00    +0.113 C 
ENDROOT
BRANCH   1   3
ATOM      2  C   UNL     1       7.658   3.212  25.655  0.00  0.00    +0.245 C 
ATOM      3  N   UNL     1       6.923   2.400  26.508  0.00  0.00    -0.305 N 
ATOM      4  H   UNL     1       6.544   1.545  26.121  0.00  0.00    +0.149 HD
ATOM      5  O   UNL     1       8.249   4.220  26.027  0.00  0.00    -0.270 OA
BRANCH   2  12
ATOM      6  C   UNL     1      10.392   2.725  24.199  0.00  0.00    +0.048 C 
ATOM      7  C   UNL     1       9.055   2.606  23.533  0.00  0.00    +0.003 A 
ATOM      8  C   UNL     1       9.033   2.242  22.162  0.00  0.00    +0.120 A 
ATOM      9  C   UNL     1       7.846   1.972  21.483  0.00  0.00    +0.046 A 
ATOM     10  C   UNL     1       6.648   2.061  22.172  0.00  0.00    +0.004 A 
ATOM     11  C   UNL     1       6.643   2.465  23.518  0.00  0.00    +0.013 A 
ATOM     12  C   UNL     1       7.832   2.796  24.207  0.00  0.00    +0.043 A 
BRANCH   8  13
ATOM     13  O   UNL     1      10.221   2.140  21.485  0.00  0.00    -0.506 OA
ATOM     14  H   UNL     1      10.345   1.220  21.196  0.00  0.00    +0.292 HD
ENDBRANCH   8  13
ENDBRANCH   2  12
ENDBRANCH   1   3
BRANCH   1  15
ATOM     15  C   UNL     1       6.861   1.373  28.898  0.00  0.00    +0.149 C 
BRANCH  15  16
ATOM     16  O   UNL     1       8.086   1.279  29.636  0.00  0.00    -0.389 OA
ATOM     17  H   UNL     1       8.420   2.187  29.754  0.00  0.00    +0.210 HD
ENDBRANCH  15  16
BRANCH  15  18
ATOM     18  C   UNL     1       6.659  -0.004  28.235  0.00  0.00    +0.118 C 
BRANCH  18  19
ATOM     19  N   UNL     1       7.013  -0.200  26.816  0.00  0.00    -0.289 NA
ATOM     20  C   UNL     1       5.982  -1.065  26.199  0.00  0.00    +0.143 C 
ATOM     21  C   UNL     1       6.100  -1.126  24.687  0.00  0.00    +0.032 C 
ATOM     22  C   UNL     1       7.492  -1.557  24.252  0.00  0.00    -0.005 C 
ATOM     23  C   UNL     1       8.556  -0.665  24.919  0.00  0.00    +0.006 C 
ATOM     24  C   UNL     1       9.952  -1.113  24.446  0.00  0.00    +0.005 C 
ATOM     25  C   UNL     1      10.054  -1.083  22.911  0.00  0.00    +0.000 C 
ATOM     26  C   UNL     1       8.955  -1.894  22.230  0.00  0.00    +0.000 C 
ATOM     27  C   UNL     1       7.578  -1.484  22.725  0.00  0.00    +0.004 C 
ATOM     28  C   UNL     1       8.383  -0.618  26.468  0.00  0.00    +0.089 C 
BRANCH  20  29
ATOM     29  C   UNL     1       5.873  -2.502  26.797  0.00  0.00    +0.231 C 
ATOM     30  N   UNL     1       4.557  -2.863  26.995  0.00  0.00    -0.309 N 
ATOM     31  H   UNL     1       3.856  -2.160  26.803  0.00  0.00    +0.149 HD
ATOM     32  O   UNL     1       6.829  -3.230  27.030  0.00  0.00    -0.274 OA
BRANCH  30  33
ATOM     33  C   UNL     1       4.087  -4.130  27.559  0.00  0.00    +0.026 C 
ATOM     34  C   UNL     1       4.612  -5.323  26.748  0.00  0.00    +0.031 C 
ATOM     35  C   UNL     1       2.549  -4.117  27.470  0.00  0.00    +0.031 C 
ATOM     36  C   UNL     1       4.498  -4.260  29.033  0.00  0.00    +0.031 C 
ENDBRANCH  30  33
ENDBRANCH  20  29
ENDBRANCH  18  19
ENDBRANCH  15  18
ENDBRANCH   1  15
BRANCH   1  37
ATOM     37  C   UNL     1       5.291   3.303  28.207  0.00  0.00    +0.099 C 
BRANCH  37  38
ATOM     38  S   UNL     1       3.924   2.486  27.261  0.00  0.00    -0.123 S 
BRANCH  38  39
ATOM     39  C   UNL     1       3.785   3.525  25.812  0.00  0.00    +0.008 A 
ATOM     40  C   UNL     1       3.171   2.985  24.680  0.00  0.00    +0.015 A 
ATOM     41  C   UNL     1       3.184   3.672  23.465  0.00  0.00    +0.001 A 
ATOM     42  C   UNL     1       3.811   4.912  23.370  0.00  0.00    +0.000 A 
ATOM     43  C   UNL     1       4.419   5.469  24.496  0.00  0.00    +0.001 A 
ATOM     44  C   UNL     1       4.412   4.776  25.716  0.00  0.00    +0.015 A 
ENDBRANCH  38  39
ENDBRANCH  37  38
ENDBRANCH   1  37
TORSDOF 12
ENDMDL
MODEL 9
REMARK VINA RESULT:      -6.6      3.030      6.122
REMARK  Name = 
REMARK  16 active torsions:
REMARK  status: ('A' for Active; 'I' for Inactive)
REMARK    1  A    between atoms: C_1  and  C_2
REMARK    2  A    between atoms: C_3  and  C_9
REMARK    3  A    between atoms: C_7  and  O_8
REMARK    4  A    between atoms: N_11  and  C_12
REMARK    5  A    between atoms: C_12  and  C_13
REMARK    6  A    between atoms: C_12  and  C_21
REMARK    7  A    between atoms: C_13  and  S_14
REMARK    8  A    between atoms: S_14  and  C_15
REMARK    9  A    between atoms: C_21  and  C_22
REMARK   10  A    between atoms: C_21  and  O_42
REMARK   11  A    between atoms: C_22  and  N_23
REMARK   12  A    between atoms: C_34  and  C_35
REMARK   13  A    between atoms: N_37  and  C_38
REMARK   14  A    between atoms: C_38  and  C_39
REMARK   15  A    between atoms: C_38  and  C_40
REMARK   16  A    between atoms: C_38  and  C_41
REMARK                            x       y       z     vdW  Elec       q    Type
REMARK                         _______ _______ _______ _____ _____    ______ ____
ROOT
ATOM      1  C   UNL     1       6.751  -4.622  27.062  0.00  0.00    +0.113 C 
ENDROOT
BRANCH   1   3
ATOM      2  C   UNL     1       4.744  -3.338  28.062  0.00  0.00    +0.245 C 
ATOM      3  N   UNL     1       5.697  -3.520  27.069  0.00  0.00    -0.305 N 
ATOM      4  H   UNL     1       5.723  -2.838  26.321  0.00  0.00    +0.149 HD
ATOM      5  O   UNL     1       4.677  -4.038  29.067  0.00  0.00    -0.270 OA
BRANCH   2  12
ATOM      6  C   UNL     1       2.212  -3.172  26.221  0.00  0.00    +0.048 C 
ATOM      7  C   UNL     1       2.670  -2.063  27.118  0.00  0.00    +0.003 A 
ATOM      8  C   UNL     1       1.900  -0.871  27.138  0.00  0.00    +0.120 A 
ATOM      9  C   UNL     1       2.158   0.167  28.031  0.00  0.00    +0.046 A 
ATOM     10  C   UNL     1       3.200   0.027  28.933  0.00  0.00    +0.004 A 
ATOM     11  C   UNL     1       4.003  -1.125  28.901  0.00  0.00    +0.013 A 
ATOM     12  C   UNL     1       3.792  -2.162  27.965  0.00  0.00    +0.043 A 
BRANCH   8  13
ATOM     13  O   UNL     1       0.859  -0.741  26.253  0.00  0.00    -0.506 OA
ATOM     14  H   UNL     1       0.039  -1.035  26.683  0.00  0.00    +0.292 HD
ENDBRANCH   8  13
ENDBRANCH   2  12
ENDBRANCH   1   3
BRANCH   1  15
ATOM     15  C   UNL     1       8.093  -4.217  26.331  0.00  0.00    +0.149 C 
BRANCH  15  16
ATOM     16  O   UNL     1       9.233  -5.025  26.650  0.00  0.00    -0.389 OA
ATOM     17  H   UNL     1       9.976  -4.698  26.110  0.00  0.00    +0.210 HD
ENDBRANCH  15  16
BRANCH  15  18
ATOM     18  C   UNL     1       8.565  -2.754  26.440  0.00  0.00    +0.118 C 
BRANCH  18  19
ATOM     19  N   UNL     1       7.576  -1.660  26.475  0.00  0.00    -0.289 NA
ATOM     20  C   UNL     1       7.217  -1.319  25.079  0.00  0.00    +0.143 C 
ATOM     21  C   UNL     1       6.023  -0.386  24.994  0.00  0.00    +0.032 C 
ATOM     22  C   UNL     1       6.239   0.875  25.816  0.00  0.00    -0.005 C 
ATOM     23  C   UNL     1       6.634   0.507  27.259  0.00  0.00    +0.006 C 
ATOM     24  C   UNL     1       6.828   1.801  28.071  0.00  0.00    +0.005 C 
ATOM     25  C   UNL     1       5.565   2.680  28.025  0.00  0.00    +0.000 C 
ATOM     26  C   UNL     1       5.110   2.986  26.600  0.00  0.00    +0.000 C 
ATOM     27  C   UNL     1       4.958   1.713  25.784  0.00  0.00    +0.004 C 
ATOM     28  C   UNL     1       7.853  -0.466  27.294  0.00  0.00    +0.089 C 
BRANCH  20  29
ATOM     29  C   UNL     1       8.391  -0.783  24.202  0.00  0.00    +0.231 C 
ATOM     30  N   UNL     1       7.951   0.162  23.299  0.00  0.00    -0.309 N 
ATOM     31  H   UNL     1       6.955   0.336  23.268  0.00  0.00    +0.149 HD
ATOM     32  O   UNL     1       9.559  -1.131  24.319  0.00  0.00    -0.274 OA
BRANCH  30  33
ATOM     33  C   UNL     1       8.775   0.858  22.309  0.00  0.00    +0.026 C 
ATOM     34  C   UNL     1       9.431  -0.136  21.342  0.00  0.00    +0.031 C 
ATOM     35  C   UNL     1       9.886   1.590  23.086  0.00  0.00    +0.031 C 
ATOM     36  C   UNL     1       7.945   1.893  21.535  0.00  0.00    +0.031 C 
ENDBRANCH  30  33
ENDBRANCH  20  29
ENDBRANCH  18  19
ENDBRANCH  15  18
ENDBRANCH   1  15
BRANCH   1  37
ATOM     37  C   UNL     1       6.144  -5.910  26.395  0.00  0.00    +0.099 C 
BRANCH  37  38
ATOM     38  S   UNL     1       4.629  -5.612  25.372  0.00  0.00    -0.123 S 
BRANCH  38  39
ATOM     39  C   UNL     1       5.307  -4.890  23.883  0.00  0.00    +0.008 A 
ATOM     40  C   UNL     1       6.416  -5.513  23.305  0.00  0.00    +0.015 A 
ATOM     41  C   UNL     1       7.102  -4.911  22.249  0.00  0.00    +0.001 A 
ATOM     42  C   UNL     1       6.683  -3.677  21.755  0.00  0.00    +0.000 A 
ATOM     43  C   UNL     1       5.570  -3.049  22.315  0.00  0.00    +0.001 A 
ATOM     44  C   UNL     1       4.884  -3.651  23.381  0.00  0.00    +0.015 A 
ENDBRANCH  38  39
ENDBRANCH  37  38
ENDBRANCH   1  37
TORSDOF 12
ENDMDL
