MODEL 1
REMARK VINA RESULT:      -6.4      0.000      0.000
REMARK  Name = 
REMARK  27 active torsions:
REMARK  status: ('A' for Active; 'I' for Inactive)
REMARK    1  A    between atoms: C_1  and  C_2
REMARK    2  A    between atoms: C_2  and  C_3
REMARK    3  A    between atoms: C_2  and  C_4
REMARK    4  A    between atoms: C_2  and  C_5
REMARK    5  A    between atoms: C_5  and  C_7
REMARK    6  A    between atoms: C_5  and  N_51
REMARK    7  A    between atoms: N_9  and  C_10
REMARK    8  A    between atoms: C_10  and  C_12
REMARK    9  A    between atoms: C_10  and  C_19
REMARK   10  A    between atoms: C_12  and  C_13
REMARK   11  A    between atoms: C_19  and  C_21
REMARK   12  A    between atoms: C_19  and  O_50
REMARK   13  A    between atoms: C_21  and  N_22
REMARK   14  A    between atoms: N_22  and  C_23
REMARK   15  A    between atoms: N_22  and  N_36
REMARK   16  A    between atoms: C_23  and  C_24
REMARK   17  A    between atoms: C_27  and  C_30
REMARK   18  A    between atoms: C_37  and  C_39
REMARK   19  A    between atoms: C_39  and  C_41
REMARK   20  A    between atoms: C_39  and  N_45
REMARK   21  A    between atoms: C_41  and  C_42
REMARK   22  A    between atoms: C_41  and  C_43
REMARK   23  A    between atoms: C_41  and  C_44
REMARK   24  A    between atoms: C_46  and  O_48
REMARK   25  A    between atoms: O_48  and  C_49
REMARK   26  A    between atoms: C_52  and  O_54
REMARK   27  A    between atoms: O_54  and  C_55
REMARK                            x       y       z     vdW  Elec       q    Type
REMARK                         _______ _______ _______ _____ _____    ______ ____
ROOT
ATOM      1  N   UNL     1       7.768  -1.851  22.420  0.00  0.00    -0.220 NA
ENDROOT
BRANCH   1   2
ATOM      2  N   UNL     1       7.219  -2.776  23.425  0.00  0.00    -0.246 N 
ATOM      3  H   UNL     1       7.834  -3.156  24.147  0.00  0.00    +0.169 HD
ATOM      4  C   UNL     1       5.965  -3.355  23.215  0.00  0.00    +0.248 C 
ATOM      5  O   UNL     1       5.304  -3.155  22.194  0.00  0.00    -0.272 OA
BRANCH   4   6
ATOM      6  C   UNL     1       5.455  -4.295  24.370  0.00  0.00    +0.169 C 
BRANCH   6   7
ATOM      7  C   UNL     1       4.830  -5.643  23.844  0.00  0.00    -0.011 C 
ATOM      8  C   UNL     1       3.406  -5.370  23.323  0.00  0.00    +0.013 C 
ATOM      9  C   UNL     1       4.706  -6.681  24.987  0.00  0.00    +0.013 C 
ATOM     10  C   UNL     1       5.664  -6.313  22.730  0.00  0.00    +0.013 C 
ENDBRANCH   6   7
BRANCH   6  11
ATOM     11  N   UNL     1       6.505  -4.554  25.352  0.00  0.00    -0.269 N 
ATOM     12  H   UNL     1       7.197  -5.275  25.201  0.00  0.00    +0.153 HD
ATOM     13  C   UNL     1       6.730  -3.752  26.422  0.00  0.00    +0.401 C 
ATOM     14  O   UNL     1       6.120  -2.717  26.654  0.00  0.00    -0.226 OA
BRANCH  13  15
ATOM     15  O   UNL     1       7.725  -4.275  27.175  0.00  0.00    -0.454 OA
ATOM     16  C   UNL     1       8.960  -4.446  26.479  0.00  0.00    +0.282 C 
ENDBRANCH  13  15
ENDBRANCH   6  11
ENDBRANCH   4   6
ENDBRANCH   1   2
BRANCH   1  17
ATOM     17  C   UNL     1       7.105  -0.519  22.608  0.00  0.00    +0.139 C 
BRANCH  17  18
ATOM     18  C   UNL     1       6.530   0.074  23.955  0.00  0.00    +0.151 C 
BRANCH  18  19
ATOM     19  O   UNL     1       7.289  -0.477  25.047  0.00  0.00    -0.389 OA
ATOM     20  H   UNL     1       8.182  -0.096  24.936  0.00  0.00    +0.210 HD
ENDBRANCH  18  19
BRANCH  18  21
ATOM     21  C   UNL     1       6.365   1.626  24.140  0.00  0.00    +0.107 C 
BRANCH  21  23
ATOM     22  C   UNL     1       6.018   2.282  26.628  0.00  0.00    +0.234 C 
ATOM     23  N   UNL     1       5.576   2.088  25.344  0.00  0.00    -0.308 N 
ATOM     24  H   UNL     1       4.563   2.021  25.251  0.00  0.00    +0.149 HD
ATOM     25  O   UNL     1       7.189   2.057  26.940  0.00  0.00    -0.274 OA
BRANCH  22  26
ATOM     26  C   UNL     1       5.004   2.847  27.713  0.00  0.00    +0.167 C 
BRANCH  26  28
ATOM     27  C   UNL     1       3.341   4.803  27.082  0.00  0.00    +0.013 C 
ATOM     28  C   UNL     1       4.679   4.393  27.736  0.00  0.00    -0.011 C 
ATOM     29  C   UNL     1       4.622   4.902  29.207  0.00  0.00    +0.013 C 
ATOM     30  C   UNL     1       5.810   5.168  27.035  0.00  0.00    +0.013 C 
ENDBRANCH  26  28
BRANCH  26  31
ATOM     31  N   UNL     1       3.836   1.996  27.929  0.00  0.00    -0.269 N 
ATOM     32  H   UNL     1       3.132   1.975  27.213  0.00  0.00    +0.153 HD
ATOM     33  C   UNL     1       3.883   0.864  28.682  0.00  0.00    +0.401 C 
ATOM     34  O   UNL     1       4.760   0.605  29.491  0.00  0.00    -0.226 OA
BRANCH  33  35
ATOM     35  O   UNL     1       2.885   0.036  28.299  0.00  0.00    -0.454 OA
ATOM     36  C   UNL     1       3.265  -1.339  28.284  0.00  0.00    +0.282 C 
ENDBRANCH  33  35
ENDBRANCH  26  31
ENDBRANCH  22  26
ENDBRANCH  21  23
BRANCH  21  37
ATOM     37  C   UNL     1       6.036   2.462  22.859  0.00  0.00    +0.060 C 
BRANCH  37  38
ATOM     38  C   UNL     1       6.169   3.965  22.657  0.00  0.00    -0.046 A 
ATOM     39  C   UNL     1       5.222   4.775  23.343  0.00  0.00    +0.004 A 
ATOM     40  C   UNL     1       5.303   6.169  23.351  0.00  0.00    +0.000 A 
ATOM     41  C   UNL     1       6.329   6.797  22.664  0.00  0.00    +0.000 A 
ATOM     42  C   UNL     1       7.241   6.022  21.936  0.00  0.00    +0.000 A 
ATOM     43  C   UNL     1       7.161   4.623  21.931  0.00  0.00    +0.004 A 
ENDBRANCH  37  38
ENDBRANCH  21  37
ENDBRANCH  18  21
ENDBRANCH  17  18
ENDBRANCH   1  17
BRANCH   1  44
ATOM     44  C   UNL     1       9.263  -1.824  22.483  0.00  0.00    +0.140 C 
BRANCH  44  45
ATOM     45  C   UNL     1       9.865  -0.428  22.740  0.00  0.00    -0.032 A 
ATOM     46  C   UNL     1       9.731   0.615  21.812  0.00  0.00    +0.005 A 
ATOM     47  C   UNL     1      10.002   1.949  22.179  0.00  0.00    +0.010 A 
ATOM     48  C   UNL     1      10.410   2.295  23.483  0.00  0.00    +0.000 A 
ATOM     49  C   UNL     1      10.772   1.212  24.305  0.00  0.00    +0.010 A 
ATOM     50  C   UNL     1      10.514  -0.120  23.940  0.00  0.00    +0.005 A 
BRANCH  48  51
ATOM     51  C   UNL     1      10.275   3.696  24.005  0.00  0.00    +0.071 A 
ATOM     52  N   UNL     1      11.103   4.635  23.473  0.00  0.00    -0.255 NA
ATOM     53  C   UNL     1      10.804   5.947  23.672  0.00  0.00    +0.111 A 
ATOM     54  C   UNL     1       9.717   6.400  24.392  0.00  0.00    +0.020 A 
ATOM     55  C   UNL     1       8.923   5.449  25.006  0.00  0.00    +0.004 A 
ATOM     56  C   UNL     1       9.206   4.097  24.818  0.00  0.00    +0.028 A 
ENDBRANCH  48  51
ENDBRANCH  44  45
ENDBRANCH   1  44
TORSDOF 19
ENDMDL
MODEL 2
REMARK VINA RESULT:      -6.3      1.380      2.330
REMARK  Name = 
REMARK  27 active torsions:
REMARK  status: ('A' for Active; 'I' for Inactive)
REMARK    1  A    between atoms: C_1  and  C_2
REMARK    2  A    between atoms: C_2  and  C_3
REMARK    3  A    between atoms: C_2  and  C_4
REMARK    4  A    between atoms: C_2  and  C_5
REMARK    5  A    between atoms: C_5  and  C_7
REMARK    6  A    between atoms: C_5  and  N_51
REMARK    7  A    between atoms: N_9  and  C_10
REMARK    8  A    between atoms: C_10  and  C_12
REMARK    9  A    between atoms: C_10  and  C_19
REMARK   10  A    between atoms: C_12  and  C_13
REMARK   11  A    between atoms: C_19  and  C_21
REMARK   12  A    between atoms: C_19  and  O_50
REMARK   13  A    between atoms: C_21  and  N_22
REMARK   14  A    between atoms: N_22  and  C_23
REMARK   15  A    between atoms: N_22  and  N_36
REMARK   16  A    between atoms: C_23  and  C_24
REMARK   17  A    between atoms: C_27  and  C_30
REMARK   18  A    between atoms: C_37  and  C_39
REMARK   19  A    between atoms: C_39  and  C_41
REMARK   20  A    between atoms: C_39  and  N_45
REMARK   21  A    between atoms: C_41  and  C_42
REMARK   22  A    between atoms: C_41  and  C_43
REMARK   23  A    between atoms: C_41  and  C_44
REMARK   24  A    between atoms: C_46  and  O_48
REMARK   25  A    between atoms: O_48  and  C_49
REMARK   26  A    between atoms: C_52  and  O_54
REMARK   27  A    between atoms: O_54  and  C_55
REMARK                            x       y       z     vdW  Elec       q    Type
REMARK                         _______ _______ _______ _____ _____    ______ ____
ROOT
ATOM      1  N   UNL     1       7.847  -1.774  22.381  0.00  0.00    -0.220 NA
ENDROOT
BRANCH   1   2
ATOM      2  N   UNL     1       7.285  -2.721  23.357  0.00  0.00    -0.246 N 
ATOM      3  H   UNL     1       7.881  -3.085  24.103  0.00  0.00    +0.169 HD
ATOM      4  C   UNL     1       6.061  -3.339  23.091  0.00  0.00    +0.248 C 
ATOM      5  O   UNL     1       5.439  -3.155  22.043  0.00  0.00    -0.272 OA
BRANCH   4   6
ATOM      6  C   UNL     1       5.533  -4.300  24.219  0.00  0.00    +0.169 C 
BRANCH   6   7
ATOM      7  C   UNL     1       5.025  -5.686  23.666  0.00  0.00    -0.011 C 
ATOM      8  C   UNL     1       3.605  -5.512  23.093  0.00  0.00    +0.013 C 
ATOM      9  C   UNL     1       4.932  -6.737  24.801  0.00  0.00    +0.013 C 
ATOM     10  C   UNL     1       5.944  -6.290  22.582  0.00  0.00    +0.013 C 
ENDBRANCH   6   7
BRANCH   6  11
ATOM     11  N   UNL     1       6.529  -4.491  25.270  0.00  0.00    -0.269 N 
ATOM     12  H   UNL     1       7.426  -4.913  25.071  0.00  0.00    +0.153 HD
ATOM     13  C   UNL     1       6.399  -3.969  26.515  0.00  0.00    +0.401 C 
ATOM     14  O   UNL     1       5.473  -3.255  26.874  0.00  0.00    -0.226 OA
BRANCH  13  15
ATOM     15  O   UNL     1       7.447  -4.358  27.277  0.00  0.00    -0.454 OA
ATOM     16  C   UNL     1       8.576  -4.816  26.534  0.00  0.00    +0.282 C 
ENDBRANCH  13  15
ENDBRANCH   6  11
ENDBRANCH   4   6
ENDBRANCH   1   2
BRANCH   1  17
ATOM     17  C   UNL     1       7.090  -0.485  22.499  0.00  0.00    +0.139 C 
BRANCH  17  18
ATOM     18  C   UNL     1       6.474   0.137  23.815  0.00  0.00    +0.151 C 
BRANCH  18  19
ATOM     19  O   UNL     1       7.001  -0.587  24.942  0.00  0.00    -0.389 OA
ATOM     20  H   UNL     1       7.707  -1.146  24.560  0.00  0.00    +0.210 HD
ENDBRANCH  18  19
BRANCH  18  21
ATOM     21  C   UNL     1       6.551   1.684  24.082  0.00  0.00    +0.107 C 
BRANCH  21  23
ATOM     22  C   UNL     1       4.981   1.960  26.131  0.00  0.00    +0.234 C 
ATOM     23  N   UNL     1       6.164   2.157  25.465  0.00  0.00    -0.308 N 
ATOM     24  H   UNL     1       6.747   2.899  25.848  0.00  0.00    +0.149 HD
ATOM     25  O   UNL     1       4.048   1.347  25.607  0.00  0.00    -0.274 OA
BRANCH  22  26
ATOM     26  C   UNL     1       4.838   2.499  27.619  0.00  0.00    +0.167 C 
BRANCH  26  28
ATOM     27  C   UNL     1       5.705   0.160  28.495  0.00  0.00    +0.013 C 
ATOM     28  C   UNL     1       5.434   1.649  28.810  0.00  0.00    -0.011 C 
ATOM     29  C   UNL     1       6.794   2.254  29.268  0.00  0.00    +0.013 C 
ATOM     30  C   UNL     1       4.483   1.715  30.018  0.00  0.00    +0.013 C 
ENDBRANCH  26  28
BRANCH  26  31
ATOM     31  N   UNL     1       5.065   3.937  27.751  0.00  0.00    -0.269 N 
ATOM     32  H   UNL     1       6.009   4.271  27.677  0.00  0.00    +0.153 HD
ATOM     33  C   UNL     1       4.130   4.861  27.403  0.00  0.00    +0.401 C 
ATOM     34  O   UNL     1       2.941   4.625  27.259  0.00  0.00    -0.226 OA
BRANCH  33  35
ATOM     35  O   UNL     1       4.747   6.033  27.127  0.00  0.00    -0.454 OA
ATOM     36  C   UNL     1       3.839   7.105  26.882  0.00  0.00    +0.282 C 
ENDBRANCH  33  35
ENDBRANCH  26  31
ENDBRANCH  22  26
ENDBRANCH  21  23
BRANCH  21  37
ATOM     37  C   UNL     1       6.004   2.625  22.959  0.00  0.00    +0.060 C 
BRANCH  37  38
ATOM     38  C   UNL     1       6.226   4.122  22.795  0.00  0.00    -0.046 A 
ATOM     39  C   UNL     1       5.432   4.966  23.619  0.00  0.00    +0.004 A 
ATOM     40  C   UNL     1       5.618   6.350  23.667  0.00  0.00    +0.000 A 
ATOM     41  C   UNL     1       6.602   6.933  22.883  0.00  0.00    +0.000 A 
ATOM     42  C   UNL     1       7.360   6.128  22.023  0.00  0.00    +0.000 A 
ATOM     43  C   UNL     1       7.174   4.740  21.978  0.00  0.00    +0.004 A 
ENDBRANCH  37  38
ENDBRANCH  21  37
ENDBRANCH  18  21
ENDBRANCH  17  18
ENDBRANCH   1  17
BRANCH   1  44
ATOM     44  C   UNL     1       9.329  -1.650  22.551  0.00  0.00    +0.140 C 
BRANCH  44  45
ATOM     45  C   UNL     1       9.819  -0.221  22.860  0.00  0.00    -0.032 A 
ATOM     46  C   UNL     1       9.838   0.780  21.878  0.00  0.00    +0.005 A 
ATOM     47  C   UNL     1       9.983   2.137  22.230  0.00  0.00    +0.010 A 
ATOM     48  C   UNL     1      10.108   2.549  23.573  0.00  0.00    +0.000 A 
ATOM     49  C   UNL     1      10.334   1.514  24.498  0.00  0.00    +0.010 A 
ATOM     50  C   UNL     1      10.201   0.159  24.149  0.00  0.00    +0.005 A 
BRANCH  48  51
ATOM     51  C   UNL     1       9.823   3.961  23.993  0.00  0.00    +0.071 A 
ATOM     52  N   UNL     1       8.843   4.144  24.919  0.00  0.00    -0.255 NA
ATOM     53  C   UNL     1       8.773   5.343  25.557  0.00  0.00    +0.111 A 
ATOM     54  C   UNL     1       9.625   6.405  25.321  0.00  0.00    +0.020 A 
ATOM     55  C   UNL     1      10.567   6.251  24.320  0.00  0.00    +0.004 A 
ATOM     56  C   UNL     1      10.660   5.032  23.651  0.00  0.00    +0.028 A 
ENDBRANCH  48  51
ENDBRANCH  44  45
ENDBRANCH   1  44
TORSDOF 19
ENDMDL
MODEL 3
REMARK VINA RESULT:      -6.3      2.574      9.041
REMARK  Name = 
REMARK  27 active torsions:
REMARK  status: ('A' for Active; 'I' for Inactive)
REMARK    1  A    between atoms: C_1  and  C_2
REMARK    2  A    between atoms: C_2  and  C_3
REMARK    3  A    between atoms: C_2  and  C_4
REMARK    4  A    between atoms: C_2  and  C_5
REMARK    5  A    between atoms: C_5  and  C_7
REMARK    6  A    between atoms: C_5  and  N_51
REMARK    7  A    between atoms: N_9  and  C_10
REMARK    8  A    between atoms: C_10  and  C_12
REMARK    9  A    between atoms: C_10  and  C_19
REMARK   10  A    between atoms: C_12  and  C_13
REMARK   11  A    between atoms: C_19  and  C_21
REMARK   12  A    between atoms: C_19  and  O_50
REMARK   13  A    between atoms: C_21  and  N_22
REMARK   14  A    between atoms: N_22  and  C_23
REMARK   15  A    between atoms: N_22  and  N_36
REMARK   16  A    between atoms: C_23  and  C_24
REMARK   17  A    between atoms: C_27  and  C_30
REMARK   18  A    between atoms: C_37  and  C_39
REMARK   19  A    between atoms: C_39  and  C_41
REMARK   20  A    between atoms: C_39  and  N_45
REMARK   21  A    between atoms: C_41  and  C_42
REMARK   22  A    between atoms: C_41  and  C_43
REMARK   23  A    between atoms: C_41  and  C_44
REMARK   24  A    between atoms: C_46  and  O_48
REMARK   25  A    between atoms: O_48  and  C_49
REMARK   26  A    between atoms: C_52  and  O_54
REMARK   27  A    between atoms: O_54  and  C_55
REMARK                            x       y       z     vdW  Elec       q    Type
REMARK                         _______ _______ _______ _____ _____    ______ ____
ROOT
ATOM      1  N   UNL     1       4.457   1.052  27.465  0.00  0.00    -0.220 NA
ENDROOT
BRANCH   1   2
ATOM      2  N   UNL     1       4.063   2.160  26.581  0.00  0.00    -0.246 N 
ATOM      3  H   UNL     1       3.324   2.800  26.878  0.00  0.00    +0.169 HD
ATOM      4  C   UNL     1       4.472   2.154  25.245  0.00  0.00    +0.248 C 
ATOM      5  O   UNL     1       5.126   1.230  24.756  0.00  0.00    -0.272 OA
BRANCH   4   6
ATOM      6  C   UNL     1       4.031   3.406  24.400  0.00  0.00    +0.169 C 
BRANCH   6   7
ATOM      7  C   UNL     1       5.226   4.374  24.056  0.00  0.00    -0.011 C 
ATOM      8  C   UNL     1       4.671   5.788  23.792  0.00  0.00    +0.013 C 
ATOM      9  C   UNL     1       5.954   3.922  22.766  0.00  0.00    +0.013 C 
ATOM     10  C   UNL     1       6.299   4.444  25.164  0.00  0.00    +0.013 C 
ENDBRANCH   6   7
BRANCH   6  11
ATOM     11  N   UNL     1       3.315   3.010  23.191  0.00  0.00    -0.269 N 
ATOM     12  H   UNL     1       3.756   2.433  22.486  0.00  0.00    +0.153 HD
ATOM     13  C   UNL     1       1.989   3.229  23.012  0.00  0.00    +0.401 C 
ATOM     14  O   UNL     1       1.250   3.731  23.847  0.00  0.00    -0.226 OA
BRANCH  13  15
ATOM     15  O   UNL     1       1.625   2.803  21.780  0.00  0.00    -0.454 OA
ATOM     16  C   UNL     1       2.186   3.559  20.707  0.00  0.00    +0.282 C 
ENDBRANCH  13  15
ENDBRANCH   6  11
ENDBRANCH   4   6
ENDBRANCH   1   2
BRANCH   1  17
ATOM     17  C   UNL     1       5.562   1.541  28.354  0.00  0.00    +0.139 C 
BRANCH  17  18
ATOM     18  C   UNL     1       7.115   1.381  28.113  0.00  0.00    +0.151 C 
BRANCH  18  19
ATOM     19  O   UNL     1       7.753   1.216  29.392  0.00  0.00    -0.389 OA
ATOM     20  H   UNL     1       7.010   1.146  30.024  0.00  0.00    +0.210 HD
ENDBRANCH  18  19
BRANCH  18  21
ATOM     21  C   UNL     1       7.662   0.317  27.094  0.00  0.00    +0.107 C 
BRANCH  21  23
ATOM     22  C   UNL     1       9.217   0.606  25.035  0.00  0.00    +0.234 C 
ATOM     23  N   UNL     1       8.050   0.822  25.723  0.00  0.00    -0.308 N 
ATOM     24  H   UNL     1       7.488   1.597  25.372  0.00  0.00    +0.149 HD
ATOM     25  O   UNL     1      10.133  -0.056  25.526  0.00  0.00    -0.274 OA
BRANCH  22  26
ATOM     26  C   UNL     1       9.361   1.189  23.564  0.00  0.00    +0.167 C 
BRANCH  26  28
ATOM     27  C   UNL     1       7.404  -0.288  22.576  0.00  0.00    +0.013 C 
ATOM     28  C   UNL     1       8.785   0.364  22.346  0.00  0.00    -0.011 C 
ATOM     29  C   UNL     1       8.633   1.289  21.102  0.00  0.00    +0.013 C 
ATOM     30  C   UNL     1       9.779  -0.747  21.961  0.00  0.00    +0.013 C 
ENDBRANCH  26  28
BRANCH  26  31
ATOM     31  N   UNL     1       9.113   2.626  23.471  0.00  0.00    -0.269 N 
ATOM     32  H   UNL     1       8.216   2.967  23.764  0.00  0.00    +0.153 HD
ATOM     33  C   UNL     1      10.107   3.550  23.573  0.00  0.00    +0.401 C 
ATOM     34  O   UNL     1      11.296   3.307  23.432  0.00  0.00    -0.226 OA
BRANCH  33  35
ATOM     35  O   UNL     1       9.578   4.728  23.972  0.00  0.00    -0.454 OA
ATOM     36  C   UNL     1      10.469   5.830  23.814  0.00  0.00    +0.282 C 
ENDBRANCH  33  35
ENDBRANCH  26  31
ENDBRANCH  22  26
ENDBRANCH  21  23
BRANCH  21  37
ATOM     37  C   UNL     1       6.912  -1.054  27.031  0.00  0.00    +0.060 C 
BRANCH  37  38
ATOM     38  C   UNL     1       6.604  -1.902  25.804  0.00  0.00    -0.046 A 
ATOM     39  C   UNL     1       7.644  -2.764  25.362  0.00  0.00    +0.004 A 
ATOM     40  C   UNL     1       7.457  -3.688  24.330  0.00  0.00    +0.000 A 
ATOM     41  C   UNL     1       6.224  -3.770  23.703  0.00  0.00    +0.000 A 
ATOM     42  C   UNL     1       5.201  -2.892  24.085  0.00  0.00    +0.000 A 
ATOM     43  C   UNL     1       5.389  -1.968  25.122  0.00  0.00    +0.004 A 
ENDBRANCH  37  38
ENDBRANCH  21  37
ENDBRANCH  18  21
ENDBRANCH  17  18
ENDBRANCH   1  17
BRANCH   1  44
ATOM     44  C   UNL     1       3.268   0.498  28.187  0.00  0.00    +0.140 C 
BRANCH  44  45
ATOM     45  C   UNL     1       3.043  -1.013  27.980  0.00  0.00    -0.032 A 
ATOM     46  C   UNL     1       2.107  -1.500  27.056  0.00  0.00    +0.005 A 
ATOM     47  C   UNL     1       2.126  -2.849  26.649  0.00  0.00    +0.010 A 
ATOM     48  C   UNL     1       3.080  -3.762  27.142  0.00  0.00    +0.000 A 
ATOM     49  C   UNL     1       3.833  -3.309  28.240  0.00  0.00    +0.010 A 
ATOM     50  C   UNL     1       3.811  -1.966  28.656  0.00  0.00    +0.005 A 
BRANCH  48  51
ATOM     51  C   UNL     1       3.395  -5.039  26.418  0.00  0.00    +0.071 A 
ATOM     52  N   UNL     1       2.563  -5.394  25.402  0.00  0.00    -0.255 NA
ATOM     53  C   UNL     1       2.982  -6.346  24.526  0.00  0.00    +0.111 A 
ATOM     54  C   UNL     1       4.198  -6.996  24.601  0.00  0.00    +0.020 A 
ATOM     55  C   UNL     1       5.009  -6.699  25.681  0.00  0.00    +0.004 A 
ATOM     56  C   UNL     1       4.604  -5.727  26.593  0.00  0.00    +0.028 A 
ENDBRANCH  48  51
ENDBRANCH  44  45
ENDBRANCH   1  44
TORSDOF 19
ENDMDL
MODEL 4
REMARK VINA RESULT:      -6.2      2.338      4.191
REMARK  Name = 
REMARK  27 active torsions:
REMARK  status: ('A' for Active; 'I' for Inactive)
REMARK    1  A    between atoms: C_1  and  C_2
REMARK    2  A    between atoms: C_2  and  C_3
REMARK    3  A    between atoms: C_2  and  C_4
REMARK    4  A    between atoms: C_2  and  C_5
REMARK    5  A    between atoms: C_5  and  C_7
REMARK    6  A    between atoms: C_5  and  N_51
REMARK    7  A    between atoms: N_9  and  C_10
REMARK    8  A    between atoms: C_10  and  C_12
REMARK    9  A    between atoms: C_10  and  C_19
REMARK   10  A    between atoms: C_12  and  C_13
REMARK   11  A    between atoms: C_19  and  C_21
REMARK   12  A    between atoms: C_19  and  O_50
REMARK   13  A    between atoms: C_21  and  N_22
REMARK   14  A    between atoms: N_22  and  C_23
REMARK   15  A    between atoms: N_22  and  N_36
REMARK   16  A    between atoms: C_23  and  C_24
REMARK   17  A    between atoms: C_27  and  C_30
REMARK   18  A    between atoms: C_37  and  C_39
REMARK   19  A    between atoms: C_39  and  C_41
REMARK   20  A    between atoms: C_39  and  N_45
REMARK   21  A    between atoms: C_41  and  C_42
REMARK   22  A    between atoms: C_41  and  C_43
REMARK   23  A    between atoms: C_41  and  C_44
REMARK   24  A    between atoms: C_46  and  O_48
REMARK   25  A    between atoms: O_48  and  C_49
REMARK   26  A    between atoms: C_52  and  O_54
REMARK   27  A    between atoms: O_54  and  C_55
REMARK                            x       y       z     vdW  Elec       q    Type
REMARK                         _______ _______ _______ _____ _____    ______ ____
ROOT
ATOM      1  N   UNL     1       7.239  -1.440  22.760  0.00  0.00    -0.220 NA
ENDROOT
BRANCH   1   2
ATOM      2  N   UNL     1       6.506  -2.479  23.500  0.00  0.00    -0.246 N 
ATOM      3  H   UNL     1       6.862  -2.798  24.403  0.00  0.00    +0.169 HD
ATOM      4  C   UNL     1       5.521  -3.225  22.847  0.00  0.00    +0.248 C 
ATOM      5  O   UNL     1       5.262  -3.076  21.651  0.00  0.00    -0.272 OA
BRANCH   4   6
ATOM      6  C   UNL     1       4.770  -4.279  23.741  0.00  0.00    +0.169 C 
BRANCH   6   7
ATOM      7  C   UNL     1       5.561  -5.634  23.899  0.00  0.00    -0.011 C 
ATOM      8  C   UNL     1       4.569  -6.759  24.252  0.00  0.00    +0.013 C 
ATOM      9  C   UNL     1       6.584  -5.547  25.060  0.00  0.00    +0.013 C 
ATOM     10  C   UNL     1       6.360  -6.031  22.639  0.00  0.00    +0.013 C 
ENDBRANCH   6   7
BRANCH   6  11
ATOM     11  N   UNL     1       4.421  -3.723  25.045  0.00  0.00    -0.269 N 
ATOM     12  H   UNL     1       5.122  -3.304  25.641  0.00  0.00    +0.153 HD
ATOM     13  C   UNL     1       3.140  -3.570  25.464  0.00  0.00    +0.401 C 
ATOM     14  O   UNL     1       2.154  -3.834  24.790  0.00  0.00    -0.226 OA
BRANCH  13  15
ATOM     15  O   UNL     1       3.135  -3.083  26.726  0.00  0.00    -0.454 OA
ATOM     16  C   UNL     1       3.488  -1.703  26.825  0.00  0.00    +0.282 C 
ENDBRANCH  13  15
ENDBRANCH   6  11
ENDBRANCH   4   6
ENDBRANCH   1   2
BRANCH   1  17
ATOM     17  C   UNL     1       6.746  -0.103  23.229  0.00  0.00    +0.139 C 
BRANCH  17  18
ATOM     18  C   UNL     1       6.090   0.229  24.627  0.00  0.00    +0.151 C 
BRANCH  18  19
ATOM     19  O   UNL     1       6.694  -0.621  25.619  0.00  0.00    -0.389 OA
ATOM     20  H   UNL     1       5.936  -1.001  26.105  0.00  0.00    +0.210 HD
ENDBRANCH  18  19
BRANCH  18  21
ATOM     21  C   UNL     1       6.026   1.709  25.150  0.00  0.00    +0.107 C 
BRANCH  21  23
ATOM     22  C   UNL     1       4.626   3.701  24.248  0.00  0.00    +0.234 C 
ATOM     23  N   UNL     1       5.629   2.769  24.149  0.00  0.00    -0.308 N 
ATOM     24  H   UNL     1       5.983   2.627  23.203  0.00  0.00    +0.149 HD
ATOM     25  O   UNL     1       3.890   3.742  25.235  0.00  0.00    -0.274 OA
BRANCH  22  26
ATOM     26  C   UNL     1       4.449   4.766  23.082  0.00  0.00    +0.167 C 
BRANCH  26  28
ATOM     27  C   UNL     1       6.830   5.423  22.139  0.00  0.00    +0.013 C 
ATOM     28  C   UNL     1       5.552   5.879  22.878  0.00  0.00    -0.011 C 
ATOM     29  C   UNL     1       4.966   7.062  22.052  0.00  0.00    +0.013 C 
ATOM     30  C   UNL     1       5.969   6.448  24.246  0.00  0.00    +0.013 C 
ENDBRANCH  26  28
BRANCH  26  31
ATOM     31  N   UNL     1       3.948   4.197  21.833  0.00  0.00    -0.269 N 
ATOM     32  H   UNL     1       4.524   3.526  21.359  0.00  0.00    +0.153 HD
ATOM     33  C   UNL     1       2.620   4.056  21.572  0.00  0.00    +0.401 C 
ATOM     34  O   UNL     1       1.730   4.649  22.163  0.00  0.00    -0.226 OA
BRANCH  33  35
ATOM     35  O   UNL     1       2.450   3.077  20.656  0.00  0.00    -0.454 OA
ATOM     36  C   UNL     1       1.182   2.430  20.749  0.00  0.00    +0.282 C 
ENDBRANCH  33  35
ENDBRANCH  26  31
ENDBRANCH  22  26
ENDBRANCH  21  23
BRANCH  21  37
ATOM     37  C   UNL     1       7.189   2.182  26.084  0.00  0.00    +0.060 C 
BRANCH  37  38
ATOM     38  C   UNL     1       7.101   3.060  27.325  0.00  0.00    -0.046 A 
ATOM     39  C   UNL     1       7.092   4.463  27.100  0.00  0.00    +0.004 A 
ATOM     40  C   UNL     1       6.888   5.382  28.132  0.00  0.00    +0.000 A 
ATOM     41  C   UNL     1       6.695   4.923  29.425  0.00  0.00    +0.000 A 
ATOM     42  C   UNL     1       6.755   3.547  29.680  0.00  0.00    +0.000 A 
ATOM     43  C   UNL     1       6.957   2.626  28.643  0.00  0.00    +0.004 A 
ENDBRANCH  37  38
ENDBRANCH  21  37
ENDBRANCH  18  21
ENDBRANCH  17  18
ENDBRANCH   1  17
BRANCH   1  44
ATOM     44  C   UNL     1       8.718  -1.643  22.882  0.00  0.00    +0.140 C 
BRANCH  44  45
ATOM     45  C   UNL     1       9.535  -0.339  22.979  0.00  0.00    -0.032 A 
ATOM     46  C   UNL     1       9.715   0.501  21.870  0.00  0.00    +0.005 A 
ATOM     47  C   UNL     1      10.184   1.821  22.032  0.00  0.00    +0.010 A 
ATOM     48  C   UNL     1      10.485   2.354  23.302  0.00  0.00    +0.000 A 
ATOM     49  C   UNL     1      10.533   1.417  24.350  0.00  0.00    +0.010 A 
ATOM     50  C   UNL     1      10.075   0.097  24.191  0.00  0.00    +0.005 A 
BRANCH  48  51
ATOM     51  C   UNL     1      10.552   3.835  23.538  0.00  0.00    +0.071 A 
ATOM     52  N   UNL     1       9.488   4.410  24.160  0.00  0.00    -0.255 NA
ATOM     53  C   UNL     1       9.640   5.659  24.676  0.00  0.00    +0.111 A 
ATOM     54  C   UNL     1      10.803   6.399  24.604  0.00  0.00    +0.020 A 
ATOM     55  C   UNL     1      11.859   5.852  23.898  0.00  0.00    +0.004 A 
ATOM     56  C   UNL     1      11.730   4.573  23.359  0.00  0.00    +0.028 A 
ENDBRANCH  48  51
ENDBRANCH  44  45
ENDBRANCH   1  44
TORSDOF 19
ENDMDL
MODEL 5
REMARK VINA RESULT:      -6.1      2.423      7.833
REMARK  Name = 
REMARK  27 active torsions:
REMARK  status: ('A' for Active; 'I' for Inactive)
REMARK    1  A    between atoms: C_1  and  C_2
REMARK    2  A    between atoms: C_2  and  C_3
REMARK    3  A    between atoms: C_2  and  C_4
REMARK    4  A    between atoms: C_2  and  C_5
REMARK    5  A    between atoms: C_5  and  C_7
REMARK    6  A    between atoms: C_5  and  N_51
REMARK    7  A    between atoms: N_9  and  C_10
REMARK    8  A    between atoms: C_10  and  C_12
REMARK    9  A    between atoms: C_10  and  C_19
REMARK   10  A    between atoms: C_12  and  C_13
REMARK   11  A    between atoms: C_19  and  C_21
REMARK   12  A    between atoms: C_19  and  O_50
REMARK   13  A    between atoms: C_21  and  N_22
REMARK   14  A    between atoms: N_22  and  C_23
REMARK   15  A    between atoms: N_22  and  N_36
REMARK   16  A    between atoms: C_23  and  C_24
REMARK   17  A    between atoms: C_27  and  C_30
REMARK   18  A    between atoms: C_37  and  C_39
REMARK   19  A    between atoms: C_39  and  C_41
REMARK   20  A    between atoms: C_39  and  N_45
REMARK   21  A    between atoms: C_41  and  C_42
REMARK   22  A    between atoms: C_41  and  C_43
REMARK   23  A    between atoms: C_41  and  C_44
REMARK   24  A    between atoms: C_46  and  O_48
REMARK   25  A    between atoms: O_48  and  C_49
REMARK   26  A    between atoms: C_52  and  O_54
REMARK   27  A    between atoms: O_54  and  C_55
REMARK                            x       y       z     vdW  Elec       q    Type
REMARK                         _______ _______ _______ _____ _____    ______ ____
ROOT
ATOM      1  N   UNL     1       9.109  -1.005  24.731  0.00  0.00    -0.220 NA
ENDROOT
BRANCH   1   2
ATOM      2  N   UNL     1       8.450   0.285  24.468  0.00  0.00    -0.246 N 
ATOM      3  H   UNL     1       7.477   0.297  24.158  0.00  0.00    +0.169 HD
ATOM      4  C   UNL     1       9.225   1.441  24.350  0.00  0.00    +0.248 C 
ATOM      5  O   UNL     1      10.455   1.426  24.419  0.00  0.00    -0.272 OA
BRANCH   4   6
ATOM      6  C   UNL     1       8.417   2.771  24.111  0.00  0.00    +0.169 C 
BRANCH   6   7
ATOM      7  C   UNL     1       7.649   2.791  22.735  0.00  0.00    -0.011 C 
ATOM      8  C   UNL     1       7.402   4.253  22.316  0.00  0.00    +0.013 C 
ATOM      9  C   UNL     1       6.261   2.114  22.864  0.00  0.00    +0.013 C 
ATOM     10  C   UNL     1       8.395   2.052  21.603  0.00  0.00    +0.013 C 
ENDBRANCH   6   7
BRANCH   6  11
ATOM     11  N   UNL     1       7.510   3.053  25.220  0.00  0.00    -0.269 N 
ATOM     12  H   UNL     1       6.809   2.382  25.508  0.00  0.00    +0.153 HD
ATOM     13  C   UNL     1       7.653   4.126  26.037  0.00  0.00    +0.401 C 
ATOM     14  O   UNL     1       8.567   4.935  25.965  0.00  0.00    -0.226 OA
BRANCH  13  15
ATOM     15  O   UNL     1       6.637   4.149  26.931  0.00  0.00    -0.454 OA
ATOM     16  C   UNL     1       6.873   3.377  28.108  0.00  0.00    +0.282 C 
ENDBRANCH  13  15
ENDBRANCH   6  11
ENDBRANCH   4   6
ENDBRANCH   1   2
BRANCH   1  17
ATOM     17  C   UNL     1       8.331  -1.712  25.800  0.00  0.00    +0.139 C 
BRANCH  17  18
ATOM     18  C   UNL     1       7.613  -1.053  27.044  0.00  0.00    +0.151 C 
BRANCH  18  19
ATOM     19  O   UNL     1       8.122   0.284  27.199  0.00  0.00    -0.389 OA
ATOM     20  H   UNL     1       8.207   0.399  28.166  0.00  0.00    +0.210 HD
ENDBRANCH  18  19
BRANCH  18  21
ATOM     21  C   UNL     1       6.046  -1.052  27.156  0.00  0.00    +0.107 C 
BRANCH  21  23
ATOM     22  C   UNL     1       4.493  -2.788  28.303  0.00  0.00    +0.234 C 
ATOM     23  N   UNL     1       5.373  -2.395  27.327  0.00  0.00    -0.308 N 
ATOM     24  H   UNL     1       5.796  -3.161  26.805  0.00  0.00    +0.149 HD
ATOM     25  O   UNL     1       4.165  -2.022  29.212  0.00  0.00    -0.274 OA
BRANCH  22  26
ATOM     26  C   UNL     1       3.861  -4.244  28.227  0.00  0.00    +0.167 C 
BRANCH  26  28
ATOM     27  C   UNL     1       1.943  -5.889  27.450  0.00  0.00    +0.013 C 
ATOM     28  C   UNL     1       2.418  -4.428  27.611  0.00  0.00    -0.011 C 
ATOM     29  C   UNL     1       1.361  -3.721  28.511  0.00  0.00    +0.013 C 
ATOM     30  C   UNL     1       2.357  -3.752  26.229  0.00  0.00    +0.013 C 
ENDBRANCH  26  28
BRANCH  26  31
ATOM     31  N   UNL     1       4.810  -5.280  27.825  0.00  0.00    -0.269 N 
ATOM     32  H   UNL     1       4.982  -5.403  26.844  0.00  0.00    +0.153 HD
ATOM     33  C   UNL     1       5.848  -5.669  28.614  0.00  0.00    +0.401 C 
ATOM     34  O   UNL     1       5.924  -5.457  29.814  0.00  0.00    -0.226 OA
BRANCH  33  35
ATOM     35  O   UNL     1       6.816  -6.207  27.838  0.00  0.00    -0.454 OA
ATOM     36  C   UNL     1       7.505  -5.242  27.045  0.00  0.00    +0.282 C 
ENDBRANCH  33  35
ENDBRANCH  26  31
ENDBRANCH  22  26
ENDBRANCH  21  23
BRANCH  21  37
ATOM     37  C   UNL     1       5.265  -0.119  26.172  0.00  0.00    +0.060 C 
BRANCH  37  38
ATOM     38  C   UNL     1       4.380   1.073  26.508  0.00  0.00    -0.046 A 
ATOM     39  C   UNL     1       3.905   1.142  27.846  0.00  0.00    +0.004 A 
ATOM     40  C   UNL     1       3.192   2.243  28.327  0.00  0.00    +0.000 A 
ATOM     41  C   UNL     1       2.923   3.306  27.479  0.00  0.00    +0.000 A 
ATOM     42  C   UNL     1       3.334   3.235  26.141  0.00  0.00    +0.000 A 
ATOM     43  C   UNL     1       4.052   2.132  25.661  0.00  0.00    +0.004 A 
ENDBRANCH  37  38
ENDBRANCH  21  37
ENDBRANCH  18  21
ENDBRANCH  17  18
ENDBRANCH   1  17
BRANCH   1  44
ATOM     44  C   UNL     1       9.283  -1.782  23.463  0.00  0.00    +0.140 C 
BRANCH  44  45
ATOM     45  C   UNL     1       8.127  -2.750  23.144  0.00  0.00    -0.032 A 
ATOM     46  C   UNL     1       8.254  -4.135  23.325  0.00  0.00    +0.005 A 
ATOM     47  C   UNL     1       7.118  -4.971  23.334  0.00  0.00    +0.010 A 
ATOM     48  C   UNL     1       5.815  -4.458  23.169  0.00  0.00    +0.000 A 
ATOM     49  C   UNL     1       5.747  -3.119  22.745  0.00  0.00    +0.010 A 
ATOM     50  C   UNL     1       6.878  -2.284  22.724  0.00  0.00    +0.005 A 
BRANCH  48  51
ATOM     51  C   UNL     1       4.605  -5.231  23.606  0.00  0.00    +0.071 A 
ATOM     52  N   UNL     1       3.436  -4.963  22.963  0.00  0.00    -0.255 NA
ATOM     53  C   UNL     1       2.410  -5.846  23.095  0.00  0.00    +0.111 A 
ATOM     54  C   UNL     1       2.464  -7.000  23.852  0.00  0.00    +0.020 A 
ATOM     55  C   UNL     1       3.620  -7.230  24.574  0.00  0.00    +0.004 A 
ATOM     56  C   UNL     1       4.687  -6.342  24.457  0.00  0.00    +0.028 A 
ENDBRANCH  48  51
ENDBRANCH  44  45
ENDBRANCH   1  44
TORSDOF 19
ENDMDL
MODEL 6
REMARK VINA RESULT:      -6.1      2.355      7.725
REMARK  Name = 
REMARK  27 active torsions:
REMARK  status: ('A' for Active; 'I' for Inactive)
REMARK    1  A    between atoms: C_1  and  C_2
REMARK    2  A    between atoms: C_2  and  C_3
REMARK    3  A    between atoms: C_2  and  C_4
REMARK    4  A    between atoms: C_2  and  C_5
REMARK    5  A    between atoms: C_5  and  C_7
REMARK    6  A    between atoms: C_5  and  N_51
REMARK    7  A    between atoms: N_9  and  C_10
REMARK    8  A    between atoms: C_10  and  C_12
REMARK    9  A    between atoms: C_10  and  C_19
REMARK   10  A    between atoms: C_12  and  C_13
REMARK   11  A    between atoms: C_19  and  C_21
REMARK   12  A    between atoms: C_19  and  O_50
REMARK   13  A    between atoms: C_21  and  N_22
REMARK   14  A    between atoms: N_22  and  C_23
REMARK   15  A    between atoms: N_22  and  N_36
REMARK   16  A    between atoms: C_23  and  C_24
REMARK   17  A    between atoms: C_27  and  C_30
REMARK   18  A    between atoms: C_37  and  C_39
REMARK   19  A    between atoms: C_39  and  C_41
REMARK   20  A    between atoms: C_39  and  N_45
REMARK   21  A    between atoms: C_41  and  C_42
REMARK   22  A    between atoms: C_41  and  C_43
REMARK   23  A    between atoms: C_41  and  C_44
REMARK   24  A    between atoms: C_46  and  O_48
REMARK   25  A    between atoms: O_48  and  C_49
REMARK   26  A    between atoms: C_52  and  O_54
REMARK   27  A    between atoms: O_54  and  C_55
REMARK                            x       y       z     vdW  Elec       q    Type
REMARK                         _______ _______ _______ _____ _____    ______ ____
ROOT
ATOM      1  N   UNL     1       9.760  -0.057  25.316  0.00  0.00    -0.220 NA
ENDROOT
BRANCH   1   2
ATOM      2  N   UNL     1       8.982   1.128  24.923  0.00  0.00    -0.246 N 
ATOM      3  H   UNL     1       7.962   1.075  24.905  0.00  0.00    +0.169 HD
ATOM      4  C   UNL     1       9.626   2.198  24.297  0.00  0.00    +0.248 C 
ATOM      5  O   UNL     1      10.828   2.179  24.021  0.00  0.00    -0.272 OA
BRANCH   4   6
ATOM      6  C   UNL     1       8.709   3.431  23.957  0.00  0.00    +0.169 C 
BRANCH   6   7
ATOM      7  C   UNL     1       7.593   3.100  22.895  0.00  0.00    -0.011 C 
ATOM      8  C   UNL     1       8.202   2.232  21.776  0.00  0.00    +0.013 C 
ATOM      9  C   UNL     1       7.060   4.393  22.228  0.00  0.00    +0.013 C 
ATOM     10  C   UNL     1       6.367   2.377  23.495  0.00  0.00    +0.013 C 
ENDBRANCH   6   7
BRANCH   6  11
ATOM     11  N   UNL     1       8.126   4.013  25.163  0.00  0.00    -0.269 N 
ATOM     12  H   UNL     1       7.478   3.490  25.737  0.00  0.00    +0.153 HD
ATOM     13  C   UNL     1       8.535   5.196  25.685  0.00  0.00    +0.401 C 
ATOM     14  O   UNL     1       9.453   5.870  25.238  0.00  0.00    -0.226 OA
BRANCH  13  15
ATOM     15  O   UNL     1       7.777   5.497  26.765  0.00  0.00    -0.454 OA
ATOM     16  C   UNL     1       7.015   4.401  27.271  0.00  0.00    +0.282 C 
ENDBRANCH  13  15
ENDBRANCH   6  11
ENDBRANCH   4   6
ENDBRANCH   1   2
BRANCH   1  17
ATOM     17  C   UNL     1       8.909  -0.886  26.231  0.00  0.00    +0.139 C 
BRANCH  17  18
ATOM     18  C   UNL     1       7.663  -0.397  27.070  0.00  0.00    +0.151 C 
BRANCH  18  19
ATOM     19  O   UNL     1       7.944   0.926  27.560  0.00  0.00    -0.389 OA
ATOM     20  H   UNL     1       7.379   1.014  28.354  0.00  0.00    +0.210 HD
ENDBRANCH  18  19
BRANCH  18  21
ATOM     21  C   UNL     1       6.216  -0.452  26.461  0.00  0.00    +0.107 C 
BRANCH  21  23
ATOM     22  C   UNL     1       4.074   0.966  26.835  0.00  0.00    +0.234 C 
ATOM     23  N   UNL     1       5.110   0.182  27.274  0.00  0.00    -0.308 N 
ATOM     24  H   UNL     1       5.283   0.231  28.277  0.00  0.00    +0.149 HD
ATOM     25  O   UNL     1       3.959   1.263  25.644  0.00  0.00    -0.274 OA
BRANCH  22  26
ATOM     26  C   UNL     1       2.986   1.460  27.882  0.00  0.00    +0.167 C 
BRANCH  26  28
ATOM     27  C   UNL     1       0.923   0.719  29.360  0.00  0.00    +0.013 C 
ATOM     28  C   UNL     1       1.601   0.705  27.972  0.00  0.00    -0.011 C 
ATOM     29  C   UNL     1       0.583   1.341  26.980  0.00  0.00    +0.013 C 
ATOM     30  C   UNL     1       1.785  -0.763  27.547  0.00  0.00    +0.013 C 
ENDBRANCH  26  28
BRANCH  26  31
ATOM     31  N   UNL     1       3.542   1.827  29.183  0.00  0.00    -0.269 N 
ATOM     32  H   UNL     1       3.969   1.103  29.731  0.00  0.00    +0.153 HD
ATOM     33  C   UNL     1       4.026   3.070  29.448  0.00  0.00    +0.401 C 
ATOM     34  O   UNL     1       3.774   4.068  28.791  0.00  0.00    -0.226 OA
BRANCH  33  35
ATOM     35  O   UNL     1       4.914   2.992  30.466  0.00  0.00    -0.454 OA
ATOM     36  C   UNL     1       5.644   1.767  30.485  0.00  0.00    +0.282 C 
ENDBRANCH  33  35
ENDBRANCH  26  31
ENDBRANCH  22  26
ENDBRANCH  21  23
BRANCH  21  37
ATOM     37  C   UNL     1       5.772  -1.803  25.808  0.00  0.00    +0.060 C 
BRANCH  37  38
ATOM     38  C   UNL     1       5.456  -3.123  26.499  0.00  0.00    -0.046 A 
ATOM     39  C   UNL     1       6.573  -3.938  26.829  0.00  0.00    +0.004 A 
ATOM     40  C   UNL     1       6.442  -5.112  27.576  0.00  0.00    +0.000 A 
ATOM     41  C   UNL     1       5.187  -5.510  28.007  0.00  0.00    +0.000 A 
ATOM     42  C   UNL     1       4.066  -4.752  27.646  0.00  0.00    +0.000 A 
ATOM     43  C   UNL     1       4.198  -3.573  26.899  0.00  0.00    +0.004 A 
ENDBRANCH  37  38
ENDBRANCH  21  37
ENDBRANCH  18  21
ENDBRANCH  17  18
ENDBRANCH   1  17
BRANCH   1  44
ATOM     44  C   UNL     1      10.275  -0.780  24.110  0.00  0.00    +0.140 C 
BRANCH  44  45
ATOM     45  C   UNL     1       9.356  -1.909  23.602  0.00  0.00    -0.032 A 
ATOM     46  C   UNL     1       9.440  -3.213  24.113  0.00  0.00    +0.005 A 
ATOM     47  C   UNL     1       8.411  -4.148  23.880  0.00  0.00    +0.010 A 
ATOM     48  C   UNL     1       7.259  -3.818  23.137  0.00  0.00    +0.000 A 
ATOM     49  C   UNL     1       7.325  -2.599  22.438  0.00  0.00    +0.010 A 
ATOM     50  C   UNL     1       8.354  -1.668  22.659  0.00  0.00    +0.005 A 
BRANCH  48  51
ATOM     51  C   UNL     1       5.994  -4.618  23.249  0.00  0.00    +0.071 A 
ATOM     52  N   UNL     1       6.088  -5.843  23.835  0.00  0.00    -0.255 NA
ATOM     53  C   UNL     1       4.943  -6.452  24.245  0.00  0.00    +0.111 A 
ATOM     54  C   UNL     1       3.678  -5.919  24.097  0.00  0.00    +0.020 A 
ATOM     55  C   UNL     1       3.572  -4.715  23.427  0.00  0.00    +0.004 A 
ATOM     56  C   UNL     1       4.730  -4.068  22.996  0.00  0.00    +0.028 A 
ENDBRANCH  48  51
ENDBRANCH  44  45
ENDBRANCH   1  44
TORSDOF 19
ENDMDL
MODEL 7
REMARK VINA RESULT:      -6.0      2.836      5.811
REMARK  Name = 
REMARK  27 active torsions:
REMARK  status: ('A' for Active; 'I' for Inactive)
REMARK    1  A    between atoms: C_1  and  C_2
REMARK    2  A    between atoms: C_2  and  C_3
REMARK    3  A    between atoms: C_2  and  C_4
REMARK    4  A    between atoms: C_2  and  C_5
REMARK    5  A    between atoms: C_5  and  C_7
REMARK    6  A    between atoms: C_5  and  N_51
REMARK    7  A    between atoms: N_9  and  C_10
REMARK    8  A    between atoms: C_10  and  C_12
REMARK    9  A    between atoms: C_10  and  C_19
REMARK   10  A    between atoms: C_12  and  C_13
REMARK   11  A    between atoms: C_19  and  C_21
REMARK   12  A    between atoms: C_19  and  O_50
REMARK   13  A    between atoms: C_21  and  N_22
REMARK   14  A    between atoms: N_22  and  C_23
REMARK   15  A    between atoms: N_22  and  N_36
REMARK   16  A    between atoms: C_23  and  C_24
REMARK   17  A    between atoms: C_27  and  C_30
REMARK   18  A    between atoms: C_37  and  C_39
REMARK   19  A    between atoms: C_39  and  C_41
REMARK   20  A    between atoms: C_39  and  N_45
REMARK   21  A    between atoms: C_41  and  C_42
REMARK   22  A    between atoms: C_41  and  C_43
REMARK   23  A    between atoms: C_41  and  C_44
REMARK   24  A    between atoms: C_46  and  O_48
REMARK   25  A    between atoms: O_48  and  C_49
REMARK   26  A    between atoms: C_52  and  O_54
REMARK   27  A    between atoms: O_54  and  C_55
REMARK                            x       y       z     vdW  Elec       q    Type
REMARK                         _______ _______ _______ _____ _____    ______ ____
ROOT
ATOM      1  N   UNL     1       6.254  -4.376  25.971  0.00  0.00    -0.220 NA
ENDROOT
BRANCH   1   2
ATOM      2  N   UNL     1       5.490  -5.455  26.616  0.00  0.00    -0.246 N 
ATOM      3  H   UNL     1       5.989  -6.243  27.034  0.00  0.00    +0.169 HD
ATOM      4  C   UNL     1       4.114  -5.553  26.392  0.00  0.00    +0.248 C 
ATOM      5  O   UNL     1       3.509  -4.788  25.639  0.00  0.00    -0.272 OA
BRANCH   4   6
ATOM      6  C   UNL     1       3.388  -6.717  27.163  0.00  0.00    +0.169 C 
BRANCH   6   7
ATOM      7  C   UNL     1       2.513  -6.210  28.372  0.00  0.00    -0.011 C 
ATOM      8  C   UNL     1       2.416  -7.328  29.429  0.00  0.00    +0.013 C 
ATOM      9  C   UNL     1       1.068  -5.888  27.916  0.00  0.00    +0.013 C 
ATOM     10  C   UNL     1       3.062  -4.926  29.032  0.00  0.00    +0.013 C 
ENDBRANCH   6   7
BRANCH   6  11
ATOM     11  N   UNL     1       2.597  -7.547  26.258  0.00  0.00    -0.269 N 
ATOM     12  H   UNL     1       1.604  -7.674  26.397  0.00  0.00    +0.153 HD
ATOM     13  C   UNL     1       3.086  -8.046  25.096  0.00  0.00    +0.401 C 
ATOM     14  O   UNL     1       4.209  -7.823  24.663  0.00  0.00    -0.226 OA
BRANCH  13  15
ATOM     15  O   UNL     1       2.143  -8.814  24.504  0.00  0.00    -0.454 OA
ATOM     16  C   UNL     1       1.122  -9.277  25.389  0.00  0.00    +0.282 C 
ENDBRANCH  13  15
ENDBRANCH   6  11
ENDBRANCH   4   6
ENDBRANCH   1   2
BRANCH   1  17
ATOM     17  C   UNL     1       5.598  -3.073  26.321  0.00  0.00    +0.139 C 
BRANCH  17  18
ATOM     18  C   UNL     1       4.990  -2.017  25.316  0.00  0.00    +0.151 C 
BRANCH  18  19
ATOM     19  O   UNL     1       4.161  -1.110  26.065  0.00  0.00    -0.389 OA
ATOM     20  H   UNL     1       4.530  -0.227  25.867  0.00  0.00    +0.210 HD
ENDBRANCH  18  19
BRANCH  18  21
ATOM     21  C   UNL     1       5.921  -1.214  24.337  0.00  0.00    +0.107 C 
BRANCH  21  23
ATOM     22  C   UNL     1       5.721   1.278  25.038  0.00  0.00    +0.234 C 
ATOM     23  N   UNL     1       5.600   0.250  24.138  0.00  0.00    -0.308 N 
ATOM     24  H   UNL     1       5.010   0.458  23.333  0.00  0.00    +0.149 HD
ATOM     25  O   UNL     1       6.115   1.075  26.188  0.00  0.00    -0.274 OA
BRANCH  22  26
ATOM     26  C   UNL     1       5.385   2.757  24.565  0.00  0.00    +0.167 C 
BRANCH  26  28
ATOM     27  C   UNL     1       7.011   3.862  22.797  0.00  0.00    +0.013 C 
ATOM     28  C   UNL     1       6.569   3.763  24.274  0.00  0.00    -0.011 C 
ATOM     29  C   UNL     1       6.162   5.202  24.708  0.00  0.00    +0.013 C 
ATOM     30  C   UNL     1       7.797   3.370  25.114  0.00  0.00    +0.013 C 
ENDBRANCH  26  28
BRANCH  26  31
ATOM     31  N   UNL     1       4.295   2.834  23.595  0.00  0.00    -0.269 N 
ATOM     32  H   UNL     1       4.292   2.173  22.839  0.00  0.00    +0.153 HD
ATOM     33  C   UNL     1       3.058   3.298  23.919  0.00  0.00    +0.401 C 
ATOM     34  O   UNL     1       2.806   3.974  24.904  0.00  0.00    -0.226 OA
BRANCH  33  35
ATOM     35  O   UNL     1       2.153   2.789  23.052  0.00  0.00    -0.454 OA
ATOM     36  C   UNL     1       2.354   3.222  21.708  0.00  0.00    +0.282 C 
ENDBRANCH  33  35
ENDBRANCH  26  31
ENDBRANCH  22  26
ENDBRANCH  21  23
BRANCH  21  37
ATOM     37  C   UNL     1       6.320  -1.921  22.999  0.00  0.00    +0.060 C 
BRANCH  37  38
ATOM     38  C   UNL     1       6.132  -3.381  22.614  0.00  0.00    -0.046 A 
ATOM     39  C   UNL     1       7.300  -4.072  22.189  0.00  0.00    +0.004 A 
ATOM     40  C   UNL     1       7.300  -5.444  21.929  0.00  0.00    +0.000 A 
ATOM     41  C   UNL     1       6.126  -6.167  22.076  0.00  0.00    +0.000 A 
ATOM     42  C   UNL     1       4.951  -5.498  22.440  0.00  0.00    +0.000 A 
ATOM     43  C   UNL     1       4.953  -4.121  22.704  0.00  0.00    +0.004 A 
ENDBRANCH  37  38
ENDBRANCH  21  37
ENDBRANCH  18  21
ENDBRANCH  17  18
ENDBRANCH   1  17
BRANCH   1  44
ATOM     44  C   UNL     1       7.706  -4.464  26.328  0.00  0.00    +0.140 C 
BRANCH  44  45
ATOM     45  C   UNL     1       8.551  -3.262  25.863  0.00  0.00    -0.032 A 
ATOM     46  C   UNL     1       9.295  -3.300  24.674  0.00  0.00    +0.005 A 
ATOM     47  C   UNL     1       9.804  -2.116  24.101  0.00  0.00    +0.010 A 
ATOM     48  C   UNL     1       9.586  -0.852  24.687  0.00  0.00    +0.000 A 
ATOM     49  C   UNL     1       9.061  -0.878  25.991  0.00  0.00    +0.010 A 
ATOM     50  C   UNL     1       8.561  -2.057  26.570  0.00  0.00    +0.005 A 
BRANCH  48  51
ATOM     51  C   UNL     1       9.724   0.416  23.895  0.00  0.00    +0.071 A 
ATOM     52  N   UNL     1      10.559   1.367  24.393  0.00  0.00    -0.255 NA
ATOM     53  C   UNL     1      10.959   2.371  23.568  0.00  0.00    +0.111 A 
ATOM     54  C   UNL     1      10.564   2.505  22.251  0.00  0.00    +0.020 A 
ATOM     55  C   UNL     1       9.649   1.589  21.768  0.00  0.00    +0.004 A 
ATOM     56  C   UNL     1       9.223   0.549  22.592  0.00  0.00    +0.028 A 
ENDBRANCH  48  51
ENDBRANCH  44  45
ENDBRANCH   1  44
TORSDOF 19
ENDMDL
MODEL 8
REMARK VINA RESULT:      -6.0      2.758      6.150
REMARK  Name = 
REMARK  27 active torsions:
REMARK  status: ('A' for Active; 'I' for Inactive)
REMARK    1  A    between atoms: C_1  and  C_2
REMARK    2  A    between atoms: C_2  and  C_3
REMARK    3  A    between atoms: C_2  and  C_4
REMARK    4  A    between atoms: C_2  and  C_5
REMARK    5  A    between atoms: C_5  and  C_7
REMARK    6  A    between atoms: C_5  and  N_51
REMARK    7  A    between atoms: N_9  and  C_10
REMARK    8  A    between atoms: C_10  and  C_12
REMARK    9  A    between atoms: C_10  and  C_19
REMARK   10  A    between atoms: C_12  and  C_13
REMARK   11  A    between atoms: C_19  and  C_21
REMARK   12  A    between atoms: C_19  and  O_50
REMARK   13  A    between atoms: C_21  and  N_22
REMARK   14  A    between atoms: N_22  and  C_23
REMARK   15  A    between atoms: N_22  and  N_36
REMARK   16  A    between atoms: C_23  and  C_24
REMARK   17  A    between atoms: C_27  and  C_30
REMARK   18  A    between atoms: C_37  and  C_39
REMARK   19  A    between atoms: C_39  and  C_41
REMARK   20  A    between atoms: C_39  and  N_45
REMARK   21  A    between atoms: C_41  and  C_42
REMARK   22  A    between atoms: C_41  and  C_43
REMARK   23  A    between atoms: C_41  and  C_44
REMARK   24  A    between atoms: C_46  and  O_48
REMARK   25  A    between atoms: O_48  and  C_49
REMARK   26  A    between atoms: C_52  and  O_54
REMARK   27  A    between atoms: O_54  and  C_55
REMARK                            x       y       z     vdW  Elec       q    Type
REMARK                         _______ _______ _______ _____ _____    ______ ____
ROOT
ATOM      1  N   UNL     1       6.039  -4.451  26.144  0.00  0.00    -0.220 NA
ENDROOT
BRANCH   1   2
ATOM      2  N   UNL     1       5.206  -5.516  26.724  0.00  0.00    -0.246 N 
ATOM      3  H   UNL     1       5.654  -6.297  27.207  0.00  0.00    +0.169 HD
ATOM      4  C   UNL     1       3.861  -5.615  26.358  0.00  0.00    +0.248 C 
ATOM      5  O   UNL     1       3.342  -4.863  25.530  0.00  0.00    -0.272 OA
BRANCH   4   6
ATOM      6  C   UNL     1       3.052  -6.762  27.069  0.00  0.00    +0.169 C 
BRANCH   6   7
ATOM      7  C   UNL     1       2.590  -6.384  28.528  0.00  0.00    -0.011 C 
ATOM      8  C   UNL     1       3.549  -7.032  29.545  0.00  0.00    +0.013 C 
ATOM      9  C   UNL     1       1.173  -6.936  28.822  0.00  0.00    +0.013 C 
ATOM     10  C   UNL     1       2.529  -4.861  28.778  0.00  0.00    +0.013 C 
ENDBRANCH   6   7
BRANCH   6  11
ATOM     11  N   UNL     1       1.918  -7.199  26.259  0.00  0.00    -0.269 N 
ATOM     12  H   UNL     1       1.002  -6.785  26.374  0.00  0.00    +0.153 HD
ATOM     13  C   UNL     1       2.045  -8.038  25.201  0.00  0.00    +0.401 C 
ATOM     14  O   UNL     1       3.110  -8.477  24.788  0.00  0.00    -0.226 OA
BRANCH  13  15
ATOM     15  O   UNL     1       0.822  -8.300  24.686  0.00  0.00    -0.454 OA
ATOM     16  C   UNL     1       0.833  -8.686  23.311  0.00  0.00    +0.282 C 
ENDBRANCH  13  15
ENDBRANCH   6  11
ENDBRANCH   4   6
ENDBRANCH   1   2
BRANCH   1  17
ATOM     17  C   UNL     1       5.363  -3.139  26.411  0.00  0.00    +0.139 C 
BRANCH  17  18
ATOM     18  C   UNL     1       4.866  -2.092  25.338  0.00  0.00    +0.151 C 
BRANCH  18  19
ATOM     19  O   UNL     1       4.011  -1.142  26.000  0.00  0.00    -0.389 OA
ATOM     20  H   UNL     1       3.203  -1.651  26.211  0.00  0.00    +0.210 HD
ENDBRANCH  18  19
BRANCH  18  21
ATOM     21  C   UNL     1       5.892  -1.343  24.413  0.00  0.00    +0.107 C 
BRANCH  21  23
ATOM     22  C   UNL     1       6.022   1.129  25.198  0.00  0.00    +0.234 C 
ATOM     23  N   UNL     1       5.724   0.154  24.280  0.00  0.00    -0.308 N 
ATOM     24  H   UNL     1       5.105   0.455  23.528  0.00  0.00    +0.149 HD
ATOM     25  O   UNL     1       6.471   0.842  26.309  0.00  0.00    -0.274 OA
BRANCH  22  26
ATOM     26  C   UNL     1       5.821   2.652  24.793  0.00  0.00    +0.167 C 
BRANCH  26  28
ATOM     27  C   UNL     1       4.326   4.776  25.286  0.00  0.00    +0.013 C 
ATOM     28  C   UNL     1       4.377   3.289  24.873  0.00  0.00    -0.011 C 
ATOM     29  C   UNL     1       3.678   3.196  23.484  0.00  0.00    +0.013 C 
ATOM     30  C   UNL     1       3.514   2.488  25.865  0.00  0.00    +0.013 C 
ENDBRANCH  26  28
BRANCH  26  31
ATOM     31  N   UNL     1       6.882   3.535  25.273  0.00  0.00    -0.269 N 
ATOM     32  H   UNL     1       7.279   3.344  26.175  0.00  0.00    +0.153 HD
ATOM     33  C   UNL     1       7.727   4.189  24.432  0.00  0.00    +0.401 C 
ATOM     34  O   UNL     1       7.518   4.374  23.243  0.00  0.00    -0.226 OA
BRANCH  33  35
ATOM     35  O   UNL     1       8.870   4.482  25.092  0.00  0.00    -0.454 OA
ATOM     36  C   UNL     1       8.845   5.759  25.727  0.00  0.00    +0.282 C 
ENDBRANCH  33  35
ENDBRANCH  26  31
ENDBRANCH  22  26
ENDBRANCH  21  23
BRANCH  21  37
ATOM     37  C   UNL     1       6.246  -2.023  23.050  0.00  0.00    +0.060 C 
BRANCH  37  38
ATOM     38  C   UNL     1       6.080  -3.484  22.656  0.00  0.00    -0.046 A 
ATOM     39  C   UNL     1       7.237  -4.128  22.139  0.00  0.00    +0.004 A 
ATOM     40  C   UNL     1       7.265  -5.496  21.858  0.00  0.00    +0.000 A 
ATOM     41  C   UNL     1       6.130  -6.261  22.077  0.00  0.00    +0.000 A 
ATOM     42  C   UNL     1       4.961  -5.637  22.533  0.00  0.00    +0.000 A 
ATOM     43  C   UNL     1       4.936  -4.265  22.818  0.00  0.00    +0.004 A 
ENDBRANCH  37  38
ENDBRANCH  21  37
ENDBRANCH  18  21
ENDBRANCH  17  18
ENDBRANCH   1  17
BRANCH   1  44
ATOM     44  C   UNL     1       7.448  -4.546  26.642  0.00  0.00    +0.140 C 
BRANCH  44  45
ATOM     45  C   UNL     1       8.413  -3.515  26.025  0.00  0.00    -0.032 A 
ATOM     46  C   UNL     1       9.168  -3.806  24.879  0.00  0.00    +0.005 A 
ATOM     47  C   UNL     1       9.799  -2.779  24.148  0.00  0.00    +0.010 A 
ATOM     48  C   UNL     1       9.696  -1.425  24.526  0.00  0.00    +0.000 A 
ATOM     49  C   UNL     1       9.150  -1.198  25.802  0.00  0.00    +0.010 A 
ATOM     50  C   UNL     1       8.529  -2.221  26.540  0.00  0.00    +0.005 A 
BRANCH  48  51
ATOM     51  C   UNL     1       9.969  -0.313  23.555  0.00  0.00    +0.071 A 
ATOM     52  N   UNL     1       9.453  -0.447  22.303  0.00  0.00    -0.255 NA
ATOM     53  C   UNL     1       9.396   0.654  21.507  0.00  0.00    +0.111 A 
ATOM     54  C   UNL     1       9.840   1.909  21.875  0.00  0.00    +0.020 A 
ATOM     55  C   UNL     1      10.442   2.029  23.114  0.00  0.00    +0.004 A 
ATOM     56  C   UNL     1      10.513   0.917  23.950  0.00  0.00    +0.028 A 
ENDBRANCH  48  51
ENDBRANCH  44  45
ENDBRANCH   1  44
TORSDOF 19
ENDMDL
MODEL 9
REMARK VINA RESULT:      -6.0      2.534      7.672
REMARK  Name = 
REMARK  27 active torsions:
REMARK  status: ('A' for Active; 'I' for Inactive)
REMARK    1  A    between atoms: C_1  and  C_2
REMARK    2  A    between atoms: C_2  and  C_3
REMARK    3  A    between atoms: C_2  and  C_4
REMARK    4  A    between atoms: C_2  and  C_5
REMARK    5  A    between atoms: C_5  and  C_7
REMARK    6  A    between atoms: C_5  and  N_51
REMARK    7  A    between atoms: N_9  and  C_10
REMARK    8  A    between atoms: C_10  and  C_12
REMARK    9  A    between atoms: C_10  and  C_19
REMARK   10  A    between atoms: C_12  and  C_13
REMARK   11  A    between atoms: C_19  and  C_21
REMARK   12  A    between atoms: C_19  and  O_50
REMARK   13  A    between atoms: C_21  and  N_22
REMARK   14  A    between atoms: N_22  and  C_23
REMARK   15  A    between atoms: N_22  and  N_36
REMARK   16  A    between atoms: C_23  and  C_24
REMARK   17  A    between atoms: C_27  and  C_30
REMARK   18  A    between atoms: C_37  and  C_39
REMARK   19  A    between atoms: C_39  and  C_41
REMARK   20  A    between atoms: C_39  and  N_45
REMARK   21  A    between atoms: C_41  and  C_42
REMARK   22  A    between atoms: C_41  and  C_43
REMARK   23  A    between atoms: C_41  and  C_44
REMARK   24  A    between atoms: C_46  and  O_48
REMARK   25  A    between atoms: O_48  and  C_49
REMARK   26  A    between atoms: C_52  and  O_54
REMARK   27  A    between atoms: O_54  and  C_55
REMARK                            x       y       z     vdW  Elec       q    Type
REMARK                         _______ _______ _______ _____ _____    ______ ____
ROOT
ATOM      1  N   UNL     1       6.653  -3.051  26.673  0.00  0.00    -0.220 NA
ENDROOT
BRANCH   1   2
ATOM      2  N   UNL     1       6.612  -3.227  25.213  0.00  0.00    -0.246 N 
ATOM      3  H   UNL     1       5.750  -3.017  24.706  0.00  0.00    +0.169 HD
ATOM      4  C   UNL     1       7.623  -3.954  24.579  0.00  0.00    +0.248 C 
ATOM      5  O   UNL     1       8.541  -4.494  25.199  0.00  0.00    -0.272 OA
BRANCH   4   6
ATOM      6  C   UNL     1       7.504  -4.046  23.012  0.00  0.00    +0.169 C 
BRANCH   6   7
ATOM      7  C   UNL     1       6.253  -4.876  22.532  0.00  0.00    -0.011 C 
ATOM      8  C   UNL     1       6.355  -6.310  23.088  0.00  0.00    +0.013 C 
ATOM      9  C   UNL     1       6.220  -4.987  20.987  0.00  0.00    +0.013 C 
ATOM     10  C   UNL     1       4.904  -4.255  22.956  0.00  0.00    +0.013 C 
ENDBRANCH   6   7
BRANCH   6  11
ATOM     11  N   UNL     1       7.521  -2.722  22.395  0.00  0.00    -0.269 N 
ATOM     12  H   UNL     1       6.663  -2.222  22.205  0.00  0.00    +0.153 HD
ATOM     13  C   UNL     1       8.660  -2.011  22.202  0.00  0.00    +0.401 C 
ATOM     14  O   UNL     1       9.772  -2.374  22.558  0.00  0.00    -0.226 OA
BRANCH  13  15
ATOM     15  O   UNL     1       8.365  -0.854  21.565  0.00  0.00    -0.454 OA
ATOM     16  C   UNL     1       9.496  -0.026  21.298  0.00  0.00    +0.282 C 
ENDBRANCH  13  15
ENDBRANCH   6  11
ENDBRANCH   4   6
ENDBRANCH   1   2
BRANCH   1  17
ATOM     17  C   UNL     1       5.721  -1.931  27.030  0.00  0.00    +0.139 C 
BRANCH  17  18
ATOM     18  C   UNL     1       4.978  -0.960  26.029  0.00  0.00    +0.151 C 
BRANCH  18  19
ATOM     19  O   UNL     1       3.562  -1.087  26.251  0.00  0.00    -0.389 OA
ATOM     20  H   UNL     1       3.295  -1.837  25.683  0.00  0.00    +0.210 HD
ENDBRANCH  18  19
BRANCH  18  21
ATOM     21  C   UNL     1       5.378   0.557  25.940  0.00  0.00    +0.107 C 
BRANCH  21  23
ATOM     22  C   UNL     1       4.720   2.623  24.512  0.00  0.00    +0.234 C 
ATOM     23  N   UNL     1       4.996   1.289  24.674  0.00  0.00    -0.308 N 
ATOM     24  H   UNL     1       4.678   0.695  23.909  0.00  0.00    +0.149 HD
ATOM     25  O   UNL     1       4.742   3.399  25.469  0.00  0.00    -0.274 OA
BRANCH  22  26
ATOM     26  C   UNL     1       4.411   3.173  23.053  0.00  0.00    +0.167 C 
BRANCH  26  28
ATOM     27  C   UNL     1       1.864   3.360  23.736  0.00  0.00    +0.013 C 
ATOM     28  C   UNL     1       2.973   3.742  22.731  0.00  0.00    -0.011 C 
ATOM     29  C   UNL     1       3.014   5.299  22.694  0.00  0.00    +0.013 C 
ATOM     30  C   UNL     1       2.533   3.271  21.333  0.00  0.00    +0.013 C 
ENDBRANCH  26  28
BRANCH  26  31
ATOM     31  N   UNL     1       5.499   3.958  22.475  0.00  0.00    -0.269 N 
ATOM     32  H   UNL     1       5.578   4.921  22.746  0.00  0.00    +0.153 HD
ATOM     33  C   UNL     1       6.679   3.402  22.089  0.00  0.00    +0.401 C 
ATOM     34  O   UNL     1       6.850   2.211  21.880  0.00  0.00    -0.226 OA
BRANCH  33  35
ATOM     35  O   UNL     1       7.641   4.353  22.098  0.00  0.00    -0.454 OA
ATOM     36  C   UNL     1       7.525   5.262  23.191  0.00  0.00    +0.282 C 
ENDBRANCH  33  35
ENDBRANCH  26  31
ENDBRANCH  22  26
ENDBRANCH  21  23
BRANCH  21  37
ATOM     37  C   UNL     1       6.809   0.944  26.440  0.00  0.00    +0.060 C 
BRANCH  37  38
ATOM     38  C   UNL     1       8.118   0.910  25.663  0.00  0.00    -0.046 A 
ATOM     39  C   UNL     1       8.479   2.111  24.994  0.00  0.00    +0.004 A 
ATOM     40  C   UNL     1       9.710   2.263  24.351  0.00  0.00    +0.000 A 
ATOM     41  C   UNL     1      10.615   1.213  24.351  0.00  0.00    +0.000 A 
ATOM     42  C   UNL     1      10.258   0.001  24.957  0.00  0.00    +0.000 A 
ATOM     43  C   UNL     1       9.024  -0.150  25.604  0.00  0.00    +0.004 A 
ENDBRANCH  37  38
ENDBRANCH  21  37
ENDBRANCH  18  21
ENDBRANCH  17  18
ENDBRANCH   1  17
BRANCH   1  44
ATOM     44  C   UNL     1       6.377  -4.345  27.374  0.00  0.00    +0.140 C 
BRANCH  44  45
ATOM     45  C   UNL     1       5.100  -5.067  26.900  0.00  0.00    -0.032 A 
ATOM     46  C   UNL     1       3.861  -4.413  26.844  0.00  0.00    +0.005 A 
ATOM     47  C   UNL     1       2.781  -4.968  26.128  0.00  0.00    +0.010 A 
ATOM     48  C   UNL     1       2.896  -6.191  25.436  0.00  0.00    +0.000 A 
ATOM     49  C   UNL     1       4.058  -6.932  25.718  0.00  0.00    +0.010 A 
ATOM     50  C   UNL     1       5.134  -6.387  26.441  0.00  0.00    +0.005 A 
BRANCH  48  51
ATOM     51  C   UNL     1       1.943  -6.568  24.340  0.00  0.00    +0.071 A 
ATOM     52  N   UNL     1       1.232  -5.560  23.766  0.00  0.00    -0.255 NA
ATOM     53  C   UNL     1       0.615  -5.800  22.579  0.00  0.00    +0.111 A 
ATOM     54  C   UNL     1       0.646  -7.008  21.911  0.00  0.00    +0.020 A 
ATOM     55  C   UNL     1       1.296  -8.058  22.533  0.00  0.00    +0.004 A 
ATOM     56  C   UNL     1       1.938  -7.840  23.750  0.00  0.00    +0.028 A 
ENDBRANCH  48  51
ENDBRANCH  44  45
ENDBRANCH   1  44
TORSDOF 19
ENDMDL
