MODEL 1
REMARK VINA RESULT:      -6.4      0.000      0.000
REMARK  Name = 
REMARK  16 active torsions:
REMARK  status: ('A' for Active; 'I' for Inactive)
REMARK    1  A    between atoms: C_1  and  C_2
REMARK    2  A    between atoms: C_2  and  C_3
REMARK    3  A    between atoms: C_2  and  C_4
REMARK    4  A    between atoms: C_4  and  N_5
REMARK    5  A    between atoms: N_5  and  C_6
REMARK    6  A    between atoms: N_5  and  S_29
REMARK    7  A    between atoms: C_6  and  C_7
REMARK    8  A    between atoms: C_7  and  C_9
REMARK    9  A    between atoms: C_7  and  O_28
REMARK   10  A    between atoms: C_9  and  C_11
REMARK   11  A    between atoms: C_9  and  N_18
REMARK   12  A    between atoms: C_11  and  C_12
REMARK   13  A    between atoms: C_19  and  O_21
REMARK   14  A    between atoms: O_21  and  C_22
REMARK   15  A    between atoms: S_29  and  C_32
REMARK   16  A    between atoms: C_35  and  N_38
REMARK                            x       y       z     vdW  Elec       q    Type
REMARK                         _______ _______ _______ _____ _____    ______ ____
ROOT
ATOM      1  C   UNL     1       8.111  -1.077  25.529  0.00  0.00    +0.151 C 
ENDROOT
BRANCH   1   2
ATOM      2  O   UNL     1       9.134  -0.251  26.106  0.00  0.00    -0.389 OA
ATOM      3  H   UNL     1       8.733   0.615  26.307  0.00  0.00    +0.210 HD
ENDBRANCH   1   2
BRANCH   1   4
ATOM      4  C   UNL     1       7.766  -2.173  26.586  0.00  0.00    +0.142 C 
BRANCH   4   5
ATOM      5  N   UNL     1       6.337  -2.648  26.727  0.00  0.00    -0.174 NA
BRANCH   5   6
ATOM      6  S   UNL     1       6.252  -4.333  27.060  0.00  0.00    +0.061 S 
ATOM      7  O   UNL     1       5.759  -4.462  28.414  0.00  0.00    -0.153 OA
ATOM      8  O   UNL     1       7.536  -4.906  26.697  0.00  0.00    -0.153 OA
BRANCH   6   9
ATOM      9  C   UNL     1       5.036  -5.070  25.978  0.00  0.00    +0.106 A 
ATOM     10  C   UNL     1       5.039  -6.460  25.806  0.00  0.00    +0.030 A 
ATOM     11  C   UNL     1       4.319  -7.035  24.751  0.00  0.00    +0.024 A 
ATOM     12  C   UNL     1       3.563  -6.247  23.882  0.00  0.00    +0.025 A 
ATOM     13  C   UNL     1       3.573  -4.857  24.061  0.00  0.00    +0.024 A 
ATOM     14  C   UNL     1       4.298  -4.266  25.106  0.00  0.00    +0.030 A 
BRANCH  12  15
ATOM     15  N   UNL     1       3.044  -6.804  22.708  0.00  0.00    -0.358 N 
ATOM     16  H   UNL     1       3.134  -6.227  21.879  0.00  0.00    +0.142 HD
ATOM     17  H   UNL     1       3.292  -7.773  22.544  0.00  0.00    +0.142 HD
ENDBRANCH  12  15
ENDBRANCH   6   9
ENDBRANCH   5   6
BRANCH   5  18
ATOM     18  C   UNL     1       5.411  -1.761  27.505  0.00  0.00    +0.112 C 
BRANCH  18  20
ATOM     19  C   UNL     1       2.948  -1.096  27.232  0.00  0.00    +0.008 C 
ATOM     20  C   UNL     1       4.360  -0.993  26.663  0.00  0.00    -0.001 C 
ATOM     21  C   UNL     1       4.754   0.484  26.545  0.00  0.00    +0.008 C 
ENDBRANCH  18  20
ENDBRANCH   5  18
ENDBRANCH   4   5
ENDBRANCH   1   4
BRANCH   1  22
ATOM     22  C   UNL     1       8.563  -1.559  24.130  0.00  0.00    +0.110 C 
BRANCH  22  23
ATOM     23  N   UNL     1       9.650  -0.734  23.563  0.00  0.00    -0.275 N 
ATOM     24  H   UNL     1      10.217  -0.200  24.207  0.00  0.00    +0.152 HD
ATOM     25  C   UNL     1       9.686  -0.309  22.269  0.00  0.00    +0.401 C 
ATOM     26  O   UNL     1       9.144  -0.844  21.311  0.00  0.00    -0.226 OA
BRANCH  25  27
ATOM     27  O   UNL     1      10.317   0.896  22.217  0.00  0.00    -0.445 OA
BRANCH  27  28
ATOM     28  C   UNL     1       9.772   1.876  23.104  0.00  0.00    +0.206 C 
ATOM     29  C   UNL     1       8.560   2.559  22.488  0.00  0.00    +0.204 C 
ATOM     30  O   UNL     1       8.461   3.867  23.081  0.00  0.00    -0.376 OA
ATOM     31  C   UNL     1       9.662   4.099  23.837  0.00  0.00    +0.163 C 
ATOM     32  C   UNL     1      10.669   3.072  23.368  0.00  0.00    +0.075 C 
ENDBRANCH  27  28
ENDBRANCH  25  27
ENDBRANCH  22  23
BRANCH  22  33
ATOM     33  C   UNL     1       8.859  -3.075  23.980  0.00  0.00    +0.060 C 
BRANCH  33  34
ATOM     34  C   UNL     1       7.828  -3.886  23.195  0.00  0.00    -0.046 A 
ATOM     35  C   UNL     1       6.910  -3.201  22.383  0.00  0.00    +0.004 A 
ATOM     36  C   UNL     1       6.071  -3.898  21.507  0.00  0.00    +0.000 A 
ATOM     37  C   UNL     1       6.116  -5.288  21.448  0.00  0.00    +0.000 A 
ATOM     38  C   UNL     1       6.961  -5.984  22.302  0.00  0.00    +0.000 A 
ATOM     39  C   UNL     1       7.800  -5.290  23.173  0.00  0.00    +0.004 A 
ENDBRANCH  33  34
ENDBRANCH  22  33
ENDBRANCH   1  22
TORSDOF 14
ENDMDL
MODEL 2
REMARK VINA RESULT:      -6.4      1.287      1.705
REMARK  Name = 
REMARK  16 active torsions:
REMARK  status: ('A' for Active; 'I' for Inactive)
REMARK    1  A    between atoms: C_1  and  C_2
REMARK    2  A    between atoms: C_2  and  C_3
REMARK    3  A    between atoms: C_2  and  C_4
REMARK    4  A    between atoms: C_4  and  N_5
REMARK    5  A    between atoms: N_5  and  C_6
REMARK    6  A    between atoms: N_5  and  S_29
REMARK    7  A    between atoms: C_6  and  C_7
REMARK    8  A    between atoms: C_7  and  C_9
REMARK    9  A    between atoms: C_7  and  O_28
REMARK   10  A    between atoms: C_9  and  C_11
REMARK   11  A    between atoms: C_9  and  N_18
REMARK   12  A    between atoms: C_11  and  C_12
REMARK   13  A    between atoms: C_19  and  O_21
REMARK   14  A    between atoms: O_21  and  C_22
REMARK   15  A    between atoms: S_29  and  C_32
REMARK   16  A    between atoms: C_35  and  N_38
REMARK                            x       y       z     vdW  Elec       q    Type
REMARK                         _______ _______ _______ _____ _____    ______ ____
ROOT
ATOM      1  C   UNL     1       7.983  -1.786  25.898  0.00  0.00    +0.151 C 
ENDROOT
BRANCH   1   2
ATOM      2  O   UNL     1       8.725  -0.877  26.727  0.00  0.00    -0.389 OA
ATOM      3  H   UNL     1       9.591  -0.734  26.303  0.00  0.00    +0.210 HD
ENDBRANCH   1   2
BRANCH   1   4
ATOM      4  C   UNL     1       7.779  -3.091  26.729  0.00  0.00    +0.142 C 
BRANCH   4   5
ATOM      5  N   UNL     1       6.419  -3.752  26.755  0.00  0.00    -0.174 NA
BRANCH   5   6
ATOM      6  S   UNL     1       6.503  -5.368  27.342  0.00  0.00    +0.061 S 
ATOM      7  O   UNL     1       6.390  -5.290  28.782  0.00  0.00    -0.153 OA
ATOM      8  O   UNL     1       7.671  -5.982  26.736  0.00  0.00    -0.153 OA
BRANCH   6   9
ATOM      9  C   UNL     1       5.080  -6.268  26.743  0.00  0.00    +0.106 A 
ATOM     10  C   UNL     1       4.999  -6.571  25.378  0.00  0.00    +0.030 A 
ATOM     11  C   UNL     1       3.783  -6.994  24.827  0.00  0.00    +0.024 A 
ATOM     12  C   UNL     1       2.649  -7.155  25.626  0.00  0.00    +0.025 A 
ATOM     13  C   UNL     1       2.742  -6.843  26.989  0.00  0.00    +0.024 A 
ATOM     14  C   UNL     1       3.951  -6.408  27.552  0.00  0.00    +0.030 A 
BRANCH  12  15
ATOM     15  N   UNL     1       1.398  -7.350  25.030  0.00  0.00    -0.358 N 
ATOM     16  H   UNL     1       0.824  -8.070  25.456  0.00  0.00    +0.142 HD
ATOM     17  H   UNL     1       0.882  -6.504  24.822  0.00  0.00    +0.142 HD
ENDBRANCH  12  15
ENDBRANCH   6   9
ENDBRANCH   5   6
BRANCH   5  18
ATOM     18  C   UNL     1       5.278  -2.916  27.251  0.00  0.00    +0.112 C 
BRANCH  18  20
ATOM     19  C   UNL     1       4.560  -3.053  24.791  0.00  0.00    +0.008 C 
ATOM     20  C   UNL     1       4.220  -2.533  26.184  0.00  0.00    -0.001 C 
ATOM     21  C   UNL     1       2.838  -3.054  26.598  0.00  0.00    +0.008 C 
ENDBRANCH  18  20
ENDBRANCH   5  18
ENDBRANCH   4   5
ENDBRANCH   1   4
BRANCH   1  22
ATOM     22  C   UNL     1       8.683  -1.922  24.524  0.00  0.00    +0.110 C 
BRANCH  22  23
ATOM     23  N   UNL     1       9.859  -1.038  24.391  0.00  0.00    -0.275 N 
ATOM     24  H   UNL     1      10.315  -0.733  25.239  0.00  0.00    +0.152 HD
ATOM     25  C   UNL     1      10.119  -0.281  23.288  0.00  0.00    +0.401 C 
ATOM     26  O   UNL     1       9.743  -0.504  22.145  0.00  0.00    -0.226 OA
BRANCH  25  27
ATOM     27  O   UNL     1      10.764   0.855  23.673  0.00  0.00    -0.445 OA
BRANCH  27  28
ATOM     28  C   UNL     1      10.003   2.049  23.474  0.00  0.00    +0.206 C 
ATOM     29  C   UNL     1      10.906   3.273  23.438  0.00  0.00    +0.204 C 
ATOM     30  O   UNL     1      10.116   4.399  23.861  0.00  0.00    -0.376 OA
ATOM     31  C   UNL     1       8.869   3.894  24.369  0.00  0.00    +0.163 C 
ATOM     32  C   UNL     1       9.074   2.416  24.618  0.00  0.00    +0.075 C 
ENDBRANCH  27  28
ENDBRANCH  25  27
ENDBRANCH  22  23
BRANCH  22  33
ATOM     33  C   UNL     1       8.993  -3.364  24.043  0.00  0.00    +0.060 C 
BRANCH  33  34
ATOM     34  C   UNL     1       7.905  -4.043  23.213  0.00  0.00    -0.046 A 
ATOM     35  C   UNL     1       7.094  -3.249  22.386  0.00  0.00    +0.004 A 
ATOM     36  C   UNL     1       6.211  -3.835  21.473  0.00  0.00    +0.000 A 
ATOM     37  C   UNL     1       6.105  -5.220  21.389  0.00  0.00    +0.000 A 
ATOM     38  C   UNL     1       6.840  -6.019  22.255  0.00  0.00    +0.000 A 
ATOM     39  C   UNL     1       7.722  -5.435  23.163  0.00  0.00    +0.004 A 
ENDBRANCH  33  34
ENDBRANCH  22  33
ENDBRANCH   1  22
TORSDOF 14
ENDMDL
MODEL 3
REMARK VINA RESULT:      -6.3      2.491      4.073
REMARK  Name = 
REMARK  16 active torsions:
REMARK  status: ('A' for Active; 'I' for Inactive)
REMARK    1  A    between atoms: C_1  and  C_2
REMARK    2  A    between atoms: C_2  and  C_3
REMARK    3  A    between atoms: C_2  and  C_4
REMARK    4  A    between atoms: C_4  and  N_5
REMARK    5  A    between atoms: N_5  and  C_6
REMARK    6  A    between atoms: N_5  and  S_29
REMARK    7  A    between atoms: C_6  and  C_7
REMARK    8  A    between atoms: C_7  and  C_9
REMARK    9  A    between atoms: C_7  and  O_28
REMARK   10  A    between atoms: C_9  and  C_11
REMARK   11  A    between atoms: C_9  and  N_18
REMARK   12  A    between atoms: C_11  and  C_12
REMARK   13  A    between atoms: C_19  and  O_21
REMARK   14  A    between atoms: O_21  and  C_22
REMARK   15  A    between atoms: S_29  and  C_32
REMARK   16  A    between atoms: C_35  and  N_38
REMARK                            x       y       z     vdW  Elec       q    Type
REMARK                         _______ _______ _______ _____ _____    ______ ____
ROOT
ATOM      1  C   UNL     1       9.385  -1.948  22.859  0.00  0.00    +0.151 C 
ENDROOT
BRANCH   1   2
ATOM      2  O   UNL     1      10.338  -1.715  21.811  0.00  0.00    -0.389 OA
ATOM      3  H   UNL     1       9.981  -1.009  21.241  0.00  0.00    +0.210 HD
ENDBRANCH   1   2
BRANCH   1   4
ATOM      4  C   UNL     1       8.168  -2.677  22.208  0.00  0.00    +0.142 C 
BRANCH   4   5
ATOM      5  N   UNL     1       7.332  -3.621  23.043  0.00  0.00    -0.174 NA
BRANCH   5   6
ATOM      6  S   UNL     1       6.247  -4.542  22.076  0.00  0.00    +0.061 S 
ATOM      7  O   UNL     1       6.998  -5.673  21.577  0.00  0.00    -0.153 OA
ATOM      8  O   UNL     1       5.616  -3.622  21.146  0.00  0.00    -0.153 OA
BRANCH   6   9
ATOM      9  C   UNL     1       4.950  -5.184  23.124  0.00  0.00    +0.106 A 
ATOM     10  C   UNL     1       4.124  -4.281  23.804  0.00  0.00    +0.030 A 
ATOM     11  C   UNL     1       3.312  -4.730  24.854  0.00  0.00    +0.024 A 
ATOM     12  C   UNL     1       3.285  -6.078  25.216  0.00  0.00    +0.025 A 
ATOM     13  C   UNL     1       4.121  -6.970  24.532  0.00  0.00    +0.024 A 
ATOM     14  C   UNL     1       4.947  -6.533  23.485  0.00  0.00    +0.030 A 
BRANCH  12  15
ATOM     15  N   UNL     1       2.654  -6.469  26.402  0.00  0.00    -0.358 N 
ATOM     16  H   UNL     1       2.210  -7.380  26.375  0.00  0.00    +0.142 HD
ATOM     17  H   UNL     1       3.192  -6.315  27.247  0.00  0.00    +0.142 HD
ENDBRANCH  12  15
ENDBRANCH   6   9
ENDBRANCH   5   6
BRANCH   5  18
ATOM     18  C   UNL     1       8.044  -4.356  24.139  0.00  0.00    +0.112 C 
BRANCH  18  20
ATOM     19  C   UNL     1       7.068  -5.366  26.286  0.00  0.00    +0.008 C 
ATOM     20  C   UNL     1       7.513  -4.094  25.571  0.00  0.00    -0.001 C 
ATOM     21  C   UNL     1       8.584  -3.387  26.412  0.00  0.00    +0.008 C 
ENDBRANCH  18  20
ENDBRANCH   5  18
ENDBRANCH   4   5
ENDBRANCH   1   4
BRANCH   1  22
ATOM     22  C   UNL     1       9.101  -0.623  23.605  0.00  0.00    +0.110 C 
BRANCH  22  23
ATOM     23  N   UNL     1      10.036   0.458  23.228  0.00  0.00    -0.275 N 
ATOM     24  H   UNL     1      10.652   0.816  23.945  0.00  0.00    +0.152 HD
ATOM     25  C   UNL     1       9.856   1.278  22.155  0.00  0.00    +0.401 C 
ATOM     26  O   UNL     1       9.220   1.023  21.141  0.00  0.00    -0.226 OA
BRANCH  25  27
ATOM     27  O   UNL     1      10.388   2.499  22.437  0.00  0.00    -0.445 OA
BRANCH  27  28
ATOM     28  C   UNL     1       9.736   3.182  23.511  0.00  0.00    +0.206 C 
ATOM     29  C   UNL     1       8.312   3.561  23.134  0.00  0.00    +0.204 C 
ATOM     30  O   UNL     1       7.956   4.714  23.917  0.00  0.00    -0.376 OA
ATOM     31  C   UNL     1       9.148   5.190  24.565  0.00  0.00    +0.163 C 
ATOM     32  C   UNL     1      10.313   4.546  23.847  0.00  0.00    +0.075 C 
ENDBRANCH  27  28
ENDBRANCH  25  27
ENDBRANCH  22  23
BRANCH  22  33
ATOM     33  C   UNL     1       7.630  -0.130  23.610  0.00  0.00    +0.060 C 
BRANCH  33  34
ATOM     34  C   UNL     1       6.862  -0.323  24.918  0.00  0.00    -0.046 A 
ATOM     35  C   UNL     1       5.655  -1.040  24.890  0.00  0.00    +0.004 A 
ATOM     36  C   UNL     1       5.010  -1.401  26.077  0.00  0.00    +0.000 A 
ATOM     37  C   UNL     1       5.543  -1.029  27.308  0.00  0.00    +0.000 A 
ATOM     38  C   UNL     1       6.692  -0.250  27.351  0.00  0.00    +0.000 A 
ATOM     39  C   UNL     1       7.337   0.107  26.167  0.00  0.00    +0.004 A 
ENDBRANCH  33  34
ENDBRANCH  22  33
ENDBRANCH   1  22
TORSDOF 14
ENDMDL
MODEL 4
REMARK VINA RESULT:      -6.3      2.718      6.322
REMARK  Name = 
REMARK  16 active torsions:
REMARK  status: ('A' for Active; 'I' for Inactive)
REMARK    1  A    between atoms: C_1  and  C_2
REMARK    2  A    between atoms: C_2  and  C_3
REMARK    3  A    between atoms: C_2  and  C_4
REMARK    4  A    between atoms: C_4  and  N_5
REMARK    5  A    between atoms: N_5  and  C_6
REMARK    6  A    between atoms: N_5  and  S_29
REMARK    7  A    between atoms: C_6  and  C_7
REMARK    8  A    between atoms: C_7  and  C_9
REMARK    9  A    between atoms: C_7  and  O_28
REMARK   10  A    between atoms: C_9  and  C_11
REMARK   11  A    between atoms: C_9  and  N_18
REMARK   12  A    between atoms: C_11  and  C_12
REMARK   13  A    between atoms: C_19  and  O_21
REMARK   14  A    between atoms: O_21  and  C_22
REMARK   15  A    between atoms: S_29  and  C_32
REMARK   16  A    between atoms: C_35  and  N_38
REMARK                            x       y       z     vdW  Elec       q    Type
REMARK                         _______ _______ _______ _____ _____    ______ ____
ROOT
ATOM      1  C   UNL     1       9.439   1.272  24.937  0.00  0.00    +0.151 C 
ENDROOT
BRANCH   1   2
ATOM      2  O   UNL     1       9.964   0.181  25.709  0.00  0.00    -0.389 OA
ATOM      3  H   UNL     1      10.910   0.096  25.492  0.00  0.00    +0.210 HD
ENDBRANCH   1   2
BRANCH   1   4
ATOM      4  C   UNL     1       8.019   1.586  25.504  0.00  0.00    +0.142 C 
BRANCH   4   5
ATOM      5  N   UNL     1       6.922   0.554  25.379  0.00  0.00    -0.174 NA
BRANCH   5   6
ATOM      6  S   UNL     1       6.647  -0.274  26.862  0.00  0.00    +0.061 S 
ATOM      7  O   UNL     1       5.235  -0.148  27.149  0.00  0.00    -0.153 OA
ATOM      8  O   UNL     1       7.628   0.217  27.813  0.00  0.00    -0.153 OA
BRANCH   6   9
ATOM      9  C   UNL     1       6.988  -2.011  26.620  0.00  0.00    +0.106 A 
ATOM     10  C   UNL     1       5.994  -2.944  26.937  0.00  0.00    +0.030 A 
ATOM     11  C   UNL     1       6.320  -4.302  27.052  0.00  0.00    +0.024 A 
ATOM     12  C   UNL     1       7.622  -4.750  26.821  0.00  0.00    +0.025 A 
ATOM     13  C   UNL     1       8.609  -3.806  26.511  0.00  0.00    +0.024 A 
ATOM     14  C   UNL     1       8.298  -2.442  26.402  0.00  0.00    +0.030 A 
BRANCH  12  15
ATOM     15  N   UNL     1       7.979  -6.059  27.164  0.00  0.00    -0.358 N 
ATOM     16  H   UNL     1       8.922  -6.170  27.522  0.00  0.00    +0.142 HD
ATOM     17  H   UNL     1       7.289  -6.568  27.704  0.00  0.00    +0.142 HD
ENDBRANCH  12  15
ENDBRANCH   6   9
ENDBRANCH   5   6
BRANCH   5  18
ATOM     18  C   UNL     1       5.706   0.961  24.601  0.00  0.00    +0.112 C 
BRANCH  18  20
ATOM     19  C   UNL     1       5.983   2.605  22.651  0.00  0.00    +0.008 C 
ATOM     20  C   UNL     1       5.676   2.439  24.136  0.00  0.00    -0.001 C 
ATOM     21  C   UNL     1       4.311   3.064  24.446  0.00  0.00    +0.008 C 
ENDBRANCH  18  20
ENDBRANCH   5  18
ENDBRANCH   4   5
ENDBRANCH   1   4
BRANCH   1  22
ATOM     22  C   UNL     1       9.542   0.936  23.430  0.00  0.00    +0.110 C 
BRANCH  22  23
ATOM     23  N   UNL     1       8.506  -0.019  22.984  0.00  0.00    -0.275 N 
ATOM     24  H   UNL     1       7.540   0.242  23.117  0.00  0.00    +0.152 HD
ATOM     25  C   UNL     1       8.728  -1.351  22.807  0.00  0.00    +0.401 C 
ATOM     26  O   UNL     1       9.800  -1.885  22.553  0.00  0.00    -0.226 OA
BRANCH  25  27
ATOM     27  O   UNL     1       7.583  -2.032  23.087  0.00  0.00    -0.445 OA
BRANCH  27  28
ATOM     28  C   UNL     1       7.391  -3.201  22.286  0.00  0.00    +0.206 C 
ATOM     29  C   UNL     1       5.973  -3.262  21.739  0.00  0.00    +0.204 C 
ATOM     30  O   UNL     1       5.662  -4.649  21.514  0.00  0.00    -0.376 OA
ATOM     31  C   UNL     1       6.710  -5.436  22.106  0.00  0.00    +0.163 C 
ATOM     32  C   UNL     1       7.460  -4.515  23.044  0.00  0.00    +0.075 C 
ENDBRANCH  27  28
ENDBRANCH  25  27
ENDBRANCH  22  23
BRANCH  22  33
ATOM     33  C   UNL     1       9.668   2.138  22.458  0.00  0.00    +0.060 C 
BRANCH  33  34
ATOM     34  C   UNL     1      10.077   3.470  23.086  0.00  0.00    -0.046 A 
ATOM     35  C   UNL     1      11.445   3.763  23.212  0.00  0.00    +0.004 A 
ATOM     36  C   UNL     1      11.871   5.035  23.608  0.00  0.00    +0.000 A 
ATOM     37  C   UNL     1      10.940   6.025  23.910  0.00  0.00    +0.000 A 
ATOM     38  C   UNL     1       9.584   5.729  23.867  0.00  0.00    +0.000 A 
ATOM     39  C   UNL     1       9.159   4.461  23.470  0.00  0.00    +0.004 A 
ENDBRANCH  33  34
ENDBRANCH  22  33
ENDBRANCH   1  22
TORSDOF 14
ENDMDL
MODEL 5
REMARK VINA RESULT:      -6.3      1.749      4.824
REMARK  Name = 
REMARK  16 active torsions:
REMARK  status: ('A' for Active; 'I' for Inactive)
REMARK    1  A    between atoms: C_1  and  C_2
REMARK    2  A    between atoms: C_2  and  C_3
REMARK    3  A    between atoms: C_2  and  C_4
REMARK    4  A    between atoms: C_4  and  N_5
REMARK    5  A    between atoms: N_5  and  C_6
REMARK    6  A    between atoms: N_5  and  S_29
REMARK    7  A    between atoms: C_6  and  C_7
REMARK    8  A    between atoms: C_7  and  C_9
REMARK    9  A    between atoms: C_7  and  O_28
REMARK   10  A    between atoms: C_9  and  C_11
REMARK   11  A    between atoms: C_9  and  N_18
REMARK   12  A    between atoms: C_11  and  C_12
REMARK   13  A    between atoms: C_19  and  O_21
REMARK   14  A    between atoms: O_21  and  C_22
REMARK   15  A    between atoms: S_29  and  C_32
REMARK   16  A    between atoms: C_35  and  N_38
REMARK                            x       y       z     vdW  Elec       q    Type
REMARK                         _______ _______ _______ _____ _____    ______ ____
ROOT
ATOM      1  C   UNL     1       8.746  -0.789  25.494  0.00  0.00    +0.151 C 
ENDROOT
BRANCH   1   2
ATOM      2  O   UNL     1       9.579   0.009  26.351  0.00  0.00    -0.389 OA
ATOM      3  H   UNL     1       9.593  -0.417  27.227  0.00  0.00    +0.210 HD
ENDBRANCH   1   2
BRANCH   1   4
ATOM      4  C   UNL     1       7.815  -1.628  26.425  0.00  0.00    +0.142 C 
BRANCH   4   5
ATOM      5  N   UNL     1       6.527  -2.195  25.874  0.00  0.00    -0.174 NA
BRANCH   5   6
ATOM      6  S   UNL     1       5.846  -3.377  26.923  0.00  0.00    +0.061 S 
ATOM      7  O   UNL     1       4.976  -2.667  27.834  0.00  0.00    -0.153 OA
ATOM      8  O   UNL     1       6.944  -4.174  27.439  0.00  0.00    -0.153 OA
BRANCH   6   9
ATOM      9  C   UNL     1       4.821  -4.477  25.957  0.00  0.00    +0.106 A 
ATOM     10  C   UNL     1       5.287  -5.771  25.689  0.00  0.00    +0.030 A 
ATOM     11  C   UNL     1       4.670  -6.545  24.698  0.00  0.00    +0.024 A 
ATOM     12  C   UNL     1       3.567  -6.061  23.990  0.00  0.00    +0.025 A 
ATOM     13  C   UNL     1       3.116  -4.763  24.264  0.00  0.00    +0.024 A 
ATOM     14  C   UNL     1       3.731  -3.973  25.246  0.00  0.00    +0.030 A 
BRANCH  12  15
ATOM     15  N   UNL     1       3.113  -6.744  22.857  0.00  0.00    -0.358 N 
ATOM     16  H   UNL     1       2.467  -7.504  23.041  0.00  0.00    +0.142 HD
ATOM     17  H   UNL     1       2.821  -6.155  22.086  0.00  0.00    +0.142 HD
ENDBRANCH  12  15
ENDBRANCH   6   9
ENDBRANCH   5   6
BRANCH   5  18
ATOM     18  C   UNL     1       5.574  -1.215  25.257  0.00  0.00    +0.112 C 
BRANCH  18  20
ATOM     19  C   UNL     1       5.796   1.289  24.746  0.00  0.00    +0.008 C 
ATOM     20  C   UNL     1       5.638   0.225  25.827  0.00  0.00    -0.001 C 
ATOM     21  C   UNL     1       4.381   0.524  26.654  0.00  0.00    +0.008 C 
ENDBRANCH  18  20
ENDBRANCH   5  18
ENDBRANCH   4   5
ENDBRANCH   1   4
BRANCH   1  22
ATOM     22  C   UNL     1       9.630  -1.564  24.489  0.00  0.00    +0.110 C 
BRANCH  22  23
ATOM     23  N   UNL     1       8.914  -2.682  23.840  0.00  0.00    -0.275 N 
ATOM     24  H   UNL     1       8.069  -2.465  23.332  0.00  0.00    +0.152 HD
ATOM     25  C   UNL     1       9.052  -3.986  24.207  0.00  0.00    +0.401 C 
ATOM     26  O   UNL     1      10.022  -4.491  24.757  0.00  0.00    -0.226 OA
BRANCH  25  27
ATOM     27  O   UNL     1       7.875  -4.635  23.985  0.00  0.00    -0.445 OA
BRANCH  27  28
ATOM     28  C   UNL     1       7.466  -4.641  22.615  0.00  0.00    +0.206 C 
ATOM     29  C   UNL     1       6.127  -3.939  22.441  0.00  0.00    +0.204 C 
ATOM     30  O   UNL     1       5.501  -4.498  21.272  0.00  0.00    -0.376 OA
ATOM     31  C   UNL     1       6.267  -5.647  20.871  0.00  0.00    +0.163 C 
ATOM     32  C   UNL     1       7.142  -6.013  22.049  0.00  0.00    +0.075 C 
ENDBRANCH  27  28
ENDBRANCH  25  27
ENDBRANCH  22  23
BRANCH  22  33
ATOM     33  C   UNL     1      10.418  -0.713  23.458  0.00  0.00    +0.060 C 
BRANCH  33  34
ATOM     34  C   UNL     1       9.737   0.572  22.987  0.00  0.00    -0.046 A 
ATOM     35  C   UNL     1       8.700   0.477  22.044  0.00  0.00    +0.004 A 
ATOM     36  C   UNL     1       7.925   1.595  21.719  0.00  0.00    +0.000 A 
ATOM     37  C   UNL     1       8.189   2.828  22.308  0.00  0.00    +0.000 A 
ATOM     38  C   UNL     1       9.261   2.957  23.182  0.00  0.00    +0.000 A 
ATOM     39  C   UNL     1      10.032   1.842  23.508  0.00  0.00    +0.004 A 
ENDBRANCH  33  34
ENDBRANCH  22  33
ENDBRANCH   1  22
TORSDOF 14
ENDMDL
MODEL 6
REMARK VINA RESULT:      -6.3      2.565      5.775
REMARK  Name = 
REMARK  16 active torsions:
REMARK  status: ('A' for Active; 'I' for Inactive)
REMARK    1  A    between atoms: C_1  and  C_2
REMARK    2  A    between atoms: C_2  and  C_3
REMARK    3  A    between atoms: C_2  and  C_4
REMARK    4  A    between atoms: C_4  and  N_5
REMARK    5  A    between atoms: N_5  and  C_6
REMARK    6  A    between atoms: N_5  and  S_29
REMARK    7  A    between atoms: C_6  and  C_7
REMARK    8  A    between atoms: C_7  and  C_9
REMARK    9  A    between atoms: C_7  and  O_28
REMARK   10  A    between atoms: C_9  and  C_11
REMARK   11  A    between atoms: C_9  and  N_18
REMARK   12  A    between atoms: C_11  and  C_12
REMARK   13  A    between atoms: C_19  and  O_21
REMARK   14  A    between atoms: O_21  and  C_22
REMARK   15  A    between atoms: S_29  and  C_32
REMARK   16  A    between atoms: C_35  and  N_38
REMARK                            x       y       z     vdW  Elec       q    Type
REMARK                         _______ _______ _______ _____ _____    ______ ____
ROOT
ATOM      1  C   UNL     1       8.682  -0.629  26.484  0.00  0.00    +0.151 C 
ENDROOT
BRANCH   1   2
ATOM      2  O   UNL     1       9.423  -0.423  27.697  0.00  0.00    -0.389 OA
ATOM      3  H   UNL     1      10.364  -0.581  27.497  0.00  0.00    +0.210 HD
ENDBRANCH   1   2
BRANCH   1   4
ATOM      4  C   UNL     1       7.172  -0.455  26.842  0.00  0.00    +0.142 C 
BRANCH   4   5
ATOM      5  N   UNL     1       6.135  -0.501  25.743  0.00  0.00    -0.174 NA
BRANCH   5   6
ATOM      6  S   UNL     1       4.894  -1.644  26.081  0.00  0.00    +0.061 S 
ATOM      7  O   UNL     1       3.655  -0.900  26.145  0.00  0.00    -0.153 OA
ATOM      8  O   UNL     1       5.332  -2.426  27.223  0.00  0.00    -0.153 OA
BRANCH   6   9
ATOM      9  C   UNL     1       4.766  -2.774  24.702  0.00  0.00    +0.106 A 
ATOM     10  C   UNL     1       3.661  -3.631  24.633  0.00  0.00    +0.030 A 
ATOM     11  C   UNL     1       3.677  -4.722  23.755  0.00  0.00    +0.024 A 
ATOM     12  C   UNL     1       4.768  -4.953  22.914  0.00  0.00    +0.025 A 
ATOM     13  C   UNL     1       5.869  -4.092  22.998  0.00  0.00    +0.024 A 
ATOM     14  C   UNL     1       5.872  -3.001  23.880  0.00  0.00    +0.030 A 
BRANCH  12  15
ATOM     15  N   UNL     1       4.868  -6.164  22.220  0.00  0.00    -0.358 N 
ATOM     16  H   UNL     1       5.771  -6.344  21.794  0.00  0.00    +0.142 HD
ATOM     17  H   UNL     1       4.489  -6.971  22.701  0.00  0.00    +0.142 HD
ENDBRANCH  12  15
ENDBRANCH   6   9
ENDBRANCH   5   6
BRANCH   5  18
ATOM     18  C   UNL     1       5.699   0.818  25.178  0.00  0.00    +0.112 C 
BRANCH  18  20
ATOM     19  C   UNL     1       6.104   2.067  22.974  0.00  0.00    +0.008 C 
ATOM     20  C   UNL     1       6.727   1.519  24.254  0.00  0.00    -0.001 C 
ATOM     21  C   UNL     1       7.425   2.658  25.007  0.00  0.00    +0.008 C 
ENDBRANCH  18  20
ENDBRANCH   5  18
ENDBRANCH   4   5
ENDBRANCH   1   4
BRANCH   1  22
ATOM     22  C   UNL     1       9.107  -1.970  25.840  0.00  0.00    +0.110 C 
BRANCH  22  23
ATOM     23  N   UNL     1       8.314  -3.117  26.328  0.00  0.00    -0.275 N 
ATOM     24  H   UNL     1       7.595  -2.932  27.012  0.00  0.00    +0.152 HD
ATOM     25  C   UNL     1       8.733  -4.412  26.262  0.00  0.00    +0.401 C 
ATOM     26  O   UNL     1       9.533  -4.881  25.463  0.00  0.00    -0.226 OA
BRANCH  25  27
ATOM     27  O   UNL     1       8.219  -5.098  27.321  0.00  0.00    -0.445 OA
BRANCH  27  28
ATOM     28  C   UNL     1       6.791  -5.165  27.330  0.00  0.00    +0.206 C 
ATOM     29  C   UNL     1       6.286  -5.921  28.550  0.00  0.00    +0.204 C 
ATOM     30  O   UNL     1       5.008  -6.483  28.205  0.00  0.00    -0.376 OA
ATOM     31  C   UNL     1       4.819  -6.311  26.790  0.00  0.00    +0.163 C 
ATOM     32  C   UNL     1       6.180  -5.992  26.212  0.00  0.00    +0.075 C 
ENDBRANCH  27  28
ENDBRANCH  25  27
ENDBRANCH  22  23
BRANCH  22  33
ATOM     33  C   UNL     1       9.242  -1.985  24.294  0.00  0.00    +0.060 C 
BRANCH  33  34
ATOM     34  C   UNL     1       9.693  -0.676  23.647  0.00  0.00    -0.046 A 
ATOM     35  C   UNL     1       9.216  -0.361  22.364  0.00  0.00    +0.004 A 
ATOM     36  C   UNL     1       9.448   0.900  21.804  0.00  0.00    +0.000 A 
ATOM     37  C   UNL     1      10.183   1.854  22.504  0.00  0.00    +0.000 A 
ATOM     38  C   UNL     1      10.730   1.531  23.738  0.00  0.00    +0.000 A 
ATOM     39  C   UNL     1      10.495   0.275  24.297  0.00  0.00    +0.004 A 
ENDBRANCH  33  34
ENDBRANCH  22  33
ENDBRANCH   1  22
TORSDOF 14
ENDMDL
MODEL 7
REMARK VINA RESULT:      -6.2      2.832      7.423
REMARK  Name = 
REMARK  16 active torsions:
REMARK  status: ('A' for Active; 'I' for Inactive)
REMARK    1  A    between atoms: C_1  and  C_2
REMARK    2  A    between atoms: C_2  and  C_3
REMARK    3  A    between atoms: C_2  and  C_4
REMARK    4  A    between atoms: C_4  and  N_5
REMARK    5  A    between atoms: N_5  and  C_6
REMARK    6  A    between atoms: N_5  and  S_29
REMARK    7  A    between atoms: C_6  and  C_7
REMARK    8  A    between atoms: C_7  and  C_9
REMARK    9  A    between atoms: C_7  and  O_28
REMARK   10  A    between atoms: C_9  and  C_11
REMARK   11  A    between atoms: C_9  and  N_18
REMARK   12  A    between atoms: C_11  and  C_12
REMARK   13  A    between atoms: C_19  and  O_21
REMARK   14  A    between atoms: O_21  and  C_22
REMARK   15  A    between atoms: S_29  and  C_32
REMARK   16  A    between atoms: C_35  and  N_38
REMARK                            x       y       z     vdW  Elec       q    Type
REMARK                         _______ _______ _______ _____ _____    ______ ____
ROOT
ATOM      1  C   UNL     1       9.030  -0.836  26.196  0.00  0.00    +0.151 C 
ENDROOT
BRANCH   1   2
ATOM      2  O   UNL     1       8.843  -0.392  27.548  0.00  0.00    -0.389 OA
ATOM      3  H   UNL     1       9.620  -0.678  28.062  0.00  0.00    +0.210 HD
ENDBRANCH   1   2
BRANCH   1   4
ATOM      4  C   UNL     1       9.009   0.438  25.295  0.00  0.00    +0.142 C 
BRANCH   4   5
ATOM      5  N   UNL     1       7.778   0.751  24.475  0.00  0.00    -0.174 NA
BRANCH   5   6
ATOM      6  S   UNL     1       6.771   1.912  25.249  0.00  0.00    +0.061 S 
ATOM      7  O   UNL     1       7.330   2.132  26.564  0.00  0.00    -0.153 OA
ATOM      8  O   UNL     1       5.401   1.450  25.109  0.00  0.00    -0.153 OA
BRANCH   6   9
ATOM      9  C   UNL     1       6.886   3.456  24.356  0.00  0.00    +0.106 A 
ATOM     10  C   UNL     1       5.831   3.828  23.513  0.00  0.00    +0.030 A 
ATOM     11  C   UNL     1       6.012   4.855  22.578  0.00  0.00    +0.024 A 
ATOM     12  C   UNL     1       7.224   5.545  22.494  0.00  0.00    +0.025 A 
ATOM     13  C   UNL     1       8.273   5.159  23.338  0.00  0.00    +0.024 A 
ATOM     14  C   UNL     1       8.109   4.125  24.272  0.00  0.00    +0.030 A 
BRANCH  12  15
ATOM     15  N   UNL     1       7.465   6.399  21.412  0.00  0.00    -0.358 N 
ATOM     16  H   UNL     1       6.776   7.132  21.279  0.00  0.00    +0.142 HD
ATOM     17  H   UNL     1       8.418   6.732  21.329  0.00  0.00    +0.142 HD
ENDBRANCH  12  15
ENDBRANCH   6   9
ENDBRANCH   5   6
BRANCH   5  18
ATOM     18  C   UNL     1       7.981   0.916  22.998  0.00  0.00    +0.112 C 
BRANCH  18  20
ATOM     19  C   UNL     1       9.454  -0.391  21.353  0.00  0.00    +0.008 C 
ATOM     20  C   UNL     1       9.417   0.629  22.487  0.00  0.00    -0.001 C 
ATOM     21  C   UNL     1      10.083   1.929  22.022  0.00  0.00    +0.008 C 
ENDBRANCH  18  20
ENDBRANCH   5  18
ENDBRANCH   4   5
ENDBRANCH   1   4
BRANCH   1  22
ATOM     22  C   UNL     1       8.007  -1.951  25.871  0.00  0.00    +0.110 C 
BRANCH  22  23
ATOM     23  N   UNL     1       7.869  -2.197  24.421  0.00  0.00    -0.275 N 
ATOM     24  H   UNL     1       6.968  -2.023  23.999  0.00  0.00    +0.152 HD
ATOM     25  C   UNL     1       8.696  -3.012  23.707  0.00  0.00    +0.401 C 
ATOM     26  O   UNL     1       9.854  -3.298  23.982  0.00  0.00    -0.226 OA
BRANCH  25  27
ATOM     27  O   UNL     1       7.988  -3.579  22.691  0.00  0.00    -0.445 OA
BRANCH  27  28
ATOM     28  C   UNL     1       7.305  -4.780  23.059  0.00  0.00    +0.206 C 
ATOM     29  C   UNL     1       7.349  -5.802  21.934  0.00  0.00    +0.204 C 
ATOM     30  O   UNL     1       6.197  -6.650  22.081  0.00  0.00    -0.376 OA
ATOM     31  C   UNL     1       5.344  -6.062  23.078  0.00  0.00    +0.163 C 
ATOM     32  C   UNL     1       5.805  -4.632  23.248  0.00  0.00    +0.075 C 
ENDBRANCH  27  28
ENDBRANCH  25  27
ENDBRANCH  22  23
BRANCH  22  33
ATOM     33  C   UNL     1       8.150  -3.276  26.665  0.00  0.00    +0.060 C 
BRANCH  33  34
ATOM     34  C   UNL     1       6.867  -4.084  26.860  0.00  0.00    -0.046 A 
ATOM     35  C   UNL     1       5.663  -3.394  27.073  0.00  0.00    +0.004 A 
ATOM     36  C   UNL     1       4.440  -4.072  27.074  0.00  0.00    +0.000 A 
ATOM     37  C   UNL     1       4.402  -5.451  26.889  0.00  0.00    +0.000 A 
ATOM     38  C   UNL     1       5.589  -6.160  26.757  0.00  0.00    +0.000 A 
ATOM     39  C   UNL     1       6.808  -5.483  26.753  0.00  0.00    +0.004 A 
ENDBRANCH  33  34
ENDBRANCH  22  33
ENDBRANCH   1  22
TORSDOF 14
ENDMDL
MODEL 8
REMARK VINA RESULT:      -6.2      2.545      7.175
REMARK  Name = 
REMARK  16 active torsions:
REMARK  status: ('A' for Active; 'I' for Inactive)
REMARK    1  A    between atoms: C_1  and  C_2
REMARK    2  A    between atoms: C_2  and  C_3
REMARK    3  A    between atoms: C_2  and  C_4
REMARK    4  A    between atoms: C_4  and  N_5
REMARK    5  A    between atoms: N_5  and  C_6
REMARK    6  A    between atoms: N_5  and  S_29
REMARK    7  A    between atoms: C_6  and  C_7
REMARK    8  A    between atoms: C_7  and  C_9
REMARK    9  A    between atoms: C_7  and  O_28
REMARK   10  A    between atoms: C_9  and  C_11
REMARK   11  A    between atoms: C_9  and  N_18
REMARK   12  A    between atoms: C_11  and  C_12
REMARK   13  A    between atoms: C_19  and  O_21
REMARK   14  A    between atoms: O_21  and  C_22
REMARK   15  A    between atoms: S_29  and  C_32
REMARK   16  A    between atoms: C_35  and  N_38
REMARK                            x       y       z     vdW  Elec       q    Type
REMARK                         _______ _______ _______ _____ _____    ______ ____
ROOT
ATOM      1  C   UNL     1       6.761  -5.600  26.349  0.00  0.00    +0.151 C 
ENDROOT
BRANCH   1   2
ATOM      2  O   UNL     1       7.813  -5.565  27.326  0.00  0.00    -0.389 OA
ATOM      3  H   UNL     1       7.446  -5.170  28.138  0.00  0.00    +0.210 HD
ENDBRANCH   1   2
BRANCH   1   4
ATOM      4  C   UNL     1       6.648  -4.161  25.755  0.00  0.00    +0.142 C 
BRANCH   4   5
ATOM      5  N   UNL     1       7.361  -3.830  24.464  0.00  0.00    -0.174 NA
BRANCH   5   6
ATOM      6  S   UNL     1       8.796  -2.921  24.739  0.00  0.00    +0.061 S 
ATOM      7  O   UNL     1       9.901  -3.764  24.339  0.00  0.00    -0.153 OA
ATOM      8  O   UNL     1       8.725  -2.411  26.097  0.00  0.00    -0.153 OA
BRANCH   6   9
ATOM      9  C   UNL     1       8.789  -1.500  23.655  0.00  0.00    +0.106 A 
ATOM     10  C   UNL     1       9.418  -1.600  22.408  0.00  0.00    +0.030 A 
ATOM     11  C   UNL     1       9.700  -0.443  21.672  0.00  0.00    +0.024 A 
ATOM     12  C   UNL     1       9.331   0.818  22.145  0.00  0.00    +0.025 A 
ATOM     13  C   UNL     1       8.708   0.905  23.397  0.00  0.00    +0.024 A 
ATOM     14  C   UNL     1       8.429  -0.245  24.150  0.00  0.00    +0.030 A 
BRANCH  12  15
ATOM     15  N   UNL     1       9.820   1.969  21.518  0.00  0.00    -0.358 N 
ATOM     16  H   UNL     1      10.558   1.811  20.840  0.00  0.00    +0.142 HD
ATOM     17  H   UNL     1       9.112   2.615  21.189  0.00  0.00    +0.142 HD
ENDBRANCH  12  15
ENDBRANCH   6   9
ENDBRANCH   5   6
BRANCH   5  18
ATOM     18  C   UNL     1       7.445  -4.927  23.445  0.00  0.00    +0.112 C 
BRANCH  18  20
ATOM     19  C   UNL     1       6.362  -5.734  21.264  0.00  0.00    +0.008 C 
ATOM     20  C   UNL     1       6.960  -4.553  22.021  0.00  0.00    -0.001 C 
ATOM     21  C   UNL     1       5.928  -3.420  22.094  0.00  0.00    +0.008 C 
ENDBRANCH  18  20
ENDBRANCH   5  18
ENDBRANCH   4   5
ENDBRANCH   1   4
BRANCH   1  22
ATOM     22  C   UNL     1       5.487  -6.209  26.982  0.00  0.00    +0.110 C 
BRANCH  22  23
ATOM     23  N   UNL     1       4.670  -5.208  27.699  0.00  0.00    -0.275 N 
ATOM     24  H   UNL     1       3.998  -4.680  27.161  0.00  0.00    +0.152 HD
ATOM     25  C   UNL     1       5.023  -4.654  28.892  0.00  0.00    +0.401 C 
ATOM     26  O   UNL     1       5.755  -5.150  29.739  0.00  0.00    -0.226 OA
BRANCH  25  27
ATOM     27  O   UNL     1       4.537  -3.384  28.951  0.00  0.00    -0.445 OA
BRANCH  27  28
ATOM     28  C   UNL     1       3.735  -3.017  27.826  0.00  0.00    +0.206 C 
ATOM     29  C   UNL     1       4.186  -1.686  27.243  0.00  0.00    +0.204 C 
ATOM     30  O   UNL     1       3.045  -1.095  26.595  0.00  0.00    -0.376 OA
ATOM     31  C   UNL     1       1.888  -1.872  26.949  0.00  0.00    +0.163 C 
ATOM     32  C   UNL     1       2.283  -2.709  28.146  0.00  0.00    +0.075 C 
ENDBRANCH  27  28
ENDBRANCH  25  27
ENDBRANCH  22  23
BRANCH  22  33
ATOM     33  C   UNL     1       4.616  -7.106  26.063  0.00  0.00    +0.060 C 
BRANCH  33  34
ATOM     34  C   UNL     1       3.555  -6.386  25.232  0.00  0.00    -0.046 A 
ATOM     35  C   UNL     1       3.891  -5.955  23.938  0.00  0.00    +0.004 A 
ATOM     36  C   UNL     1       2.911  -5.459  23.072  0.00  0.00    +0.000 A 
ATOM     37  C   UNL     1       1.588  -5.360  23.492  0.00  0.00    +0.000 A 
ATOM     38  C   UNL     1       1.253  -5.706  24.794  0.00  0.00    +0.000 A 
ATOM     39  C   UNL     1       2.229  -6.204  25.656  0.00  0.00    +0.004 A 
ENDBRANCH  33  34
ENDBRANCH  22  33
ENDBRANCH   1  22
TORSDOF 14
ENDMDL
MODEL 9
REMARK VINA RESULT:      -6.2      2.476      7.901
REMARK  Name = 
REMARK  16 active torsions:
REMARK  status: ('A' for Active; 'I' for Inactive)
REMARK    1  A    between atoms: C_1  and  C_2
REMARK    2  A    between atoms: C_2  and  C_3
REMARK    3  A    between atoms: C_2  and  C_4
REMARK    4  A    between atoms: C_4  and  N_5
REMARK    5  A    between atoms: N_5  and  C_6
REMARK    6  A    between atoms: N_5  and  S_29
REMARK    7  A    between atoms: C_6  and  C_7
REMARK    8  A    between atoms: C_7  and  C_9
REMARK    9  A    between atoms: C_7  and  O_28
REMARK   10  A    between atoms: C_9  and  C_11
REMARK   11  A    between atoms: C_9  and  N_18
REMARK   12  A    between atoms: C_11  and  C_12
REMARK   13  A    between atoms: C_19  and  O_21
REMARK   14  A    between atoms: O_21  and  C_22
REMARK   15  A    between atoms: S_29  and  C_32
REMARK   16  A    between atoms: C_35  and  N_38
REMARK                            x       y       z     vdW  Elec       q    Type
REMARK                         _______ _______ _______ _____ _____    ______ ____
ROOT
ATOM      1  C   UNL     1       7.767  -2.304  26.339  0.00  0.00    +0.151 C 
ENDROOT
BRANCH   1   2
ATOM      2  O   UNL     1       9.034  -1.678  26.599  0.00  0.00    -0.389 OA
ATOM      3  H   UNL     1       9.575  -1.765  25.793  0.00  0.00    +0.210 HD
ENDBRANCH   1   2
BRANCH   1   4
ATOM      4  C   UNL     1       7.939  -3.145  25.034  0.00  0.00    +0.142 C 
BRANCH   4   5
ATOM      5  N   UNL     1       7.753  -2.479  23.690  0.00  0.00    -0.174 NA
BRANCH   5   6
ATOM      6  S   UNL     1       9.258  -2.056  22.971  0.00  0.00    +0.061 S 
ATOM      7  O   UNL     1       9.134  -2.340  21.558  0.00  0.00    -0.153 OA
ATOM      8  O   UNL     1      10.300  -2.696  23.752  0.00  0.00    -0.153 OA
BRANCH   6   9
ATOM      9  C   UNL     1       9.497  -0.293  23.140  0.00  0.00    +0.106 A 
ATOM     10  C   UNL     1       9.239   0.532  22.037  0.00  0.00    +0.030 A 
ATOM     11  C   UNL     1       9.699   1.855  22.031  0.00  0.00    +0.024 A 
ATOM     12  C   UNL     1      10.384   2.383  23.128  0.00  0.00    +0.025 A 
ATOM     13  C   UNL     1      10.640   1.546  24.221  0.00  0.00    +0.024 A 
ATOM     14  C   UNL     1      10.195   0.216  24.237  0.00  0.00    +0.030 A 
BRANCH  12  15
ATOM     15  N   UNL     1      11.032   3.617  23.015  0.00  0.00    -0.358 N 
ATOM     16  H   UNL     1      10.657   4.358  23.598  0.00  0.00    +0.142 HD
ATOM     17  H   UNL     1      12.045   3.576  23.030  0.00  0.00    +0.142 HD
ENDBRANCH  12  15
ENDBRANCH   6   9
ENDBRANCH   5   6
BRANCH   5  18
ATOM     18  C   UNL     1       6.720  -3.079  22.783  0.00  0.00    +0.112 C 
BRANCH  18  20
ATOM     19  C   UNL     1       4.930  -4.907  22.972  0.00  0.00    +0.008 C 
ATOM     20  C   UNL     1       6.419  -4.581  23.017  0.00  0.00    -0.001 C 
ATOM     21  C   UNL     1       7.158  -5.437  21.981  0.00  0.00    +0.008 C 
ENDBRANCH  18  20
ENDBRANCH   5  18
ENDBRANCH   4   5
ENDBRANCH   1   4
BRANCH   1  22
ATOM     22  C   UNL     1       6.649  -1.236  26.352  0.00  0.00    +0.110 C 
BRANCH  22  23
ATOM     23  N   UNL     1       5.417  -1.705  27.020  0.00  0.00    -0.275 N 
ATOM     24  H   UNL     1       5.448  -1.840  28.021  0.00  0.00    +0.152 HD
ATOM     25  C   UNL     1       4.406  -2.354  26.379  0.00  0.00    +0.401 C 
ATOM     26  O   UNL     1       4.127  -2.275  25.189  0.00  0.00    -0.226 OA
BRANCH  25  27
ATOM     27  O   UNL     1       3.818  -3.224  27.246  0.00  0.00    -0.445 OA
BRANCH  27  28
ATOM     28  C   UNL     1       3.841  -4.585  26.807  0.00  0.00    +0.206 C 
ATOM     29  C   UNL     1       3.187  -5.500  27.831  0.00  0.00    +0.204 C 
ATOM     30  O   UNL     1       3.769  -6.806  27.670  0.00  0.00    -0.376 OA
ATOM     31  C   UNL     1       4.890  -6.679  26.778  0.00  0.00    +0.163 C 
ATOM     32  C   UNL     1       5.224  -5.205  26.714  0.00  0.00    +0.075 C 
ENDBRANCH  27  28
ENDBRANCH  25  27
ENDBRANCH  22  23
BRANCH  22  33
ATOM     33  C   UNL     1       7.052   0.185  26.828  0.00  0.00    +0.060 C 
BRANCH  33  34
ATOM     34  C   UNL     1       7.061   1.275  25.757  0.00  0.00    -0.046 A 
ATOM     35  C   UNL     1       6.434   1.015  24.528  0.00  0.00    +0.004 A 
ATOM     36  C   UNL     1       6.253   2.034  23.587  0.00  0.00    +0.000 A 
ATOM     37  C   UNL     1       6.718   3.320  23.847  0.00  0.00    +0.000 A 
ATOM     38  C   UNL     1       7.411   3.575  25.023  0.00  0.00    +0.000 A 
ATOM     39  C   UNL     1       7.589   2.560  25.962  0.00  0.00    +0.004 A 
ENDBRANCH  33  34
ENDBRANCH  22  33
ENDBRANCH   1  22
TORSDOF 14
ENDMDL
