MODEL 1
REMARK VINA RESULT:      -6.9      0.000      0.000
REMARK  Name = 
REMARK  4 active torsions:
REMARK  status: ('A' for Active; 'I' for Inactive)
REMARK    1  A    between atoms: C_3  and  N_13
REMARK    2  A    between atoms: C_6  and  O_12
REMARK    3  A    between atoms: C_8  and  C_10
REMARK    4  A    between atoms: C_10  and  O_11
REMARK                            x       y       z     vdW  Elec       q    Type
REMARK                         _______ _______ _______ _____ _____    ______ ____
ROOT
ATOM      1  N   UNL     1       8.691  -1.832  22.966  0.00  0.00    -0.172 N 
ATOM      2  C   UNL     1       8.741  -3.014  23.680  0.00  0.00    +0.337 C 
ATOM      3  N   UNL     1       9.696  -3.632  24.284  0.00  0.00    +0.023 NA
ATOM      4  C   UNL     1       9.319  -4.614  25.172  0.00  0.00    +0.450 C 
ATOM      5  N   UNL     1      10.256  -5.471  25.650  0.00  0.00    -0.241 N 
ATOM      6  H   UNL     1       9.820  -6.135  26.285  0.00  0.00    +0.242 HD
ATOM      7  H   UNL     1      10.774  -5.944  24.922  0.00  0.00    +0.242 HD
ATOM      8  N   UNL     1       8.126  -4.766  25.644  0.00  0.00    +0.008 NA
ATOM      9  C   UNL     1       7.112  -3.955  25.200  0.00  0.00    +0.347 C 
ATOM     10  O   UNL     1       6.107  -3.748  25.860  0.00  0.00    -0.251 OA
ATOM     11  C   UNL     1       7.302  -3.482  23.785  0.00  0.00    +0.329 C 
ATOM     12  N   UNL     1       6.483  -2.277  23.413  0.00  0.00    -0.228 NA
ATOM     13  C   UNL     1       7.374  -1.445  22.952  0.00  0.00    +0.302 C 
ENDROOT
BRANCH   1  19
ATOM     14  C   UNL     1      10.340   0.110  25.123  0.00  0.00    +0.012 C 
ATOM     15  C   UNL     1       9.749   0.191  23.917  0.00  0.00    -0.026 C 
ATOM     16  C   UNL     1       9.106   1.447  23.371  0.00  0.00    +0.072 C 
ATOM     17  C   UNL     1       9.378   1.333  21.861  0.00  0.00    +0.128 C 
ATOM     18  C   UNL     1       9.837  -0.101  21.560  0.00  0.00    +0.084 C 
ATOM     19  C   UNL     1       9.813  -0.899  22.865  0.00  0.00    +0.203 C 
BRANCH  17  20
ATOM     20  O   UNL     1       8.272   1.675  21.037  0.00  0.00    -0.391 OA
ATOM     21  H   UNL     1       8.601   1.679  20.114  0.00  0.00    +0.210 HD
ENDBRANCH  17  20
BRANCH  16  22
ATOM     22  C   UNL     1       7.630   1.652  23.745  0.00  0.00    +0.166 C 
BRANCH  22  23
ATOM     23  O   UNL     1       7.175   2.964  23.421  0.00  0.00    -0.394 OA
ATOM     24  H   UNL     1       6.931   2.948  22.476  0.00  0.00    +0.209 HD
ENDBRANCH  22  23
ENDBRANCH  16  22
ENDBRANCH   1  19
TORSDOF 4
ENDMDL
MODEL 2
REMARK VINA RESULT:      -6.7      1.139      1.278
REMARK  Name = 
REMARK  4 active torsions:
REMARK  status: ('A' for Active; 'I' for Inactive)
REMARK    1  A    between atoms: C_3  and  N_13
REMARK    2  A    between atoms: C_6  and  O_12
REMARK    3  A    between atoms: C_8  and  C_10
REMARK    4  A    between atoms: C_10  and  O_11
REMARK                            x       y       z     vdW  Elec       q    Type
REMARK                         _______ _______ _______ _____ _____    ______ ____
ROOT
ATOM      1  N   UNL     1       8.799  -1.464  23.362  0.00  0.00    -0.172 N 
ATOM      2  C   UNL     1       8.934  -2.796  23.701  0.00  0.00    +0.337 C 
ATOM      3  N   UNL     1       9.692  -3.414  24.540  0.00  0.00    +0.023 NA
ATOM      4  C   UNL     1       9.326  -4.703  24.855  0.00  0.00    +0.450 C 
ATOM      5  N   UNL     1      10.201  -5.495  25.523  0.00  0.00    -0.241 N 
ATOM      6  H   UNL     1       9.786  -6.412  25.673  0.00  0.00    +0.242 HD
ATOM      7  H   UNL     1      11.101  -5.569  25.069  0.00  0.00    +0.242 HD
ATOM      8  N   UNL     1       8.171  -5.226  24.607  0.00  0.00    +0.008 NA
ATOM      9  C   UNL     1       7.231  -4.500  23.916  0.00  0.00    +0.347 C 
ATOM     10  O   UNL     1       6.036  -4.731  24.005  0.00  0.00    -0.251 OA
ATOM     11  C   UNL     1       7.830  -3.516  22.950  0.00  0.00    +0.329 C 
ATOM     12  N   UNL     1       6.895  -2.423  22.511  0.00  0.00    -0.228 NA
ATOM     13  C   UNL     1       7.565  -1.337  22.775  0.00  0.00    +0.302 C 
ENDROOT
BRANCH   1  19
ATOM     14  C   UNL     1       7.920   0.730  25.719  0.00  0.00    +0.012 C 
ATOM     15  C   UNL     1       8.519   0.706  24.515  0.00  0.00    -0.026 C 
ATOM     16  C   UNL     1       8.469   1.846  23.520  0.00  0.00    +0.072 C 
ATOM     17  C   UNL     1       9.843   1.753  22.835  0.00  0.00    +0.128 C 
ATOM     18  C   UNL     1      10.470   0.399  23.194  0.00  0.00    +0.084 C 
ATOM     19  C   UNL     1       9.480  -0.376  24.065  0.00  0.00    +0.203 C 
BRANCH  17  20
ATOM     20  O   UNL     1       9.808   1.916  21.423  0.00  0.00    -0.391 OA
ATOM     21  H   UNL     1      10.499   1.326  21.057  0.00  0.00    +0.210 HD
ENDBRANCH  17  20
BRANCH  16  22
ATOM     22  C   UNL     1       7.269   1.836  22.560  0.00  0.00    +0.166 C 
BRANCH  22  23
ATOM     23  O   UNL     1       7.115   3.083  21.886  0.00  0.00    -0.394 OA
ATOM     24  H   UNL     1       8.015   3.432  21.740  0.00  0.00    +0.209 HD
ENDBRANCH  22  23
ENDBRANCH  16  22
ENDBRANCH   1  19
TORSDOF 4
ENDMDL
MODEL 3
REMARK VINA RESULT:      -6.7      1.568      1.799
REMARK  Name = 
REMARK  4 active torsions:
REMARK  status: ('A' for Active; 'I' for Inactive)
REMARK    1  A    between atoms: C_3  and  N_13
REMARK    2  A    between atoms: C_6  and  O_12
REMARK    3  A    between atoms: C_8  and  C_10
REMARK    4  A    between atoms: C_10  and  O_11
REMARK                            x       y       z     vdW  Elec       q    Type
REMARK                         _______ _______ _______ _____ _____    ______ ____
ROOT
ATOM      1  N   UNL     1       8.708  -3.168  23.336  0.00  0.00    -0.172 N 
ATOM      2  C   UNL     1       8.214  -4.147  24.176  0.00  0.00    +0.337 C 
ATOM      3  N   UNL     1       8.502  -4.493  25.383  0.00  0.00    +0.023 NA
ATOM      4  C   UNL     1       7.583  -5.293  26.023  0.00  0.00    +0.450 C 
ATOM      5  N   UNL     1       7.928  -5.899  27.186  0.00  0.00    -0.241 N 
ATOM      6  H   UNL     1       7.148  -6.455  27.527  0.00  0.00    +0.242 HD
ATOM      7  H   UNL     1       8.770  -6.453  27.114  0.00  0.00    +0.242 HD
ATOM      8  N   UNL     1       6.368  -5.485  25.629  0.00  0.00    +0.008 NA
ATOM      9  C   UNL     1       5.940  -4.925  24.450  0.00  0.00    +0.347 C 
ATOM     10  O   UNL     1       4.761  -4.703  24.225  0.00  0.00    -0.251 OA
ATOM     11  C   UNL     1       7.038  -4.756  23.437  0.00  0.00    +0.329 C 
ATOM     12  N   UNL     1       6.731  -3.775  22.339  0.00  0.00    -0.228 NA
ATOM     13  C   UNL     1       7.748  -2.961  22.378  0.00  0.00    +0.302 C 
ENDROOT
BRANCH   1  19
ATOM     14  C   UNL     1       8.829  -0.927  25.807  0.00  0.00    +0.012 C 
ATOM     15  C   UNL     1       8.999  -0.992  24.474  0.00  0.00    -0.026 C 
ATOM     16  C   UNL     1       8.722   0.156  23.528  0.00  0.00    +0.072 C 
ATOM     17  C   UNL     1       9.785  -0.047  22.435  0.00  0.00    +0.128 C 
ATOM     18  C   UNL     1      10.381  -1.452  22.597  0.00  0.00    +0.084 C 
ATOM     19  C   UNL     1       9.668  -2.148  23.759  0.00  0.00    +0.203 C 
BRANCH  17  20
ATOM     20  O   UNL     1       9.306   0.130  21.109  0.00  0.00    -0.391 OA
ATOM     21  H   UNL     1       9.923   0.750  20.669  0.00  0.00    +0.210 HD
ENDBRANCH  17  20
BRANCH  16  22
ATOM     22  C   UNL     1       7.278   0.255  23.011  0.00  0.00    +0.166 C 
BRANCH  22  23
ATOM     23  O   UNL     1       7.053   1.461  22.285  0.00  0.00    -0.394 OA
ATOM     24  H   UNL     1       6.206   1.348  21.813  0.00  0.00    +0.209 HD
ENDBRANCH  22  23
ENDBRANCH  16  22
ENDBRANCH   1  19
TORSDOF 4
ENDMDL
MODEL 4
REMARK VINA RESULT:      -6.5      1.651      1.826
REMARK  Name = 
REMARK  4 active torsions:
REMARK  status: ('A' for Active; 'I' for Inactive)
REMARK    1  A    between atoms: C_3  and  N_13
REMARK    2  A    between atoms: C_6  and  O_12
REMARK    3  A    between atoms: C_8  and  C_10
REMARK    4  A    between atoms: C_10  and  O_11
REMARK                            x       y       z     vdW  Elec       q    Type
REMARK                         _______ _______ _______ _____ _____    ______ ____
ROOT
ATOM      1  N   UNL     1       8.229  -1.248  23.750  0.00  0.00    -0.172 N 
ATOM      2  C   UNL     1       7.593  -2.438  23.457  0.00  0.00    +0.337 C 
ATOM      3  N   UNL     1       7.872  -3.405  22.652  0.00  0.00    +0.023 NA
ATOM      4  C   UNL     1       7.193  -4.584  22.858  0.00  0.00    +0.450 C 
ATOM      5  N   UNL     1       7.242  -5.553  21.911  0.00  0.00    -0.241 N 
ATOM      6  H   UNL     1       6.689  -6.352  22.209  0.00  0.00    +0.242 HD
ATOM      7  H   UNL     1       6.960  -5.231  20.995  0.00  0.00    +0.242 HD
ATOM      8  N   UNL     1       6.534  -4.880  23.930  0.00  0.00    +0.008 NA
ATOM      9  C   UNL     1       6.416  -3.950  24.933  0.00  0.00    +0.347 C 
ATOM     10  O   UNL     1       6.194  -4.266  26.091  0.00  0.00    -0.251 OA
ATOM     11  C   UNL     1       6.439  -2.531  24.436  0.00  0.00    +0.329 C 
ATOM     12  N   UNL     1       6.753  -1.504  25.490  0.00  0.00    -0.228 NA
ATOM     13  C   UNL     1       7.752  -0.846  24.973  0.00  0.00    +0.302 C 
ENDROOT
BRANCH   1  19
ATOM     14  C   UNL     1      10.848   0.434  24.957  0.00  0.00    +0.012 C 
ATOM     15  C   UNL     1      10.078   0.391  23.855  0.00  0.00    -0.026 C 
ATOM     16  C   UNL     1       9.791   1.588  22.974  0.00  0.00    +0.072 C 
ATOM     17  C   UNL     1       9.685   0.958  21.575  0.00  0.00    +0.128 C 
ATOM     18  C   UNL     1       9.564  -0.564  21.741  0.00  0.00    +0.084 C 
ATOM     19  C   UNL     1       9.550  -0.888  23.236  0.00  0.00    +0.203 C 
BRANCH  17  20
ATOM     20  O   UNL     1       8.609   1.451  20.789  0.00  0.00    -0.391 OA
ATOM     21  H   UNL     1       8.902   1.407  19.855  0.00  0.00    +0.210 HD
ENDBRANCH  17  20
BRANCH  16  22
ATOM     22  C   UNL     1       8.582   2.442  23.389  0.00  0.00    +0.166 C 
BRANCH  22  23
ATOM     23  O   UNL     1       8.513   3.661  22.653  0.00  0.00    -0.394 OA
ATOM     24  H   UNL     1       7.956   3.482  21.871  0.00  0.00    +0.209 HD
ENDBRANCH  22  23
ENDBRANCH  16  22
ENDBRANCH   1  19
TORSDOF 4
ENDMDL
MODEL 5
REMARK VINA RESULT:      -6.4      2.333      6.031
REMARK  Name = 
REMARK  4 active torsions:
REMARK  status: ('A' for Active; 'I' for Inactive)
REMARK    1  A    between atoms: C_3  and  N_13
REMARK    2  A    between atoms: C_6  and  O_12
REMARK    3  A    between atoms: C_8  and  C_10
REMARK    4  A    between atoms: C_10  and  O_11
REMARK                            x       y       z     vdW  Elec       q    Type
REMARK                         _______ _______ _______ _____ _____    ______ ____
ROOT
ATOM      1  N   UNL     1       8.287  -2.181  23.170  0.00  0.00    -0.172 N 
ATOM      2  C   UNL     1       7.896  -0.940  22.708  0.00  0.00    +0.337 C 
ATOM      3  N   UNL     1       6.881  -0.189  22.965  0.00  0.00    +0.023 NA
ATOM      4  C   UNL     1       6.982   1.126  22.573  0.00  0.00    +0.450 C 
ATOM      5  N   UNL     1       5.873   1.906  22.578  0.00  0.00    -0.241 N 
ATOM      6  H   UNL     1       6.111   2.842  22.259  0.00  0.00    +0.242 HD
ATOM      7  H   UNL     1       5.108   1.518  22.043  0.00  0.00    +0.242 HD
ATOM      8  N   UNL     1       8.081   1.715  22.237  0.00  0.00    +0.008 NA
ATOM      9  C   UNL     1       9.249   0.995  22.184  0.00  0.00    +0.347 C 
ATOM     10  O   UNL     1      10.345   1.522  22.291  0.00  0.00    -0.251 OA
ATOM     11  C   UNL     1       9.041  -0.454  21.840  0.00  0.00    +0.329 C 
ATOM     12  N   UNL     1      10.194  -1.352  22.196  0.00  0.00    -0.228 NA
ATOM     13  C   UNL     1       9.633  -2.281  22.917  0.00  0.00    +0.302 C 
ENDROOT
BRANCH   1  19
ATOM     14  C   UNL     1       8.897  -4.970  24.901  0.00  0.00    +0.012 C 
ATOM     15  C   UNL     1       7.891  -4.381  24.229  0.00  0.00    -0.026 C 
ATOM     16  C   UNL     1       6.793  -5.137  23.513  0.00  0.00    +0.072 C 
ATOM     17  C   UNL     1       5.579  -4.210  23.686  0.00  0.00    +0.128 C 
ATOM     18  C   UNL     1       6.083  -2.841  24.167  0.00  0.00    +0.084 C 
ATOM     19  C   UNL     1       7.610  -2.892  24.254  0.00  0.00    +0.203 C 
BRANCH  17  20
ATOM     20  O   UNL     1       4.786  -4.055  22.517  0.00  0.00    -0.391 OA
ATOM     21  H   UNL     1       4.477  -3.125  22.510  0.00  0.00    +0.210 HD
ENDBRANCH  17  20
BRANCH  16  22
ATOM     22  C   UNL     1       7.099  -5.532  22.059  0.00  0.00    +0.166 C 
BRANCH  22  23
ATOM     23  O   UNL     1       6.112  -6.412  21.526  0.00  0.00    -0.394 OA
ATOM     24  H   UNL     1       6.486  -7.312  21.576  0.00  0.00    +0.209 HD
ENDBRANCH  22  23
ENDBRANCH  16  22
ENDBRANCH   1  19
TORSDOF 4
ENDMDL
MODEL 6
REMARK VINA RESULT:      -6.3      2.375      5.936
REMARK  Name = 
REMARK  4 active torsions:
REMARK  status: ('A' for Active; 'I' for Inactive)
REMARK    1  A    between atoms: C_3  and  N_13
REMARK    2  A    between atoms: C_6  and  O_12
REMARK    3  A    between atoms: C_8  and  C_10
REMARK    4  A    between atoms: C_10  and  O_11
REMARK                            x       y       z     vdW  Elec       q    Type
REMARK                         _______ _______ _______ _____ _____    ______ ____
ROOT
ATOM      1  N   UNL     1       8.198  -1.523  24.638  0.00  0.00    -0.172 N 
ATOM      2  C   UNL     1       8.720  -0.386  24.052  0.00  0.00    +0.337 C 
ATOM      3  N   UNL     1       8.829  -0.004  22.826  0.00  0.00    +0.023 NA
ATOM      4  C   UNL     1       9.098   1.331  22.627  0.00  0.00    +0.450 C 
ATOM      5  N   UNL     1       9.475   1.755  21.395  0.00  0.00    -0.241 N 
ATOM      6  H   UNL     1       9.641   2.757  21.414  0.00  0.00    +0.242 HD
ATOM      7  H   UNL     1      10.274   1.256  21.027  0.00  0.00    +0.242 HD
ATOM      8  N   UNL     1       8.972   2.253  23.523  0.00  0.00    +0.008 NA
ATOM      9  C   UNL     1       8.614   1.911  24.804  0.00  0.00    +0.347 C 
ATOM     10  O   UNL     1       8.083   2.702  25.565  0.00  0.00    -0.251 OA
ATOM     11  C   UNL     1       9.073   0.535  25.204  0.00  0.00    +0.329 C 
ATOM     12  N   UNL     1       8.350  -0.045  26.389  0.00  0.00    -0.228 NA
ATOM     13  C   UNL     1       7.932  -1.197  25.945  0.00  0.00    +0.302 C 
ENDROOT
BRANCH   1  19
ATOM     14  C   UNL     1       5.271  -3.083  25.012  0.00  0.00    +0.012 C 
ATOM     15  C   UNL     1       6.566  -3.374  24.790  0.00  0.00    -0.026 C 
ATOM     16  C   UNL     1       7.237  -4.653  25.244  0.00  0.00    +0.072 C 
ATOM     17  C   UNL     1       8.263  -4.907  24.126  0.00  0.00    +0.128 C 
ATOM     18  C   UNL     1       8.388  -3.627  23.287  0.00  0.00    +0.084 C 
ATOM     19  C   UNL     1       7.479  -2.558  23.897  0.00  0.00    +0.203 C 
BRANCH  17  20
ATOM     20  O   UNL     1       9.544  -5.315  24.587  0.00  0.00    -0.391 OA
ATOM     21  H   UNL     1       9.454  -6.249  24.869  0.00  0.00    +0.210 HD
ENDBRANCH  17  20
BRANCH  16  22
ATOM     22  C   UNL     1       7.825  -4.626  26.663  0.00  0.00    +0.166 C 
BRANCH  22  23
ATOM     23  O   UNL     1       8.072  -5.938  27.163  0.00  0.00    -0.394 OA
ATOM     24  H   UNL     1       8.041  -6.539  26.394  0.00  0.00    +0.209 HD
ENDBRANCH  22  23
ENDBRANCH  16  22
ENDBRANCH   1  19
TORSDOF 4
ENDMDL
MODEL 7
REMARK VINA RESULT:      -6.3      1.950      3.103
REMARK  Name = 
REMARK  4 active torsions:
REMARK  status: ('A' for Active; 'I' for Inactive)
REMARK    1  A    between atoms: C_3  and  N_13
REMARK    2  A    between atoms: C_6  and  O_12
REMARK    3  A    between atoms: C_8  and  C_10
REMARK    4  A    between atoms: C_10  and  O_11
REMARK                            x       y       z     vdW  Elec       q    Type
REMARK                         _______ _______ _______ _____ _____    ______ ____
ROOT
ATOM      1  N   UNL     1       8.599  -1.529  24.001  0.00  0.00    -0.172 N 
ATOM      2  C   UNL     1       7.935  -2.555  24.644  0.00  0.00    +0.337 C 
ATOM      3  N   UNL     1       6.692  -2.761  24.915  0.00  0.00    +0.023 NA
ATOM      4  C   UNL     1       6.351  -4.045  25.273  0.00  0.00    +0.450 C 
ATOM      5  N   UNL     1       5.129  -4.281  25.812  0.00  0.00    -0.241 N 
ATOM      6  H   UNL     1       5.034  -5.271  26.025  0.00  0.00    +0.242 HD
ATOM      7  H   UNL     1       4.932  -3.709  26.622  0.00  0.00    +0.242 HD
ATOM      8  N   UNL     1       7.094  -5.086  25.090  0.00  0.00    +0.008 NA
ATOM      9  C   UNL     1       8.356  -4.936  24.568  0.00  0.00    +0.347 C 
ATOM     10  O   UNL     1       8.934  -5.843  23.992  0.00  0.00    -0.251 OA
ATOM     11  C   UNL     1       8.988  -3.614  24.907  0.00  0.00    +0.329 C 
ATOM     12  N   UNL     1      10.142  -3.229  24.023  0.00  0.00    -0.228 NA
ATOM     13  C   UNL     1       9.808  -2.042  23.602  0.00  0.00    +0.302 C 
ENDROOT
BRANCH   1  19
ATOM     14  C   UNL     1       9.265   0.360  21.331  0.00  0.00    +0.012 C 
ATOM     15  C   UNL     1       8.891   0.498  22.615  0.00  0.00    -0.026 C 
ATOM     16  C   UNL     1       9.234   1.696  23.473  0.00  0.00    +0.072 C 
ATOM     17  C   UNL     1       8.001   1.819  24.386  0.00  0.00    +0.128 C 
ATOM     18  C   UNL     1       7.184   0.525  24.269  0.00  0.00    +0.084 C 
ATOM     19  C   UNL     1       7.919  -0.426  23.321  0.00  0.00    +0.203 C 
BRANCH  17  20
ATOM     20  O   UNL     1       8.304   2.084  25.749  0.00  0.00    -0.391 OA
ATOM     21  H   UNL     1       9.223   2.422  25.770  0.00  0.00    +0.210 HD
ENDBRANCH  17  20
BRANCH  16  22
ATOM     22  C   UNL     1      10.578   1.619  24.214  0.00  0.00    +0.166 C 
BRANCH  22  23
ATOM     23  O   UNL     1      10.547   0.668  25.276  0.00  0.00    -0.394 OA
ATOM     24  H   UNL     1      10.251  -0.176  24.885  0.00  0.00    +0.209 HD
ENDBRANCH  22  23
ENDBRANCH  16  22
ENDBRANCH   1  19
TORSDOF 4
ENDMDL
MODEL 8
REMARK VINA RESULT:      -6.2      2.448      3.191
REMARK  Name = 
REMARK  4 active torsions:
REMARK  status: ('A' for Active; 'I' for Inactive)
REMARK    1  A    between atoms: C_3  and  N_13
REMARK    2  A    between atoms: C_6  and  O_12
REMARK    3  A    between atoms: C_8  and  C_10
REMARK    4  A    between atoms: C_10  and  O_11
REMARK                            x       y       z     vdW  Elec       q    Type
REMARK                         _______ _______ _______ _____ _____    ______ ____
ROOT
ATOM      1  N   UNL     1       6.884  -1.341  23.353  0.00  0.00    -0.172 N 
ATOM      2  C   UNL     1       6.546  -2.614  22.936  0.00  0.00    +0.337 C 
ATOM      3  N   UNL     1       7.160  -3.493  22.222  0.00  0.00    +0.023 NA
ATOM      4  C   UNL     1       6.669  -4.777  22.282  0.00  0.00    +0.450 C 
ATOM      5  N   UNL     1       7.095  -5.694  21.378  0.00  0.00    -0.241 N 
ATOM      6  H   UNL     1       6.637  -6.585  21.552  0.00  0.00    +0.242 HD
ATOM      7  H   UNL     1       6.970  -5.397  20.419  0.00  0.00    +0.242 HD
ATOM      8  N   UNL     1       5.850  -5.214  23.182  0.00  0.00    +0.008 NA
ATOM      9  C   UNL     1       5.352  -4.349  24.125  0.00  0.00    +0.347 C 
ATOM     10  O   UNL     1       4.939  -4.733  25.206  0.00  0.00    -0.251 OA
ATOM     11  C   UNL     1       5.238  -2.933  23.633  0.00  0.00    +0.329 C 
ATOM     12  N   UNL     1       5.127  -1.900  24.721  0.00  0.00    -0.228 NA
ATOM     13  C   UNL     1       6.085  -1.065  24.435  0.00  0.00    +0.302 C 
ENDROOT
BRANCH   1  19
ATOM     14  C   UNL     1      10.031  -2.387  23.737  0.00  0.00    +0.012 C 
ATOM     15  C   UNL     1       9.254  -1.338  24.061  0.00  0.00    -0.026 C 
ATOM     16  C   UNL     1       9.448  -0.489  25.299  0.00  0.00    +0.072 C 
ATOM     17  C   UNL     1       9.008   0.906  24.821  0.00  0.00    +0.128 C 
ATOM     18  C   UNL     1       8.267   0.746  23.486  0.00  0.00    +0.084 C 
ATOM     19  C   UNL     1       8.203  -0.744  23.144  0.00  0.00    +0.203 C 
BRANCH  17  20
ATOM     20  O   UNL     1       8.197   1.615  25.748  0.00  0.00    -0.391 OA
ATOM     21  H   UNL     1       8.209   2.553  25.469  0.00  0.00    +0.210 HD
ENDBRANCH  17  20
BRANCH  16  22
ATOM     22  C   UNL     1       8.736  -0.990  26.565  0.00  0.00    +0.166 C 
BRANCH  22  23
ATOM     23  O   UNL     1       9.219  -0.342  27.740  0.00  0.00    -0.394 OA
ATOM     24  H   UNL     1       8.445   0.073  28.166  0.00  0.00    +0.209 HD
ENDBRANCH  22  23
ENDBRANCH  16  22
ENDBRANCH   1  19
TORSDOF 4
ENDMDL
MODEL 9
REMARK VINA RESULT:      -6.1      2.370      3.177
REMARK  Name = 
REMARK  4 active torsions:
REMARK  status: ('A' for Active; 'I' for Inactive)
REMARK    1  A    between atoms: C_3  and  N_13
REMARK    2  A    between atoms: C_6  and  O_12
REMARK    3  A    between atoms: C_8  and  C_10
REMARK    4  A    between atoms: C_10  and  O_11
REMARK                            x       y       z     vdW  Elec       q    Type
REMARK                         _______ _______ _______ _____ _____    ______ ____
ROOT
ATOM      1  N   UNL     1       7.971  -4.005  23.649  0.00  0.00    -0.172 N 
ATOM      2  C   UNL     1       7.081  -4.930  24.157  0.00  0.00    +0.337 C 
ATOM      3  N   UNL     1       6.813  -5.321  25.356  0.00  0.00    +0.023 NA
ATOM      4  C   UNL     1       5.638  -6.017  25.520  0.00  0.00    +0.450 C 
ATOM      5  N   UNL     1       5.414  -6.673  26.686  0.00  0.00    -0.241 N 
ATOM      6  H   UNL     1       4.511  -7.140  26.648  0.00  0.00    +0.242 HD
ATOM      7  H   UNL     1       6.152  -7.320  26.929  0.00  0.00    +0.242 HD
ATOM      8  N   UNL     1       4.678  -6.063  24.657  0.00  0.00    +0.008 NA
ATOM      9  C   UNL     1       4.829  -5.443  23.441  0.00  0.00    +0.347 C 
ATOM     10  O   UNL     1       3.875  -5.085  22.770  0.00  0.00    -0.251 OA
ATOM     11  C   UNL     1       6.257  -5.390  22.971  0.00  0.00    +0.329 C 
ATOM     12  N   UNL     1       6.526  -4.367  21.902  0.00  0.00    -0.228 NA
ATOM     13  C   UNL     1       7.514  -3.676  22.397  0.00  0.00    +0.302 C 
ENDROOT
BRANCH   1  19
ATOM     14  C   UNL     1       7.305  -1.884  26.139  0.00  0.00    +0.012 C 
ATOM     15  C   UNL     1       7.974  -1.916  24.972  0.00  0.00    -0.026 C 
ATOM     16  C   UNL     1       8.180  -0.710  24.081  0.00  0.00    +0.072 C 
ATOM     17  C   UNL     1       9.565  -0.981  23.467  0.00  0.00    +0.128 C 
ATOM     18  C   UNL     1       9.934  -2.446  23.739  0.00  0.00    +0.084 C 
ATOM     19  C   UNL     1       8.771  -3.107  24.482  0.00  0.00    +0.203 C 
BRANCH  17  20
ATOM     20  O   UNL     1       9.654  -0.704  22.076  0.00  0.00    -0.391 OA
ATOM     21  H   UNL     1       9.008  -1.292  21.633  0.00  0.00    +0.210 HD
ENDBRANCH  17  20
BRANCH  16  22
ATOM     22  C   UNL     1       7.065  -0.441  23.060  0.00  0.00    +0.166 C 
BRANCH  22  23
ATOM     23  O   UNL     1       6.097   0.480  23.558  0.00  0.00    -0.394 OA
ATOM     24  H   UNL     1       5.439   0.603  22.847  0.00  0.00    +0.209 HD
ENDBRANCH  22  23
ENDBRANCH  16  22
ENDBRANCH   1  19
TORSDOF 4
ENDMDL
