MODEL 1
REMARK VINA RESULT:      -8.1      0.000      0.000
REMARK  Name = 
REMARK  3 active torsions:
REMARK  status: ('A' for Active; 'I' for Inactive)
REMARK    1  A    between atoms: N_18  and  N_21
REMARK    2  A    between atoms: C_22  and  C_24
REMARK    3  A    between atoms: C_27  and  C_30
REMARK                            x       y       z     vdW  Elec       q    Type
REMARK                         _______ _______ _______ _____ _____    ______ ____
ROOT
ATOM      1  C   UNL     1       5.301  -6.329  22.965  0.00  0.00    +0.009 C 
ATOM      2  C   UNL     1       6.092  -5.646  24.059  0.00  0.00    +0.001 C 
ATOM      3  C   UNL     1       5.893  -4.176  24.490  0.00  0.00    +0.027 C 
ATOM      4  C   UNL     1       7.314  -3.541  24.480  0.00  0.00    +0.097 C 
ATOM      5  C   UNL     1       7.299  -2.048  24.711  0.00  0.00    +0.243 C 
ATOM      6  N   UNL     1       7.769  -1.429  23.579  0.00  0.00    -0.155 N 
ATOM      7  C   UNL     1       8.385  -2.293  22.706  0.00  0.00    +0.243 C 
ATOM      8  O   UNL     1       9.235  -2.052  21.860  0.00  0.00    -0.273 OA
ATOM      9  O   UNL     1       7.001  -1.502  25.767  0.00  0.00    -0.273 OA
ATOM     10  C   UNL     1       7.940  -3.689  23.058  0.00  0.00    +0.097 C 
ATOM     11  C   UNL     1       6.885  -4.301  22.089  0.00  0.00    +0.027 C 
ATOM     12  C   UNL     1       5.610  -3.466  22.202  0.00  0.00    -0.026 C 
ATOM     13  C   UNL     1       5.085  -3.417  23.442  0.00  0.00    -0.026 C 
ATOM     14  C   UNL     1       6.650  -5.724  22.645  0.00  0.00    +0.001 C 
ENDROOT
BRANCH   6  15
ATOM     15  N   UNL     1       8.059  -0.059  23.607  0.00  0.00    -0.221 N 
ATOM     16  H   UNL     1       7.460   0.530  23.040  0.00  0.00    +0.174 HD
ATOM     17  C   UNL     1       9.249   0.376  24.158  0.00  0.00    +0.261 C 
ATOM     18  O   UNL     1      10.087  -0.358  24.673  0.00  0.00    -0.269 OA
BRANCH  17  19
ATOM     19  C   UNL     1       9.486   1.847  24.135  0.00  0.00    +0.038 A 
ATOM     20  C   UNL     1       8.643   2.763  24.774  0.00  0.00    +0.013 A 
ATOM     21  C   UNL     1       8.925   4.136  24.709  0.00  0.00    +0.013 A 
ATOM     22  C   UNL     1      10.051   4.610  24.012  0.00  0.00    +0.055 A 
ATOM     23  C   UNL     1      10.877   3.685  23.360  0.00  0.00    +0.013 A 
ATOM     24  C   UNL     1      10.595   2.317  23.418  0.00  0.00    +0.013 A 
BRANCH  22  25
ATOM     25  C   UNL     1      10.356   6.091  23.969  0.00  0.00    +0.417 C 
ATOM     26  F   UNL     1       9.666   6.733  22.985  0.00  0.00    -0.166 F 
ATOM     27  F   UNL     1      11.672   6.347  23.730  0.00  0.00    -0.166 F 
ATOM     28  F   UNL     1      10.051   6.745  25.124  0.00  0.00    -0.166 F 
ENDBRANCH  22  25
ENDBRANCH  17  19
ENDBRANCH   6  15
TORSDOF 3
ENDMDL
MODEL 2
REMARK VINA RESULT:      -7.9      1.263      2.688
REMARK  Name = 
REMARK  3 active torsions:
REMARK  status: ('A' for Active; 'I' for Inactive)
REMARK    1  A    between atoms: N_18  and  N_21
REMARK    2  A    between atoms: C_22  and  C_24
REMARK    3  A    between atoms: C_27  and  C_30
REMARK                            x       y       z     vdW  Elec       q    Type
REMARK                         _______ _______ _______ _____ _____    ______ ____
ROOT
ATOM      1  C   UNL     1       5.578  -6.296  26.006  0.00  0.00    +0.009 C 
ATOM      2  C   UNL     1       5.687  -5.637  24.648  0.00  0.00    +0.001 C 
ATOM      3  C   UNL     1       6.846  -4.710  24.221  0.00  0.00    +0.027 C 
ATOM      4  C   UNL     1       6.170  -3.431  23.648  0.00  0.00    +0.097 C 
ATOM      5  C   UNL     1       7.154  -2.327  23.334  0.00  0.00    +0.243 C 
ATOM      6  N   UNL     1       6.887  -1.261  24.158  0.00  0.00    -0.155 N 
ATOM      7  C   UNL     1       5.672  -1.358  24.793  0.00  0.00    +0.243 C 
ATOM      8  O   UNL     1       4.965  -0.463  25.235  0.00  0.00    -0.273 OA
ATOM      9  O   UNL     1       7.984  -2.359  22.434  0.00  0.00    -0.273 OA
ATOM     10  C   UNL     1       5.242  -2.801  24.734  0.00  0.00    +0.097 C 
ATOM     11  C   UNL     1       5.406  -3.585  26.071  0.00  0.00    +0.027 C 
ATOM     12  C   UNL     1       6.899  -3.654  26.390  0.00  0.00    -0.026 C 
ATOM     13  C   UNL     1       7.643  -4.254  25.440  0.00  0.00    -0.026 C 
ATOM     14  C   UNL     1       4.856  -4.991  25.748  0.00  0.00    +0.001 C 
ENDROOT
BRANCH   6  15
ATOM     15  N   UNL     1       7.515  -0.031  23.925  0.00  0.00    -0.221 N 
ATOM     16  H   UNL     1       7.258   0.440  23.065  0.00  0.00    +0.174 HD
ATOM     17  C   UNL     1       8.597   0.340  24.699  0.00  0.00    +0.261 C 
ATOM     18  O   UNL     1       9.050  -0.325  25.626  0.00  0.00    -0.269 OA
BRANCH  17  19
ATOM     19  C   UNL     1       9.216   1.657  24.378  0.00  0.00    +0.038 A 
ATOM     20  C   UNL     1      10.414   1.780  23.665  0.00  0.00    +0.013 A 
ATOM     21  C   UNL     1      10.943   3.053  23.401  0.00  0.00    +0.013 A 
ATOM     22  C   UNL     1      10.282   4.214  23.840  0.00  0.00    +0.055 A 
ATOM     23  C   UNL     1       9.094   4.078  24.569  0.00  0.00    +0.013 A 
ATOM     24  C   UNL     1       8.569   2.811  24.840  0.00  0.00    +0.013 A 
BRANCH  22  25
ATOM     25  C   UNL     1      10.851   5.581  23.528  0.00  0.00    +0.417 C 
ATOM     26  F   UNL     1      11.320   6.212  24.641  0.00  0.00    -0.166 F 
ATOM     27  F   UNL     1       9.927   6.421  22.985  0.00  0.00    -0.166 F 
ATOM     28  F   UNL     1      11.892   5.552  22.650  0.00  0.00    -0.166 F 
ENDBRANCH  22  25
ENDBRANCH  17  19
ENDBRANCH   6  15
TORSDOF 3
ENDMDL
MODEL 3
REMARK VINA RESULT:      -7.6      6.192      9.566
REMARK  Name = 
REMARK  3 active torsions:
REMARK  status: ('A' for Active; 'I' for Inactive)
REMARK    1  A    between atoms: N_18  and  N_21
REMARK    2  A    between atoms: C_22  and  C_24
REMARK    3  A    between atoms: C_27  and  C_30
REMARK                            x       y       z     vdW  Elec       q    Type
REMARK                         _______ _______ _______ _____ _____    ______ ____
ROOT
ATOM      1  C   UNL     1      10.163   2.006  23.859  0.00  0.00    +0.009 C 
ATOM      2  C   UNL     1      10.326   0.701  23.110  0.00  0.00    +0.001 C 
ATOM      3  C   UNL     1       9.152  -0.162  22.598  0.00  0.00    +0.027 C 
ATOM      4  C   UNL     1       9.438  -1.604  23.108  0.00  0.00    +0.097 C 
ATOM      5  C   UNL     1       8.300  -2.564  22.848  0.00  0.00    +0.243 C 
ATOM      6  N   UNL     1       7.799  -2.980  24.057  0.00  0.00    -0.155 N 
ATOM      7  C   UNL     1       8.619  -2.674  25.117  0.00  0.00    +0.243 C 
ATOM      8  O   UNL     1       8.699  -3.223  26.208  0.00  0.00    -0.273 OA
ATOM      9  O   UNL     1       7.955  -2.963  21.743  0.00  0.00    -0.273 OA
ATOM     10  C   UNL     1       9.564  -1.591  24.664  0.00  0.00    +0.097 C 
ATOM     11  C   UNL     1       9.227  -0.167  25.198  0.00  0.00    +0.027 C 
ATOM     12  C   UNL     1       7.880   0.245  24.607  0.00  0.00    -0.026 C 
ATOM     13  C   UNL     1       7.846   0.266  23.261  0.00  0.00    -0.026 C 
ATOM     14  C   UNL     1      10.359   0.720  24.632  0.00  0.00    +0.001 C 
ENDROOT
BRANCH   6  15
ATOM     15  N   UNL     1       6.880  -4.036  24.101  0.00  0.00    -0.221 N 
ATOM     16  H   UNL     1       7.250  -4.952  23.873  0.00  0.00    +0.174 HD
ATOM     17  C   UNL     1       5.529  -3.761  24.184  0.00  0.00    +0.261 C 
ATOM     18  O   UNL     1       5.051  -2.634  24.258  0.00  0.00    -0.269 OA
BRANCH  17  19
ATOM     19  C   UNL     1       4.618  -4.941  24.212  0.00  0.00    +0.038 A 
ATOM     20  C   UNL     1       4.853  -6.064  25.013  0.00  0.00    +0.013 A 
ATOM     21  C   UNL     1       3.954  -7.141  24.987  0.00  0.00    +0.013 A 
ATOM     22  C   UNL     1       2.812  -7.109  24.168  0.00  0.00    +0.055 A 
ATOM     23  C   UNL     1       2.597  -5.988  23.356  0.00  0.00    +0.013 A 
ATOM     24  C   UNL     1       3.494  -4.916  23.375  0.00  0.00    +0.013 A 
BRANCH  22  25
ATOM     25  C   UNL     1       1.839  -8.267  24.168  0.00  0.00    +0.417 C 
ATOM     26  F   UNL     1       1.568  -8.714  22.909  0.00  0.00    -0.166 F 
ATOM     27  F   UNL     1       0.636  -7.940  24.714  0.00  0.00    -0.166 F 
ATOM     28  F   UNL     1       2.282  -9.353  24.860  0.00  0.00    -0.166 F 
ENDBRANCH  22  25
ENDBRANCH  17  19
ENDBRANCH   6  15
TORSDOF 3
ENDMDL
MODEL 4
REMARK VINA RESULT:      -7.4      1.408      2.066
REMARK  Name = 
REMARK  3 active torsions:
REMARK  status: ('A' for Active; 'I' for Inactive)
REMARK    1  A    between atoms: N_18  and  N_21
REMARK    2  A    between atoms: C_22  and  C_24
REMARK    3  A    between atoms: C_27  and  C_30
REMARK                            x       y       z     vdW  Elec       q    Type
REMARK                         _______ _______ _______ _____ _____    ______ ____
ROOT
ATOM      1  C   UNL     1       4.510  -6.259  24.020  0.00  0.00    +0.009 C 
ATOM      2  C   UNL     1       4.259  -5.080  24.934  0.00  0.00    +0.001 C 
ATOM      3  C   UNL     1       4.413  -3.603  24.512  0.00  0.00    +0.027 C 
ATOM      4  C   UNL     1       5.307  -2.946  25.603  0.00  0.00    +0.097 C 
ATOM      5  C   UNL     1       5.713  -1.530  25.267  0.00  0.00    +0.243 C 
ATOM      6  N   UNL     1       7.077  -1.494  25.111  0.00  0.00    -0.155 N 
ATOM      7  C   UNL     1       7.705  -2.623  25.581  0.00  0.00    +0.243 C 
ATOM      8  O   UNL     1       8.858  -2.753  25.969  0.00  0.00    -0.273 OA
ATOM      9  O   UNL     1       4.953  -0.569  25.233  0.00  0.00    -0.273 OA
ATOM     10  C   UNL     1       6.666  -3.710  25.690  0.00  0.00    +0.097 C 
ATOM     11  C   UNL     1       6.727  -4.787  24.566  0.00  0.00    +0.027 C 
ATOM     12  C   UNL     1       6.404  -4.096  23.242  0.00  0.00    -0.026 C 
ATOM     13  C   UNL     1       5.197  -3.499  23.207  0.00  0.00    -0.026 C 
ATOM     14  C   UNL     1       5.609  -5.783  24.944  0.00  0.00    +0.001 C 
ENDROOT
BRANCH   6  15
ATOM     15  N   UNL     1       7.732  -0.261  25.006  0.00  0.00    -0.221 N 
ATOM     16  H   UNL     1       7.687   0.333  25.827  0.00  0.00    +0.174 HD
ATOM     17  C   UNL     1       8.155   0.184  23.770  0.00  0.00    +0.261 C 
ATOM     18  O   UNL     1       8.031  -0.445  22.723  0.00  0.00    -0.269 OA
BRANCH  17  19
ATOM     19  C   UNL     1       8.831   1.513  23.744  0.00  0.00    +0.038 A 
ATOM     20  C   UNL     1      10.195   1.666  23.472  0.00  0.00    +0.013 A 
ATOM     21  C   UNL     1      10.767   2.948  23.467  0.00  0.00    +0.013 A 
ATOM     22  C   UNL     1       9.986   4.088  23.728  0.00  0.00    +0.055 A 
ATOM     23  C   UNL     1       8.625   3.920  24.018  0.00  0.00    +0.013 A 
ATOM     24  C   UNL     1       8.055   2.645  24.030  0.00  0.00    +0.013 A 
BRANCH  22  25
ATOM     25  C   UNL     1      10.610   5.465  23.697  0.00  0.00    +0.417 C 
ATOM     26  F   UNL     1       9.860   6.358  22.993  0.00  0.00    -0.166 F 
ATOM     27  F   UNL     1      11.840   5.469  23.113  0.00  0.00    -0.166 F 
ATOM     28  F   UNL     1      10.781   6.016  24.931  0.00  0.00    -0.166 F 
ENDBRANCH  22  25
ENDBRANCH  17  19
ENDBRANCH   6  15
TORSDOF 3
ENDMDL
MODEL 5
REMARK VINA RESULT:      -7.4      2.575      3.792
REMARK  Name = 
REMARK  3 active torsions:
REMARK  status: ('A' for Active; 'I' for Inactive)
REMARK    1  A    between atoms: N_18  and  N_21
REMARK    2  A    between atoms: C_22  and  C_24
REMARK    3  A    between atoms: C_27  and  C_30
REMARK                            x       y       z     vdW  Elec       q    Type
REMARK                         _______ _______ _______ _____ _____    ______ ____
ROOT
ATOM      1  C   UNL     1       1.866  -7.438  25.163  0.00  0.00    +0.009 C 
ATOM      2  C   UNL     1       3.377  -7.499  25.233  0.00  0.00    +0.001 C 
ATOM      3  C   UNL     1       4.276  -6.325  25.679  0.00  0.00    +0.027 C 
ATOM      4  C   UNL     1       5.358  -6.182  24.570  0.00  0.00    +0.097 C 
ATOM      5  C   UNL     1       6.235  -4.964  24.747  0.00  0.00    +0.243 C 
ATOM      6  N   UNL     1       6.025  -4.120  23.685  0.00  0.00    -0.155 N 
ATOM      7  C   UNL     1       5.348  -4.715  22.647  0.00  0.00    +0.243 C 
ATOM      8  O   UNL     1       5.357  -4.423  21.458  0.00  0.00    -0.273 OA
ATOM      9  O   UNL     1       7.054  -4.812  25.645  0.00  0.00    -0.273 OA
ATOM     10  C   UNL     1       4.664  -5.941  23.193  0.00  0.00    +0.097 C 
ATOM     11  C   UNL     1       3.128  -5.789  23.408  0.00  0.00    +0.027 C 
ATOM     12  C   UNL     1       2.912  -4.731  24.489  0.00  0.00    -0.026 C 
ATOM     13  C   UNL     1       3.490  -5.017  25.671  0.00  0.00    -0.026 C 
ATOM     14  C   UNL     1       2.684  -7.179  23.916  0.00  0.00    +0.001 C 
ENDROOT
BRANCH   6  15
ATOM     15  N   UNL     1       6.870  -3.019  23.495  0.00  0.00    -0.221 N 
ATOM     16  H   UNL     1       7.827  -3.237  23.243  0.00  0.00    +0.174 HD
ATOM     17  C   UNL     1       6.458  -1.765  23.902  0.00  0.00    +0.261 C 
ATOM     18  O   UNL     1       5.365  -1.520  24.402  0.00  0.00    -0.269 OA
BRANCH  17  19
ATOM     19  C   UNL     1       7.421  -0.651  23.677  0.00  0.00    +0.038 A 
ATOM     20  C   UNL     1       7.112   0.478  22.911  0.00  0.00    +0.013 A 
ATOM     21  C   UNL     1       8.069   1.490  22.738  0.00  0.00    +0.013 A 
ATOM     22  C   UNL     1       9.341   1.389  23.329  0.00  0.00    +0.055 A 
ATOM     23  C   UNL     1       9.647   0.245  24.078  0.00  0.00    +0.013 A 
ATOM     24  C   UNL     1       8.697  -0.767  24.247  0.00  0.00    +0.013 A 
BRANCH  22  25
ATOM     25  C   UNL     1      10.356   2.497  23.153  0.00  0.00    +0.417 C 
ATOM     26  F   UNL     1      11.443   2.335  23.959  0.00  0.00    -0.166 F 
ATOM     27  F   UNL     1       9.848   3.724  23.454  0.00  0.00    -0.166 F 
ATOM     28  F   UNL     1      10.844   2.595  21.885  0.00  0.00    -0.166 F 
ENDBRANCH  22  25
ENDBRANCH  17  19
ENDBRANCH   6  15
TORSDOF 3
ENDMDL
MODEL 6
REMARK VINA RESULT:      -7.4      4.829      8.889
REMARK  Name = 
REMARK  3 active torsions:
REMARK  status: ('A' for Active; 'I' for Inactive)
REMARK    1  A    between atoms: N_18  and  N_21
REMARK    2  A    between atoms: C_22  and  C_24
REMARK    3  A    between atoms: C_27  and  C_30
REMARK                            x       y       z     vdW  Elec       q    Type
REMARK                         _______ _______ _______ _____ _____    ______ ____
ROOT
ATOM      1  C   UNL     1       8.697   6.896  24.621  0.00  0.00    +0.009 C 
ATOM      2  C   UNL     1       9.608   5.714  24.369  0.00  0.00    +0.001 C 
ATOM      3  C   UNL     1       9.333   4.610  23.325  0.00  0.00    +0.027 C 
ATOM      4  C   UNL     1       9.496   3.263  24.088  0.00  0.00    +0.097 C 
ATOM      5  C   UNL     1       9.094   2.061  23.264  0.00  0.00    +0.243 C 
ATOM      6  N   UNL     1       8.006   1.471  23.860  0.00  0.00    -0.155 N 
ATOM      7  C   UNL     1       7.780   1.921  25.139  0.00  0.00    +0.243 C 
ATOM      8  O   UNL     1       7.205   1.355  26.060  0.00  0.00    -0.273 OA
ATOM      9  O   UNL     1       9.700   1.644  22.285  0.00  0.00    -0.273 OA
ATOM     10  C   UNL     1       8.511   3.229  25.298  0.00  0.00    +0.097 C 
ATOM     11  C   UNL     1       7.601   4.493  25.261  0.00  0.00    +0.027 C 
ATOM     12  C   UNL     1       6.983   4.580  23.866  0.00  0.00    -0.026 C 
ATOM     13  C   UNL     1       7.880   4.660  22.864  0.00  0.00    -0.026 C 
ATOM     14  C   UNL     1       8.582   5.664  25.492  0.00  0.00    +0.001 C 
ENDROOT
BRANCH   6  15
ATOM     15  N   UNL     1       7.568   0.217  23.418  0.00  0.00    -0.221 N 
ATOM     16  H   UNL     1       6.650   0.196  22.989  0.00  0.00    +0.174 HD
ATOM     17  C   UNL     1       8.250  -0.920  23.807  0.00  0.00    +0.261 C 
ATOM     18  O   UNL     1       9.261  -0.921  24.503  0.00  0.00    -0.269 OA
BRANCH  17  19
ATOM     19  C   UNL     1       7.711  -2.215  23.304  0.00  0.00    +0.038 A 
ATOM     20  C   UNL     1       8.250  -3.455  23.668  0.00  0.00    +0.013 A 
ATOM     21  C   UNL     1       7.695  -4.636  23.154  0.00  0.00    +0.013 A 
ATOM     22  C   UNL     1       6.596  -4.596  22.278  0.00  0.00    +0.055 A 
ATOM     23  C   UNL     1       6.076  -3.349  21.906  0.00  0.00    +0.013 A 
ATOM     24  C   UNL     1       6.632  -2.170  22.411  0.00  0.00    +0.013 A 
BRANCH  22  25
ATOM     25  C   UNL     1       5.992  -5.878  21.749  0.00  0.00    +0.417 C 
ATOM     26  F   UNL     1       4.735  -6.095  22.230  0.00  0.00    -0.166 F 
ATOM     27  F   UNL     1       6.717  -6.979  22.093  0.00  0.00    -0.166 F 
ATOM     28  F   UNL     1       5.882  -5.912  20.392  0.00  0.00    -0.166 F 
ENDBRANCH  22  25
ENDBRANCH  17  19
ENDBRANCH   6  15
TORSDOF 3
ENDMDL
MODEL 7
REMARK VINA RESULT:      -7.3      2.911      4.539
REMARK  Name = 
REMARK  3 active torsions:
REMARK  status: ('A' for Active; 'I' for Inactive)
REMARK    1  A    between atoms: N_18  and  N_21
REMARK    2  A    between atoms: C_22  and  C_24
REMARK    3  A    between atoms: C_27  and  C_30
REMARK                            x       y       z     vdW  Elec       q    Type
REMARK                         _______ _______ _______ _____ _____    ______ ____
ROOT
ATOM      1  C   UNL     1       2.171  -8.278  25.262  0.00  0.00    +0.009 C 
ATOM      2  C   UNL     1       2.253  -7.349  24.070  0.00  0.00    +0.001 C 
ATOM      3  C   UNL     1       3.552  -6.672  23.582  0.00  0.00    +0.027 C 
ATOM      4  C   UNL     1       3.208  -5.161  23.438  0.00  0.00    +0.097 C 
ATOM      5  C   UNL     1       4.414  -4.302  23.131  0.00  0.00    +0.243 C 
ATOM      6  N   UNL     1       4.616  -3.446  24.185  0.00  0.00    -0.155 N 
ATOM      7  C   UNL     1       3.547  -3.387  25.047  0.00  0.00    +0.243 C 
ATOM      8  O   UNL     1       3.222  -2.482  25.804  0.00  0.00    -0.273 OA
ATOM      9  O   UNL     1       5.039  -4.318  22.078  0.00  0.00    -0.273 OA
ATOM     10  C   UNL     1       2.700  -4.610  24.807  0.00  0.00    +0.097 C 
ATOM     11  C   UNL     1       2.834  -5.719  25.892  0.00  0.00    +0.027 C 
ATOM     12  C   UNL     1       4.268  -6.245  25.845  0.00  0.00    -0.026 C 
ATOM     13  C   UNL     1       4.634  -6.756  24.654  0.00  0.00    -0.026 C 
ATOM     14  C   UNL     1       1.842  -6.811  25.433  0.00  0.00    +0.001 C 
ENDROOT
BRANCH   6  15
ATOM     15  N   UNL     1       5.538  -2.400  24.062  0.00  0.00    -0.221 N 
ATOM     16  H   UNL     1       5.233  -1.606  23.510  0.00  0.00    +0.174 HD
ATOM     17  C   UNL     1       6.850  -2.597  24.447  0.00  0.00    +0.261 C 
ATOM     18  O   UNL     1       7.283  -3.636  24.936  0.00  0.00    -0.269 OA
BRANCH  17  19
ATOM     19  C   UNL     1       7.770  -1.438  24.271  0.00  0.00    +0.038 A 
ATOM     20  C   UNL     1       8.977  -1.313  24.967  0.00  0.00    +0.013 A 
ATOM     21  C   UNL     1       9.794  -0.192  24.753  0.00  0.00    +0.013 A 
ATOM     22  C   UNL     1       9.419   0.812  23.843  0.00  0.00    +0.055 A 
ATOM     23  C   UNL     1       8.199   0.686  23.166  0.00  0.00    +0.013 A 
ATOM     24  C   UNL     1       7.380  -0.426  23.382  0.00  0.00    +0.013 A 
BRANCH  22  25
ATOM     25  C   UNL     1      10.320   2.004  23.606  0.00  0.00    +0.417 C 
ATOM     26  F   UNL     1      10.546   2.226  22.281  0.00  0.00    -0.166 F 
ATOM     27  F   UNL     1      11.549   1.852  24.173  0.00  0.00    -0.166 F 
ATOM     28  F   UNL     1       9.823   3.172  24.099  0.00  0.00    -0.166 F 
ENDBRANCH  22  25
ENDBRANCH  17  19
ENDBRANCH   6  15
TORSDOF 3
ENDMDL
MODEL 8
REMARK VINA RESULT:      -7.2      6.396      9.654
REMARK  Name = 
REMARK  3 active torsions:
REMARK  status: ('A' for Active; 'I' for Inactive)
REMARK    1  A    between atoms: N_18  and  N_21
REMARK    2  A    between atoms: C_22  and  C_24
REMARK    3  A    between atoms: C_27  and  C_30
REMARK                            x       y       z     vdW  Elec       q    Type
REMARK                         _______ _______ _______ _____ _____    ______ ____
ROOT
ATOM      1  C   UNL     1      10.932   0.732  24.500  0.00  0.00    +0.009 C 
ATOM      2  C   UNL     1       9.462   0.988  24.248  0.00  0.00    +0.001 C 
ATOM      3  C   UNL     1       8.314   0.182  24.895  0.00  0.00    +0.027 C 
ATOM      4  C   UNL     1       7.388  -0.246  23.720  0.00  0.00    +0.097 C 
ATOM      5  C   UNL     1       6.292  -1.198  24.142  0.00  0.00    +0.243 C 
ATOM      6  N   UNL     1       6.493  -2.400  23.509  0.00  0.00    -0.155 N 
ATOM      7  C   UNL     1       7.403  -2.324  22.482  0.00  0.00    +0.243 C 
ATOM      8  O   UNL     1       7.507  -3.042  21.496  0.00  0.00    -0.273 OA
ATOM      9  O   UNL     1       5.342  -0.903  24.857  0.00  0.00    -0.273 OA
ATOM     10  C   UNL     1       8.213  -1.070  22.682  0.00  0.00    +0.097 C 
ATOM     11  C   UNL     1       9.652  -1.303  23.232  0.00  0.00    +0.027 C 
ATOM     12  C   UNL     1       9.523  -1.889  24.637  0.00  0.00    -0.026 C 
ATOM     13  C   UNL     1       8.847  -1.112  25.504  0.00  0.00    -0.026 C 
ATOM     14  C   UNL     1      10.262   0.115  23.291  0.00  0.00    +0.001 C 
ENDROOT
BRANCH   6  15
ATOM     15  N   UNL     1       5.500  -3.385  23.560  0.00  0.00    -0.221 N 
ATOM     16  H   UNL     1       4.559  -3.074  23.351  0.00  0.00    +0.174 HD
ATOM     17  C   UNL     1       5.785  -4.612  24.127  0.00  0.00    +0.261 C 
ATOM     18  O   UNL     1       6.881  -4.935  24.575  0.00  0.00    -0.269 OA
BRANCH  17  19
ATOM     19  C   UNL     1       4.669  -5.600  24.154  0.00  0.00    +0.038 A 
ATOM     20  C   UNL     1       3.656  -5.629  23.190  0.00  0.00    +0.013 A 
ATOM     21  C   UNL     1       2.633  -6.585  23.279  0.00  0.00    +0.013 A 
ATOM     22  C   UNL     1       2.611  -7.524  24.325  0.00  0.00    +0.055 A 
ATOM     23  C   UNL     1       3.621  -7.474  25.296  0.00  0.00    +0.013 A 
ATOM     24  C   UNL     1       4.637  -6.518  25.213  0.00  0.00    +0.013 A 
BRANCH  22  25
ATOM     25  C   UNL     1       1.516  -8.565  24.397  0.00  0.00    +0.417 C 
ATOM     26  F   UNL     1       0.961  -8.816  23.178  0.00  0.00    -0.166 F 
ATOM     27  F   UNL     1       0.486  -8.186  25.203  0.00  0.00    -0.166 F 
ATOM     28  F   UNL     1       1.937  -9.771  24.869  0.00  0.00    -0.166 F 
ENDBRANCH  22  25
ENDBRANCH  17  19
ENDBRANCH   6  15
TORSDOF 3
ENDMDL
MODEL 9
REMARK VINA RESULT:      -6.9      5.358      8.869
REMARK  Name = 
REMARK  3 active torsions:
REMARK  status: ('A' for Active; 'I' for Inactive)
REMARK    1  A    between atoms: N_18  and  N_21
REMARK    2  A    between atoms: C_22  and  C_24
REMARK    3  A    between atoms: C_27  and  C_30
REMARK                            x       y       z     vdW  Elec       q    Type
REMARK                         _______ _______ _______ _____ _____    ______ ____
ROOT
ATOM      1  C   UNL     1      10.996   4.167  23.915  0.00  0.00    +0.009 C 
ATOM      2  C   UNL     1       9.682   4.090  23.169  0.00  0.00    +0.001 C 
ATOM      3  C   UNL     1       8.435   3.333  23.677  0.00  0.00    +0.027 C 
ATOM      4  C   UNL     1       7.983   2.429  22.494  0.00  0.00    +0.097 C 
ATOM      5  C   UNL     1       6.869   1.477  22.864  0.00  0.00    +0.243 C 
ATOM      6  N   UNL     1       7.343   0.192  22.758  0.00  0.00    -0.155 N 
ATOM      7  C   UNL     1       8.537   0.110  22.083  0.00  0.00    +0.243 C 
ATOM      8  O   UNL     1       9.008  -0.839  21.471  0.00  0.00    -0.273 OA
ATOM      9  O   UNL     1       5.719   1.808  23.124  0.00  0.00    -0.273 OA
ATOM     10  C   UNL     1       9.156   1.484  22.083  0.00  0.00    +0.097 C 
ATOM     11  C   UNL     1      10.340   1.666  23.080  0.00  0.00    +0.027 C 
ATOM     12  C   UNL     1       9.785   1.509  24.495  0.00  0.00    -0.026 C 
ATOM     13  C   UNL     1       8.812   2.384  24.811  0.00  0.00    -0.026 C 
ATOM     14  C   UNL     1      10.807   3.119  22.841  0.00  0.00    +0.001 C 
ENDROOT
BRANCH   6  15
ATOM     15  N   UNL     1       6.452  -0.885  22.838  0.00  0.00    -0.221 N 
ATOM     16  H   UNL     1       5.641  -0.832  22.232  0.00  0.00    +0.174 HD
ATOM     17  C   UNL     1       6.567  -1.790  23.875  0.00  0.00    +0.261 C 
ATOM     18  O   UNL     1       7.433  -1.748  24.743  0.00  0.00    -0.269 OA
BRANCH  17  19
ATOM     19  C   UNL     1       5.571  -2.898  23.895  0.00  0.00    +0.038 A 
ATOM     20  C   UNL     1       4.509  -2.950  24.805  0.00  0.00    +0.013 A 
ATOM     21  C   UNL     1       3.609  -4.026  24.770  0.00  0.00    +0.013 A 
ATOM     22  C   UNL     1       3.755  -5.058  23.826  0.00  0.00    +0.055 A 
ATOM     23  C   UNL     1       4.833  -5.006  22.932  0.00  0.00    +0.013 A 
ATOM     24  C   UNL     1       5.734  -3.939  22.970  0.00  0.00    +0.013 A 
BRANCH  22  25
ATOM     25  C   UNL     1       2.765  -6.201  23.784  0.00  0.00    +0.417 C 
ATOM     26  F   UNL     1       2.173  -6.328  22.563  0.00  0.00    -0.166 F 
ATOM     27  F   UNL     1       1.748  -6.045  24.677  0.00  0.00    -0.166 F 
ATOM     28  F   UNL     1       3.319  -7.415  24.056  0.00  0.00    -0.166 F 
ENDBRANCH  22  25
ENDBRANCH  17  19
ENDBRANCH   6  15
TORSDOF 3
ENDMDL
