MODEL 1
REMARK VINA RESULT:      -7.1      0.000      0.000
REMARK  Name = 
REMARK  4 active torsions:
REMARK  status: ('A' for Active; 'I' for Inactive)
REMARK    1  A    between atoms: C_3  and  N_12
REMARK    2  A    between atoms: C_6  and  O_11
REMARK    3  A    between atoms: C_7  and  C_9
REMARK    4  A    between atoms: C_9  and  O_10
REMARK                            x       y       z     vdW  Elec       q    Type
REMARK                         _______ _______ _______ _____ _____    ______ ____
ROOT
ATOM      1  N   UNL     1       8.705  -2.054  22.951  0.00  0.00    -0.308 N 
ATOM      2  C   UNL     1       8.695  -3.217  23.681  0.00  0.00    +0.170 A 
ATOM      3  N   UNL     1       9.662  -3.689  24.510  0.00  0.00    -0.196 NA
ATOM      4  C   UNL     1       9.377  -4.844  25.045  0.00  0.00    +0.195 A 
ATOM      5  N   UNL     1      10.283  -5.472  25.831  0.00  0.00    -0.329 N 
ATOM      6  H   UNL     1       9.965  -6.125  26.534  0.00  0.00    +0.145 HD
ATOM      7  H   UNL     1      11.068  -4.894  26.110  0.00  0.00    +0.145 HD
ATOM      8  N   UNL     1       8.178  -5.502  24.864  0.00  0.00    -0.293 N 
ATOM      9  H   UNL     1       8.009  -6.390  25.301  0.00  0.00    +0.172 HD
ATOM     10  C   UNL     1       7.153  -5.053  24.048  0.00  0.00    +0.280 A 
ATOM     11  O   UNL     1       6.099  -5.673  23.930  0.00  0.00    -0.265 OA
ATOM     12  C   UNL     1       7.490  -3.815  23.380  0.00  0.00    +0.172 A 
ATOM     13  N   UNL     1       6.821  -3.140  22.398  0.00  0.00    -0.229 NA
ATOM     14  C   UNL     1       7.611  -2.126  22.117  0.00  0.00    +0.202 A 
ENDROOT
BRANCH   1  20
ATOM     15  C   UNL     1      10.345   0.128  25.089  0.00  0.00    +0.010 C 
ATOM     16  C   UNL     1       9.621   0.070  23.959  0.00  0.00    -0.046 C 
ATOM     17  C   UNL     1       8.794   1.236  23.447  0.00  0.00    +0.070 C 
ATOM     18  C   UNL     1       8.673   0.949  21.942  0.00  0.00    +0.126 C 
ATOM     19  C   UNL     1       9.714  -0.134  21.649  0.00  0.00    +0.061 C 
ATOM     20  C   UNL     1       9.740  -1.019  22.904  0.00  0.00    +0.118 C 
BRANCH  18  21
ATOM     21  O   UNL     1       8.965   2.108  21.164  0.00  0.00    -0.391 OA
ATOM     22  H   UNL     1       9.887   2.051  20.857  0.00  0.00    +0.210 HD
ENDBRANCH  18  21
BRANCH  17  23
ATOM     23  C   UNL     1       7.433   1.397  24.137  0.00  0.00    +0.166 C 
BRANCH  23  24
ATOM     24  O   UNL     1       6.365   0.849  23.379  0.00  0.00    -0.394 OA
ATOM     25  H   UNL     1       6.694   0.025  22.976  0.00  0.00    +0.209 HD
ENDBRANCH  23  24
ENDBRANCH  17  23
ENDBRANCH   1  20
TORSDOF 4
ENDMDL
MODEL 2
REMARK VINA RESULT:      -6.6      1.413      2.287
REMARK  Name = 
REMARK  4 active torsions:
REMARK  status: ('A' for Active; 'I' for Inactive)
REMARK    1  A    between atoms: C_3  and  N_12
REMARK    2  A    between atoms: C_6  and  O_11
REMARK    3  A    between atoms: C_7  and  C_9
REMARK    4  A    between atoms: C_9  and  O_10
REMARK                            x       y       z     vdW  Elec       q    Type
REMARK                         _______ _______ _______ _____ _____    ______ ____
ROOT
ATOM      1  N   UNL     1       7.693  -1.634  24.129  0.00  0.00    -0.308 N 
ATOM      2  C   UNL     1       8.093  -2.941  24.258  0.00  0.00    +0.170 A 
ATOM      3  N   UNL     1       8.956  -3.463  25.167  0.00  0.00    -0.196 NA
ATOM      4  C   UNL     1       9.163  -4.742  25.022  0.00  0.00    +0.195 A 
ATOM      5  N   UNL     1      10.061  -5.379  25.810  0.00  0.00    -0.329 N 
ATOM      6  H   UNL     1       9.958  -6.370  25.982  0.00  0.00    +0.145 HD
ATOM      7  H   UNL     1      10.378  -4.839  26.606  0.00  0.00    +0.145 HD
ATOM      8  N   UNL     1       8.515  -5.526  24.091  0.00  0.00    -0.293 N 
ATOM      9  H   UNL     1       8.711  -6.509  24.022  0.00  0.00    +0.172 HD
ATOM     10  C   UNL     1       7.611  -5.048  23.157  0.00  0.00    +0.280 A 
ATOM     11  O   UNL     1       7.052  -5.793  22.356  0.00  0.00    -0.265 OA
ATOM     12  C   UNL     1       7.436  -3.616  23.251  0.00  0.00    +0.172 A 
ATOM     13  N   UNL     1       6.758  -2.760  22.428  0.00  0.00    -0.229 NA
ATOM     14  C   UNL     1       6.990  -1.573  22.944  0.00  0.00    +0.202 A 
ENDROOT
BRANCH   1  20
ATOM     15  C   UNL     1       6.939   1.735  24.441  0.00  0.00    +0.010 C 
ATOM     16  C   UNL     1       7.953   0.871  24.267  0.00  0.00    -0.046 C 
ATOM     17  C   UNL     1       9.257   1.254  23.590  0.00  0.00    +0.070 C 
ATOM     18  C   UNL     1      10.257   0.226  24.144  0.00  0.00    +0.126 C 
ATOM     19  C   UNL     1       9.555  -0.422  25.339  0.00  0.00    +0.061 C 
ATOM     20  C   UNL     1       8.069  -0.483  24.951  0.00  0.00    +0.118 C 
BRANCH  18  21
ATOM     21  O   UNL     1      11.459   0.854  24.585  0.00  0.00    -0.391 OA
ATOM     22  H   UNL     1      12.213   0.288  24.339  0.00  0.00    +0.210 HD
ENDBRANCH  18  21
BRANCH  17  23
ATOM     23  C   UNL     1       9.194   1.261  22.057  0.00  0.00    +0.166 C 
BRANCH  23  24
ATOM     24  O   UNL     1      10.074   2.210  21.475  0.00  0.00    -0.394 OA
ATOM     25  H   UNL     1       9.537   2.986  21.230  0.00  0.00    +0.209 HD
ENDBRANCH  23  24
ENDBRANCH  17  23
ENDBRANCH   1  20
TORSDOF 4
ENDMDL
MODEL 3
REMARK VINA RESULT:      -6.4      2.244      5.950
REMARK  Name = 
REMARK  4 active torsions:
REMARK  status: ('A' for Active; 'I' for Inactive)
REMARK    1  A    between atoms: C_3  and  N_12
REMARK    2  A    between atoms: C_6  and  O_11
REMARK    3  A    between atoms: C_7  and  C_9
REMARK    4  A    between atoms: C_9  and  O_10
REMARK                            x       y       z     vdW  Elec       q    Type
REMARK                         _______ _______ _______ _____ _____    ______ ____
ROOT
ATOM      1  N   UNL     1       8.742  -2.557  25.275  0.00  0.00    -0.308 N 
ATOM      2  C   UNL     1       8.831  -1.610  24.285  0.00  0.00    +0.170 A 
ATOM      3  N   UNL     1       9.150  -1.798  22.978  0.00  0.00    -0.196 NA
ATOM      4  C   UNL     1       9.182  -0.696  22.281  0.00  0.00    +0.195 A 
ATOM      5  N   UNL     1       9.563  -0.725  20.982  0.00  0.00    -0.329 N 
ATOM      6  H   UNL     1       9.235  -0.005  20.352  0.00  0.00    +0.145 HD
ATOM      7  H   UNL     1       9.613  -1.654  20.580  0.00  0.00    +0.145 HD
ATOM      8  N   UNL     1       8.849   0.543  22.785  0.00  0.00    -0.293 N 
ATOM      9  H   UNL     1       8.890   1.361  22.203  0.00  0.00    +0.172 HD
ATOM     10  C   UNL     1       8.496   0.785  24.103  0.00  0.00    +0.280 A 
ATOM     11  O   UNL     1       8.197   1.909  24.498  0.00  0.00    -0.265 OA
ATOM     12  C   UNL     1       8.539  -0.416  24.908  0.00  0.00    +0.172 A 
ATOM     13  N   UNL     1       8.407  -0.568  26.260  0.00  0.00    -0.229 NA
ATOM     14  C   UNL     1       8.602  -1.855  26.453  0.00  0.00    +0.202 A 
ENDROOT
BRANCH   1  20
ATOM     15  C   UNL     1       7.699  -5.216  23.311  0.00  0.00    +0.010 C 
ATOM     16  C   UNL     1       7.767  -4.777  24.579  0.00  0.00    -0.046 C 
ATOM     17  C   UNL     1       6.816  -5.244  25.666  0.00  0.00    +0.070 C 
ATOM     18  C   UNL     1       7.607  -4.989  26.960  0.00  0.00    +0.126 C 
ATOM     19  C   UNL     1       9.050  -4.742  26.513  0.00  0.00    +0.061 C 
ATOM     20  C   UNL     1       8.936  -4.005  25.170  0.00  0.00    +0.118 C 
BRANCH  18  21
ATOM     21  O   UNL     1       7.568  -6.121  27.827  0.00  0.00    -0.391 OA
ATOM     22  H   UNL     1       6.714  -6.122  28.295  0.00  0.00    +0.210 HD
ENDBRANCH  18  21
BRANCH  17  23
ATOM     23  C   UNL     1       5.450  -4.545  25.654  0.00  0.00    +0.166 C 
BRANCH  23  24
ATOM     24  O   UNL     1       5.390  -3.439  26.540  0.00  0.00    -0.394 OA
ATOM     25  H   UNL     1       5.680  -2.654  26.039  0.00  0.00    +0.209 HD
ENDBRANCH  23  24
ENDBRANCH  17  23
ENDBRANCH   1  20
TORSDOF 4
ENDMDL
MODEL 4
REMARK VINA RESULT:      -6.4      2.356      5.908
REMARK  Name = 
REMARK  4 active torsions:
REMARK  status: ('A' for Active; 'I' for Inactive)
REMARK    1  A    between atoms: C_3  and  N_12
REMARK    2  A    between atoms: C_6  and  O_11
REMARK    3  A    between atoms: C_7  and  C_9
REMARK    4  A    between atoms: C_9  and  O_10
REMARK                            x       y       z     vdW  Elec       q    Type
REMARK                         _______ _______ _______ _____ _____    ______ ____
ROOT
ATOM      1  N   UNL     1       6.493  -3.127  23.853  0.00  0.00    -0.308 N 
ATOM      2  C   UNL     1       7.208  -2.123  23.246  0.00  0.00    +0.170 A 
ATOM      3  N   UNL     1       8.307  -2.242  22.458  0.00  0.00    -0.196 NA
ATOM      4  C   UNL     1       8.786  -1.101  22.046  0.00  0.00    +0.195 A 
ATOM      5  N   UNL     1       9.926  -1.064  21.317  0.00  0.00    -0.329 N 
ATOM      6  H   UNL     1      10.090  -0.290  20.689  0.00  0.00    +0.145 HD
ATOM      7  H   UNL     1      10.232  -1.966  20.972  0.00  0.00    +0.145 HD
ATOM      8  N   UNL     1       8.199   0.119  22.309  0.00  0.00    -0.293 N 
ATOM      9  H   UNL     1       8.609   0.970  21.967  0.00  0.00    +0.172 HD
ATOM     10  C   UNL     1       7.066   0.293  23.088  0.00  0.00    +0.280 A 
ATOM     11  O   UNL     1       6.577   1.403  23.281  0.00  0.00    -0.265 OA
ATOM     12  C   UNL     1       6.574  -0.958  23.621  0.00  0.00    +0.172 A 
ATOM     13  N   UNL     1       5.587  -1.191  24.537  0.00  0.00    -0.229 NA
ATOM     14  C   UNL     1       5.612  -2.495  24.704  0.00  0.00    +0.202 A 
ENDROOT
BRANCH   1  20
ATOM     15  C   UNL     1       5.005  -6.072  24.913  0.00  0.00    +0.010 C 
ATOM     16  C   UNL     1       6.153  -5.375  24.944  0.00  0.00    -0.046 C 
ATOM     17  C   UNL     1       7.184  -5.531  26.048  0.00  0.00    +0.070 C 
ATOM     18  C   UNL     1       8.486  -5.055  25.384  0.00  0.00    +0.126 C 
ATOM     19  C   UNL     1       8.185  -5.007  23.884  0.00  0.00    +0.061 C 
ATOM     20  C   UNL     1       6.715  -4.572  23.781  0.00  0.00    +0.118 C 
BRANCH  18  21
ATOM     21  O   UNL     1       9.557  -5.967  25.622  0.00  0.00    -0.391 OA
ATOM     22  H   UNL     1       9.179  -6.840  25.833  0.00  0.00    +0.210 HD
ENDBRANCH  18  21
BRANCH  17  23
ATOM     23  C   UNL     1       6.854  -4.762  27.335  0.00  0.00    +0.166 C 
BRANCH  23  24
ATOM     24  O   UNL     1       6.821  -5.598  28.481  0.00  0.00    -0.394 OA
ATOM     25  H   UNL     1       6.920  -6.516  28.168  0.00  0.00    +0.209 HD
ENDBRANCH  23  24
ENDBRANCH  17  23
ENDBRANCH   1  20
TORSDOF 4
ENDMDL
MODEL 5
REMARK VINA RESULT:      -6.3      1.802      2.522
REMARK  Name = 
REMARK  4 active torsions:
REMARK  status: ('A' for Active; 'I' for Inactive)
REMARK    1  A    between atoms: C_3  and  N_12
REMARK    2  A    between atoms: C_6  and  O_11
REMARK    3  A    between atoms: C_7  and  C_9
REMARK    4  A    between atoms: C_9  and  O_10
REMARK                            x       y       z     vdW  Elec       q    Type
REMARK                         _______ _______ _______ _____ _____    ______ ____
ROOT
ATOM      1  N   UNL     1       9.404  -1.303  24.546  0.00  0.00    -0.308 N 
ATOM      2  C   UNL     1       8.679  -2.407  24.920  0.00  0.00    +0.170 A 
ATOM      3  N   UNL     1       7.971  -2.591  26.065  0.00  0.00    -0.196 NA
ATOM      4  C   UNL     1       7.405  -3.763  26.151  0.00  0.00    +0.195 A 
ATOM      5  N   UNL     1       6.733  -4.113  27.273  0.00  0.00    -0.329 N 
ATOM      6  H   UNL     1       5.997  -4.804  27.217  0.00  0.00    +0.145 HD
ATOM      7  H   UNL     1       6.550  -3.345  27.909  0.00  0.00    +0.145 HD
ATOM      8  N   UNL     1       7.442  -4.711  25.149  0.00  0.00    -0.293 N 
ATOM      9  H   UNL     1       6.987  -5.599  25.267  0.00  0.00    +0.172 HD
ATOM     10  C   UNL     1       8.129  -4.564  23.956  0.00  0.00    +0.280 A 
ATOM     11  O   UNL     1       8.120  -5.437  23.092  0.00  0.00    -0.265 OA
ATOM     12  C   UNL     1       8.833  -3.303  23.884  0.00  0.00    +0.172 A 
ATOM     13  N   UNL     1       9.728  -2.852  22.954  0.00  0.00    -0.229 NA
ATOM     14  C   UNL     1      10.102  -1.679  23.419  0.00  0.00    +0.202 A 
ENDROOT
BRANCH   1  20
ATOM     15  C   UNL     1       7.482   1.313  25.761  0.00  0.00    +0.010 C 
ATOM     16  C   UNL     1       8.529   1.024  24.971  0.00  0.00    -0.046 C 
ATOM     17  C   UNL     1       8.969   1.917  23.824  0.00  0.00    +0.070 C 
ATOM     18  C   UNL     1      10.449   1.545  23.636  0.00  0.00    +0.126 C 
ATOM     19  C   UNL     1      10.833   0.755  24.890  0.00  0.00    +0.061 C 
ATOM     20  C   UNL     1       9.574  -0.040  25.267  0.00  0.00    +0.118 C 
BRANCH  18  21
ATOM     21  O   UNL     1      11.270   2.708  23.540  0.00  0.00    -0.391 OA
ATOM     22  H   UNL     1      10.935   3.264  22.814  0.00  0.00    +0.210 HD
ENDBRANCH  18  21
BRANCH  17  23
ATOM     23  C   UNL     1       8.144   1.750  22.541  0.00  0.00    +0.166 C 
BRANCH  23  24
ATOM     24  O   UNL     1       8.900   1.994  21.365  0.00  0.00    -0.394 OA
ATOM     25  H   UNL     1       9.213   2.916  21.413  0.00  0.00    +0.209 HD
ENDBRANCH  23  24
ENDBRANCH  17  23
ENDBRANCH   1  20
TORSDOF 4
ENDMDL
MODEL 6
REMARK VINA RESULT:      -6.3      2.514      5.693
REMARK  Name = 
REMARK  4 active torsions:
REMARK  status: ('A' for Active; 'I' for Inactive)
REMARK    1  A    between atoms: C_3  and  N_12
REMARK    2  A    between atoms: C_6  and  O_11
REMARK    3  A    between atoms: C_7  and  C_9
REMARK    4  A    between atoms: C_9  and  O_10
REMARK                            x       y       z     vdW  Elec       q    Type
REMARK                         _______ _______ _______ _____ _____    ______ ____
ROOT
ATOM      1  N   UNL     1       8.083  -1.869  23.246  0.00  0.00    -0.308 N 
ATOM      2  C   UNL     1       8.395  -0.819  24.073  0.00  0.00    +0.170 A 
ATOM      3  N   UNL     1       7.634  -0.281  25.061  0.00  0.00    -0.196 NA
ATOM      4  C   UNL     1       8.191   0.735  25.660  0.00  0.00    +0.195 A 
ATOM      5  N   UNL     1       7.513   1.418  26.613  0.00  0.00    -0.329 N 
ATOM      6  H   UNL     1       8.025   1.918  27.325  0.00  0.00    +0.145 HD
ATOM      7  H   UNL     1       6.668   0.960  26.935  0.00  0.00    +0.145 HD
ATOM      8  N   UNL     1       9.465   1.186  25.387  0.00  0.00    -0.293 N 
ATOM      9  H   UNL     1       9.847   1.974  25.880  0.00  0.00    +0.172 HD
ATOM     10  C   UNL     1      10.289   0.659  24.406  0.00  0.00    +0.280 A 
ATOM     11  O   UNL     1      11.423   1.092  24.211  0.00  0.00    -0.265 OA
ATOM     12  C   UNL     1       9.651  -0.413  23.675  0.00  0.00    +0.172 A 
ATOM     13  N   UNL     1      10.067  -1.079  22.556  0.00  0.00    -0.229 NA
ATOM     14  C   UNL     1       9.073  -1.896  22.286  0.00  0.00    +0.202 A 
ENDROOT
BRANCH   1  20
ATOM     15  C   UNL     1       5.827  -3.254  25.484  0.00  0.00    +0.010 C 
ATOM     16  C   UNL     1       6.660  -3.552  24.473  0.00  0.00    -0.046 C 
ATOM     17  C   UNL     1       7.283  -4.925  24.294  0.00  0.00    +0.070 C 
ATOM     18  C   UNL     1       7.614  -4.970  22.794  0.00  0.00    +0.126 C 
ATOM     19  C   UNL     1       6.848  -3.799  22.173  0.00  0.00    +0.061 C 
ATOM     20  C   UNL     1       6.872  -2.691  23.237  0.00  0.00    +0.118 C 
BRANCH  18  21
ATOM     21  O   UNL     1       7.176  -6.190  22.199  0.00  0.00    -0.391 OA
ATOM     22  H   UNL     1       7.111  -6.059  21.236  0.00  0.00    +0.210 HD
ENDBRANCH  18  21
BRANCH  17  23
ATOM     23  C   UNL     1       8.506  -5.185  25.184  0.00  0.00    +0.166 C 
BRANCH  23  24
ATOM     24  O   UNL     1       9.548  -5.865  24.502  0.00  0.00    -0.394 OA
ATOM     25  H   UNL     1       9.615  -6.754  24.895  0.00  0.00    +0.209 HD
ENDBRANCH  23  24
ENDBRANCH  17  23
ENDBRANCH   1  20
TORSDOF 4
ENDMDL
MODEL 7
REMARK VINA RESULT:      -6.3      2.682      5.921
REMARK  Name = 
REMARK  4 active torsions:
REMARK  status: ('A' for Active; 'I' for Inactive)
REMARK    1  A    between atoms: C_3  and  N_12
REMARK    2  A    between atoms: C_6  and  O_11
REMARK    3  A    between atoms: C_7  and  C_9
REMARK    4  A    between atoms: C_9  and  O_10
REMARK                            x       y       z     vdW  Elec       q    Type
REMARK                         _______ _______ _______ _____ _____    ______ ____
ROOT
ATOM      1  N   UNL     1       7.632  -2.113  24.598  0.00  0.00    -0.308 N 
ATOM      2  C   UNL     1       8.244  -0.893  24.746  0.00  0.00    +0.170 A 
ATOM      3  N   UNL     1       9.478  -0.522  24.318  0.00  0.00    -0.196 NA
ATOM      4  C   UNL     1       9.798   0.703  24.633  0.00  0.00    +0.195 A 
ATOM      5  N   UNL     1      11.030   1.182  24.338  0.00  0.00    -0.329 N 
ATOM      6  H   UNL     1      11.161   2.176  24.215  0.00  0.00    +0.145 HD
ATOM      7  H   UNL     1      11.566   0.599  23.706  0.00  0.00    +0.145 HD
ATOM      8  N   UNL     1       8.946   1.582  25.269  0.00  0.00    -0.293 N 
ATOM      9  H   UNL     1       9.243   2.517  25.487  0.00  0.00    +0.172 HD
ATOM     10  C   UNL     1       7.671   1.260  25.705  0.00  0.00    +0.280 A 
ATOM     11  O   UNL     1       6.948   2.086  26.257  0.00  0.00    -0.265 OA
ATOM     12  C   UNL     1       7.336  -0.121  25.439  0.00  0.00    +0.172 A 
ATOM     13  N   UNL     1       6.253  -0.852  25.840  0.00  0.00    -0.229 NA
ATOM     14  C   UNL     1       6.496  -2.058  25.377  0.00  0.00    +0.202 A 
ENDROOT
BRANCH   1  20
ATOM     15  C   UNL     1       6.462  -5.132  23.361  0.00  0.00    +0.010 C 
ATOM     16  C   UNL     1       7.365  -4.588  24.193  0.00  0.00    -0.046 C 
ATOM     17  C   UNL     1       7.943  -5.332  25.384  0.00  0.00    +0.070 C 
ATOM     18  C   UNL     1       9.279  -4.613  25.635  0.00  0.00    +0.126 C 
ATOM     19  C   UNL     1       9.530  -3.772  24.381  0.00  0.00    +0.061 C 
ATOM     20  C   UNL     1       8.139  -3.308  23.921  0.00  0.00    +0.118 C 
BRANCH  18  21
ATOM     21  O   UNL     1      10.348  -5.543  25.802  0.00  0.00    -0.391 OA
ATOM     22  H   UNL     1      11.103  -5.077  26.205  0.00  0.00    +0.210 HD
ENDBRANCH  18  21
BRANCH  17  23
ATOM     23  C   UNL     1       7.033  -5.351  26.620  0.00  0.00    +0.166 C 
BRANCH  23  24
ATOM     24  O   UNL     1       7.674  -5.890  27.766  0.00  0.00    -0.394 OA
ATOM     25  H   UNL     1       8.017  -6.768  27.515  0.00  0.00    +0.209 HD
ENDBRANCH  23  24
ENDBRANCH  17  23
ENDBRANCH   1  20
TORSDOF 4
ENDMDL
MODEL 8
REMARK VINA RESULT:      -6.2      2.183      2.402
REMARK  Name = 
REMARK  4 active torsions:
REMARK  status: ('A' for Active; 'I' for Inactive)
REMARK    1  A    between atoms: C_3  and  N_12
REMARK    2  A    between atoms: C_6  and  O_11
REMARK    3  A    between atoms: C_7  and  C_9
REMARK    4  A    between atoms: C_9  and  O_10
REMARK                            x       y       z     vdW  Elec       q    Type
REMARK                         _______ _______ _______ _____ _____    ______ ____
ROOT
ATOM      1  N   UNL     1       8.709  -1.448  25.294  0.00  0.00    -0.308 N 
ATOM      2  C   UNL     1       8.616  -2.773  25.639  0.00  0.00    +0.170 A 
ATOM      3  N   UNL     1       9.457  -3.784  25.298  0.00  0.00    -0.196 NA
ATOM      4  C   UNL     1       9.090  -4.950  25.754  0.00  0.00    +0.195 A 
ATOM      5  N   UNL     1       9.792  -6.060  25.426  0.00  0.00    -0.329 N 
ATOM      6  H   UNL     1       9.773  -6.860  26.043  0.00  0.00    +0.145 HD
ATOM      7  H   UNL     1      10.688  -5.876  24.992  0.00  0.00    +0.145 HD
ATOM      8  N   UNL     1       7.999  -5.146  26.575  0.00  0.00    -0.293 N 
ATOM      9  H   UNL     1       7.761  -6.067  26.900  0.00  0.00    +0.172 HD
ATOM     10  C   UNL     1       7.124  -4.147  26.969  0.00  0.00    +0.280 A 
ATOM     11  O   UNL     1       6.172  -4.375  27.712  0.00  0.00    -0.265 OA
ATOM     12  C   UNL     1       7.470  -2.864  26.400  0.00  0.00    +0.172 A 
ATOM     13  N   UNL     1       6.785  -1.681  26.426  0.00  0.00    -0.229 NA
ATOM     14  C   UNL     1       7.522  -0.873  25.696  0.00  0.00    +0.202 A 
ENDROOT
BRANCH   1  20
ATOM     15  C   UNL     1       9.794   1.755  24.533  0.00  0.00    +0.010 C 
ATOM     16  C   UNL     1       9.386   0.599  23.984  0.00  0.00    -0.046 C 
ATOM     17  C   UNL     1       8.749   0.518  22.609  0.00  0.00    +0.070 C 
ATOM     18  C   UNL     1       9.013  -0.935  22.183  0.00  0.00    +0.126 C 
ATOM     19  C   UNL     1      10.067  -1.461  23.160  0.00  0.00    +0.061 C 
ATOM     20  C   UNL     1       9.747  -0.785  24.502  0.00  0.00    +0.118 C 
BRANCH  18  21
ATOM     21  O   UNL     1       9.524  -1.004  20.853  0.00  0.00    -0.391 OA
ATOM     22  H   UNL     1      10.002  -0.177  20.662  0.00  0.00    +0.210 HD
ENDBRANCH  18  21
BRANCH  17  23
ATOM     23  C   UNL     1       7.259   0.888  22.579  0.00  0.00    +0.166 C 
BRANCH  23  24
ATOM     24  O   UNL     1       7.014   2.128  21.934  0.00  0.00    -0.394 OA
ATOM     25  H   UNL     1       6.781   2.771  22.629  0.00  0.00    +0.209 HD
ENDBRANCH  23  24
ENDBRANCH  17  23
ENDBRANCH   1  20
TORSDOF 4
ENDMDL
MODEL 9
REMARK VINA RESULT:      -6.2      2.309      3.415
REMARK  Name = 
REMARK  4 active torsions:
REMARK  status: ('A' for Active; 'I' for Inactive)
REMARK    1  A    between atoms: C_3  and  N_12
REMARK    2  A    between atoms: C_6  and  O_11
REMARK    3  A    between atoms: C_7  and  C_9
REMARK    4  A    between atoms: C_9  and  O_10
REMARK                            x       y       z     vdW  Elec       q    Type
REMARK                         _______ _______ _______ _____ _____    ______ ____
ROOT
ATOM      1  N   UNL     1       8.022  -3.281  24.705  0.00  0.00    -0.308 N 
ATOM      2  C   UNL     1       7.197  -4.307  25.094  0.00  0.00    +0.170 A 
ATOM      3  N   UNL     1       6.223  -4.915  24.368  0.00  0.00    -0.196 NA
ATOM      4  C   UNL     1       5.583  -5.845  25.020  0.00  0.00    +0.195 A 
ATOM      5  N   UNL     1       4.534  -6.480  24.446  0.00  0.00    -0.329 N 
ATOM      6  H   UNL     1       4.292  -7.414  24.748  0.00  0.00    +0.145 HD
ATOM      7  H   UNL     1       4.439  -6.316  23.450  0.00  0.00    +0.145 HD
ATOM      8  N   UNL     1       5.903  -6.246  26.301  0.00  0.00    -0.293 N 
ATOM      9  H   UNL     1       5.377  -6.970  26.758  0.00  0.00    +0.172 HD
ATOM     10  C   UNL     1       6.899  -5.675  27.075  0.00  0.00    +0.280 A 
ATOM     11  O   UNL     1       7.151  -6.078  28.208  0.00  0.00    -0.265 OA
ATOM     12  C   UNL     1       7.561  -4.584  26.395  0.00  0.00    +0.172 A 
ATOM     13  N   UNL     1       8.477  -3.686  26.865  0.00  0.00    -0.229 NA
ATOM     14  C   UNL     1       8.680  -2.878  25.847  0.00  0.00    +0.202 A 
ENDROOT
BRANCH   1  20
ATOM     15  C   UNL     1      10.308  -1.586  22.726  0.00  0.00    +0.010 C 
ATOM     16  C   UNL     1       9.101  -1.480  23.308  0.00  0.00    -0.046 C 
ATOM     17  C   UNL     1       8.481  -0.147  23.685  0.00  0.00    +0.070 C 
ATOM     18  C   UNL     1       6.976  -0.456  23.724  0.00  0.00    +0.126 C 
ATOM     19  C   UNL     1       6.821  -1.813  23.032  0.00  0.00    +0.061 C 
ATOM     20  C   UNL     1       8.082  -2.605  23.408  0.00  0.00    +0.118 C 
BRANCH  18  21
ATOM     21  O   UNL     1       6.223   0.526  23.015  0.00  0.00    -0.391 OA
ATOM     22  H   UNL     1       6.026   1.262  23.621  0.00  0.00    +0.210 HD
ENDBRANCH  18  21
BRANCH  17  23
ATOM     23  C   UNL     1       9.005   0.444  25.001  0.00  0.00    +0.166 C 
BRANCH  23  24
ATOM     24  O   UNL     1       9.872   1.549  24.801  0.00  0.00    -0.394 OA
ATOM     25  H   UNL     1      10.306   1.419  23.937  0.00  0.00    +0.209 HD
ENDBRANCH  23  24
ENDBRANCH  17  23
ENDBRANCH   1  20
TORSDOF 4
ENDMDL
