MODEL 1
REMARK VINA RESULT:      -6.6      0.000      0.000
REMARK  Name = 
REMARK  13 active torsions:
REMARK  status: ('A' for Active; 'I' for Inactive)
REMARK    1  A    between atoms: C_1  and  C_2
REMARK    2  A    between atoms: C_2  and  O_3
REMARK    3  A    between atoms: O_3  and  C_4
REMARK    4  A    between atoms: C_4  and  C_6
REMARK    5  A    between atoms: C_7  and  C_22
REMARK    6  A    between atoms: N_8  and  C_21
REMARK    7  A    between atoms: C_12  and  O_19
REMARK    8  A    between atoms: C_13  and  C_15
REMARK    9  A    between atoms: C_15  and  N_16
REMARK   10  A    between atoms: N_16  and  C_17
REMARK   11  A    between atoms: N_16  and  C_18
REMARK   12  A    between atoms: C_22  and  S_23
REMARK   13  A    between atoms: S_23  and  C_24
REMARK                            x       y       z     vdW  Elec       q    Type
REMARK                         _______ _______ _______ _____ _____    ______ ____
ROOT
ATOM      1  C   UNL     1       7.456  -3.106  24.999  0.00  0.00    +0.089 A 
ATOM      2  C   UNL     1       6.443  -4.142  24.870  0.00  0.00    +0.022 A 
ATOM      3  C   UNL     1       5.512  -3.883  25.888  0.00  0.00    +0.051 A 
ATOM      4  C   UNL     1       4.374  -4.680  26.099  0.00  0.00    +0.045 A 
ATOM      5  C   UNL     1       4.210  -5.811  25.312  0.00  0.00    +0.062 A 
ATOM      6 BR   UNL     1       2.689  -6.909  25.626  0.00  0.00    -0.046 Br
ATOM      7  C   UNL     1       5.123  -6.123  24.311  0.00  0.00    +0.136 A 
ATOM      8  N   UNL     1       5.920  -2.752  26.579  0.00  0.00    -0.345 N 
ATOM      9  C   UNL     1       5.113  -2.192  27.648  0.00  0.00    +0.149 C 
ATOM     10  C   UNL     1       6.212  -5.265  23.988  0.00  0.00    +0.019 A 
ATOM     11  C   UNL     1       7.150  -2.324  26.131  0.00  0.00    +0.044 A 
ENDROOT
BRANCH   1  12
ATOM     12  C   UNL     1       8.648  -2.903  24.169  0.00  0.00    +0.342 C 
ATOM     13  O   UNL     1       9.693  -3.524  24.300  0.00  0.00    -0.245 OA
BRANCH  12  14
ATOM     14  O   UNL     1       8.468  -1.921  23.231  0.00  0.00    -0.461 OA
BRANCH  14  16
ATOM     15  C   UNL     1       9.361  -0.494  21.471  0.00  0.00    +0.048 C 
ATOM     16  C   UNL     1       9.492  -1.801  22.235  0.00  0.00    +0.229 C 
ENDBRANCH  14  16
ENDBRANCH  12  14
ENDBRANCH   1  12
BRANCH   7  17
ATOM     17  O   UNL     1       4.968  -7.301  23.618  0.00  0.00    -0.505 OA
ATOM     18  H   UNL     1       4.822  -8.013  24.265  0.00  0.00    +0.292 HD
ENDBRANCH   7  17
BRANCH  10  19
ATOM     19  C   UNL     1       7.135  -5.562  22.806  0.00  0.00    +0.123 C 
BRANCH  19  20
ATOM     20  N   UNL     1       6.798  -4.994  21.481  0.00  0.00    -0.304 NA
ATOM     21  C   UNL     1       5.988  -3.786  21.640  0.00  0.00    +0.104 C 
ATOM     22  C   UNL     1       6.108  -5.951  20.619  0.00  0.00    +0.104 C 
ENDBRANCH  19  20
ENDBRANCH  10  19
BRANCH  11  23
ATOM     23  C   UNL     1       7.983  -1.193  26.718  0.00  0.00    +0.128 C 
BRANCH  23  24
ATOM     24  S   UNL     1       7.461   0.502  26.299  0.00  0.00    -0.119 S 
BRANCH  24  25
ATOM     25  C   UNL     1       8.760   1.065  25.194  0.00  0.00    +0.008 A 
ATOM     26  C   UNL     1      10.012   0.447  25.098  0.00  0.00    +0.015 A 
ATOM     27  C   UNL     1      11.035   1.020  24.332  0.00  0.00    +0.001 A 
ATOM     28  C   UNL     1      10.816   2.214  23.648  0.00  0.00    +0.000 A 
ATOM     29  C   UNL     1       9.566   2.825  23.716  0.00  0.00    +0.001 A 
ATOM     30  C   UNL     1       8.549   2.255  24.480  0.00  0.00    +0.015 A 
ENDBRANCH  24  25
ENDBRANCH  23  24
ENDBRANCH  11  23
TORSDOF 9
ENDMDL
MODEL 2
REMARK VINA RESULT:      -6.6      2.148      4.118
REMARK  Name = 
REMARK  13 active torsions:
REMARK  status: ('A' for Active; 'I' for Inactive)
REMARK    1  A    between atoms: C_1  and  C_2
REMARK    2  A    between atoms: C_2  and  O_3
REMARK    3  A    between atoms: O_3  and  C_4
REMARK    4  A    between atoms: C_4  and  C_6
REMARK    5  A    between atoms: C_7  and  C_22
REMARK    6  A    between atoms: N_8  and  C_21
REMARK    7  A    between atoms: C_12  and  O_19
REMARK    8  A    between atoms: C_13  and  C_15
REMARK    9  A    between atoms: C_15  and  N_16
REMARK   10  A    between atoms: N_16  and  C_17
REMARK   11  A    between atoms: N_16  and  C_18
REMARK   12  A    between atoms: C_22  and  S_23
REMARK   13  A    between atoms: S_23  and  C_24
REMARK                            x       y       z     vdW  Elec       q    Type
REMARK                         _______ _______ _______ _____ _____    ______ ____
ROOT
ATOM      1  C   UNL     1       7.497  -4.443  25.240  0.00  0.00    +0.089 A 
ATOM      2  C   UNL     1       6.361  -5.339  25.387  0.00  0.00    +0.022 A 
ATOM      3  C   UNL     1       5.918  -5.598  24.081  0.00  0.00    +0.051 A 
ATOM      4  C   UNL     1       4.820  -6.428  23.801  0.00  0.00    +0.045 A 
ATOM      5  C   UNL     1       4.102  -6.950  24.868  0.00  0.00    +0.062 A 
ATOM      6 BR   UNL     1       2.592  -8.041  24.485  0.00  0.00    -0.046 Br
ATOM      7  C   UNL     1       4.487  -6.695  26.179  0.00  0.00    +0.136 A 
ATOM      8  N   UNL     1       6.743  -4.921  23.195  0.00  0.00    -0.345 N 
ATOM      9  C   UNL     1       6.577  -5.057  21.760  0.00  0.00    +0.149 C 
ATOM     10  C   UNL     1       5.669  -5.968  26.492  0.00  0.00    +0.019 A 
ATOM     11  C   UNL     1       7.640  -4.127  23.874  0.00  0.00    +0.044 A 
ENDROOT
BRANCH   1  12
ATOM     12  C   UNL     1       8.341  -3.877  26.298  0.00  0.00    +0.342 C 
ATOM     13  O   UNL     1       9.140  -4.523  26.962  0.00  0.00    -0.245 OA
BRANCH  12  14
ATOM     14  O   UNL     1       8.124  -2.536  26.475  0.00  0.00    -0.461 OA
BRANCH  14  16
ATOM     15  C   UNL     1       6.374  -0.939  25.913  0.00  0.00    +0.048 C 
ATOM     16  C   UNL     1       6.773  -2.143  26.749  0.00  0.00    +0.229 C 
ENDBRANCH  14  16
ENDBRANCH  12  14
ENDBRANCH   1  12
BRANCH   7  17
ATOM     17  O   UNL     1       3.693  -7.157  27.203  0.00  0.00    -0.505 OA
ATOM     18  H   UNL     1       2.894  -6.603  27.238  0.00  0.00    +0.292 HD
ENDBRANCH   7  17
BRANCH  10  19
ATOM     19  C   UNL     1       6.142  -5.801  27.936  0.00  0.00    +0.123 C 
BRANCH  19  20
ATOM     20  N   UNL     1       5.133  -5.558  28.990  0.00  0.00    -0.304 NA
ATOM     21  C   UNL     1       4.657  -4.176  28.926  0.00  0.00    +0.104 C 
ATOM     22  C   UNL     1       5.636  -5.853  30.329  0.00  0.00    +0.104 C 
ENDBRANCH  19  20
ENDBRANCH  10  19
BRANCH  11  23
ATOM     23  C   UNL     1       8.626  -3.145  23.257  0.00  0.00    +0.128 C 
BRANCH  23  24
ATOM     24  S   UNL     1       7.921  -1.621  22.549  0.00  0.00    -0.119 S 
BRANCH  24  25
ATOM     25  C   UNL     1       9.109  -0.363  23.027  0.00  0.00    +0.008 A 
ATOM     26  C   UNL     1       9.752  -0.343  24.271  0.00  0.00    +0.015 A 
ATOM     27  C   UNL     1      10.553   0.745  24.643  0.00  0.00    +0.001 A 
ATOM     28  C   UNL     1      10.726   1.820  23.775  0.00  0.00    +0.000 A 
ATOM     29  C   UNL     1      10.111   1.799  22.525  0.00  0.00    +0.001 A 
ATOM     30  C   UNL     1       9.313   0.718  22.155  0.00  0.00    +0.015 A 
ENDBRANCH  24  25
ENDBRANCH  23  24
ENDBRANCH  11  23
TORSDOF 9
ENDMDL
MODEL 3
REMARK VINA RESULT:      -6.4      2.593      4.114
REMARK  Name = 
REMARK  13 active torsions:
REMARK  status: ('A' for Active; 'I' for Inactive)
REMARK    1  A    between atoms: C_1  and  C_2
REMARK    2  A    between atoms: C_2  and  O_3
REMARK    3  A    between atoms: O_3  and  C_4
REMARK    4  A    between atoms: C_4  and  C_6
REMARK    5  A    between atoms: C_7  and  C_22
REMARK    6  A    between atoms: N_8  and  C_21
REMARK    7  A    between atoms: C_12  and  O_19
REMARK    8  A    between atoms: C_13  and  C_15
REMARK    9  A    between atoms: C_15  and  N_16
REMARK   10  A    between atoms: N_16  and  C_17
REMARK   11  A    between atoms: N_16  and  C_18
REMARK   12  A    between atoms: C_22  and  S_23
REMARK   13  A    between atoms: S_23  and  C_24
REMARK                            x       y       z     vdW  Elec       q    Type
REMARK                         _______ _______ _______ _____ _____    ______ ____
ROOT
ATOM      1  C   UNL     1       7.234  -3.499  24.282  0.00  0.00    +0.089 A 
ATOM      2  C   UNL     1       6.377  -3.124  25.396  0.00  0.00    +0.022 A 
ATOM      3  C   UNL     1       6.119  -1.755  25.226  0.00  0.00    +0.051 A 
ATOM      4  C   UNL     1       5.323  -1.014  26.115  0.00  0.00    +0.045 A 
ATOM      5  C   UNL     1       4.835  -1.653  27.247  0.00  0.00    +0.062 A 
ATOM      6 BR   UNL     1       3.790  -0.637  28.469  0.00  0.00    -0.046 Br
ATOM      7  C   UNL     1       5.090  -3.001  27.472  0.00  0.00    +0.136 A 
ATOM      8  N   UNL     1       6.761  -1.327  24.073  0.00  0.00    -0.345 N 
ATOM      9  C   UNL     1       6.616   0.034  23.593  0.00  0.00    +0.149 C 
ATOM     10  C   UNL     1       5.782  -3.807  26.525  0.00  0.00    +0.019 A 
ATOM     11  C   UNL     1       7.532  -2.338  23.541  0.00  0.00    +0.044 A 
ENDROOT
BRANCH   1  12
ATOM     12  C   UNL     1       7.783  -4.823  23.973  0.00  0.00    +0.342 C 
ATOM     13  O   UNL     1       8.910  -5.189  24.275  0.00  0.00    -0.245 OA
BRANCH  12  14
ATOM     14  O   UNL     1       6.894  -5.609  23.288  0.00  0.00    -0.461 OA
BRANCH  14  16
ATOM     15  C   UNL     1       6.204  -5.641  20.953  0.00  0.00    +0.048 C 
ATOM     16  C   UNL     1       7.281  -5.998  21.964  0.00  0.00    +0.229 C 
ENDBRANCH  14  16
ENDBRANCH  12  14
ENDBRANCH   1  12
BRANCH   7  17
ATOM     17  O   UNL     1       4.664  -3.566  28.651  0.00  0.00    -0.505 OA
ATOM     18  H   UNL     1       4.260  -2.866  29.192  0.00  0.00    +0.292 HD
ENDBRANCH   7  17
BRANCH  10  19
ATOM     19  C   UNL     1       5.947  -5.312  26.732  0.00  0.00    +0.123 C 
BRANCH  19  20
ATOM     20  N   UNL     1       4.737  -6.138  26.940  0.00  0.00    -0.304 NA
ATOM     21  C   UNL     1       4.900  -6.986  28.120  0.00  0.00    +0.104 C 
ATOM     22  C   UNL     1       4.408  -6.956  25.776  0.00  0.00    +0.104 C 
ENDBRANCH  19  20
ENDBRANCH  10  19
BRANCH  11  23
ATOM     23  C   UNL     1       8.475  -2.224  22.352  0.00  0.00    +0.128 C 
BRANCH  23  24
ATOM     24  S   UNL     1      10.215  -1.834  22.728  0.00  0.00    -0.119 S 
BRANCH  24  25
ATOM     25  C   UNL     1      10.188  -0.055  22.972  0.00  0.00    +0.008 A 
ATOM     26  C   UNL     1      10.365   0.555  24.219  0.00  0.00    +0.015 A 
ATOM     27  C   UNL     1      10.184   1.935  24.372  0.00  0.00    +0.001 A 
ATOM     28  C   UNL     1       9.830   2.723  23.278  0.00  0.00    +0.000 A 
ATOM     29  C   UNL     1       9.675   2.130  22.027  0.00  0.00    +0.001 A 
ATOM     30  C   UNL     1       9.854   0.756  21.876  0.00  0.00    +0.015 A 
ENDBRANCH  24  25
ENDBRANCH  23  24
ENDBRANCH  11  23
TORSDOF 9
ENDMDL
MODEL 4
REMARK VINA RESULT:      -6.2      2.455      3.740
REMARK  Name = 
REMARK  13 active torsions:
REMARK  status: ('A' for Active; 'I' for Inactive)
REMARK    1  A    between atoms: C_1  and  C_2
REMARK    2  A    between atoms: C_2  and  O_3
REMARK    3  A    between atoms: O_3  and  C_4
REMARK    4  A    between atoms: C_4  and  C_6
REMARK    5  A    between atoms: C_7  and  C_22
REMARK    6  A    between atoms: N_8  and  C_21
REMARK    7  A    between atoms: C_12  and  O_19
REMARK    8  A    between atoms: C_13  and  C_15
REMARK    9  A    between atoms: C_15  and  N_16
REMARK   10  A    between atoms: N_16  and  C_17
REMARK   11  A    between atoms: N_16  and  C_18
REMARK   12  A    between atoms: C_22  and  S_23
REMARK   13  A    between atoms: S_23  and  C_24
REMARK                            x       y       z     vdW  Elec       q    Type
REMARK                         _______ _______ _______ _____ _____    ______ ____
ROOT
ATOM      1  C   UNL     1       5.749  -3.877  24.072  0.00  0.00    +0.089 A 
ATOM      2  C   UNL     1       5.621  -4.635  25.307  0.00  0.00    +0.022 A 
ATOM      3  C   UNL     1       6.283  -3.874  26.283  0.00  0.00    +0.051 A 
ATOM      4  C   UNL     1       6.386  -4.279  27.624  0.00  0.00    +0.045 A 
ATOM      5  C   UNL     1       5.874  -5.521  27.975  0.00  0.00    +0.062 A 
ATOM      6 BR   UNL     1       6.050  -6.084  29.783  0.00  0.00    -0.046 Br
ATOM      7  C   UNL     1       5.236  -6.322  27.035  0.00  0.00    +0.136 A 
ATOM      8  N   UNL     1       6.766  -2.718  25.686  0.00  0.00    -0.345 N 
ATOM      9  C   UNL     1       7.435  -1.693  26.465  0.00  0.00    +0.149 C 
ATOM     10  C   UNL     1       5.001  -5.881  25.703  0.00  0.00    +0.019 A 
ATOM     11  C   UNL     1       6.550  -2.746  24.326  0.00  0.00    +0.044 A 
ENDROOT
BRANCH   1  12
ATOM     12  C   UNL     1       5.219  -4.217  22.748  0.00  0.00    +0.342 C 
ATOM     13  O   UNL     1       4.035  -4.416  22.509  0.00  0.00    -0.245 OA
BRANCH  12  14
ATOM     14  O   UNL     1       6.203  -4.304  21.799  0.00  0.00    -0.461 OA
BRANCH  14  16
ATOM     15  C   UNL     1       6.946  -6.610  22.048  0.00  0.00    +0.048 C 
ATOM     16  C   UNL     1       6.330  -5.567  21.131  0.00  0.00    +0.229 C 
ENDBRANCH  14  16
ENDBRANCH  12  14
ENDBRANCH   1  12
BRANCH   7  17
ATOM     17  O   UNL     1       4.827  -7.580  27.408  0.00  0.00    -0.505 OA
ATOM     18  H   UNL     1       4.442  -8.016  26.627  0.00  0.00    +0.292 HD
ENDBRANCH   7  17
BRANCH  10  19
ATOM     19  C   UNL     1       4.192  -6.724  24.717  0.00  0.00    +0.123 C 
BRANCH  19  20
ATOM     20  N   UNL     1       2.792  -7.063  25.055  0.00  0.00    -0.304 NA
ATOM     21  C   UNL     1       2.289  -8.098  24.152  0.00  0.00    +0.104 C 
ATOM     22  C   UNL     1       1.909  -5.900  25.025  0.00  0.00    +0.104 C 
ENDBRANCH  19  20
ENDBRANCH  10  19
BRANCH  11  23
ATOM     23  C   UNL     1       7.040  -1.722  23.312  0.00  0.00    +0.128 C 
BRANCH  23  24
ATOM     24  S   UNL     1       8.703  -1.994  22.619  0.00  0.00    -0.119 S 
BRANCH  24  25
ATOM     25  C   UNL     1       9.526  -0.425  22.911  0.00  0.00    +0.008 A 
ATOM     26  C   UNL     1      10.023  -0.035  24.160  0.00  0.00    +0.015 A 
ATOM     27  C   UNL     1      10.519   1.260  24.359  0.00  0.00    +0.001 A 
ATOM     28  C   UNL     1      10.529   2.178  23.311  0.00  0.00    +0.000 A 
ATOM     29  C   UNL     1      10.059   1.793  22.058  0.00  0.00    +0.001 A 
ATOM     30  C   UNL     1       9.565   0.505  21.860  0.00  0.00    +0.015 A 
ENDBRANCH  24  25
ENDBRANCH  23  24
ENDBRANCH  11  23
TORSDOF 9
ENDMDL
MODEL 5
REMARK VINA RESULT:      -6.1      2.502      4.433
REMARK  Name = 
REMARK  13 active torsions:
REMARK  status: ('A' for Active; 'I' for Inactive)
REMARK    1  A    between atoms: C_1  and  C_2
REMARK    2  A    between atoms: C_2  and  O_3
REMARK    3  A    between atoms: O_3  and  C_4
REMARK    4  A    between atoms: C_4  and  C_6
REMARK    5  A    between atoms: C_7  and  C_22
REMARK    6  A    between atoms: N_8  and  C_21
REMARK    7  A    between atoms: C_12  and  O_19
REMARK    8  A    between atoms: C_13  and  C_15
REMARK    9  A    between atoms: C_15  and  N_16
REMARK   10  A    between atoms: N_16  and  C_17
REMARK   11  A    between atoms: N_16  and  C_18
REMARK   12  A    between atoms: C_22  and  S_23
REMARK   13  A    between atoms: S_23  and  C_24
REMARK                            x       y       z     vdW  Elec       q    Type
REMARK                         _______ _______ _______ _____ _____    ______ ____
ROOT
ATOM      1  C   UNL     1       8.338  -1.309  25.294  0.00  0.00    +0.089 A 
ATOM      2  C   UNL     1       7.795  -2.540  24.740  0.00  0.00    +0.022 A 
ATOM      3  C   UNL     1       8.208  -2.559  23.399  0.00  0.00    +0.051 A 
ATOM      4  C   UNL     1       7.874  -3.599  22.515  0.00  0.00    +0.045 A 
ATOM      5  C   UNL     1       7.037  -4.606  22.973  0.00  0.00    +0.062 A 
ATOM      6 BR   UNL     1       6.554  -5.991  21.762  0.00  0.00    -0.046 Br
ATOM      7  C   UNL     1       6.579  -4.612  24.286  0.00  0.00    +0.136 A 
ATOM      8  N   UNL     1       8.970  -1.425  23.157  0.00  0.00    -0.345 N 
ATOM      9  C   UNL     1       9.603  -1.205  21.870  0.00  0.00    +0.149 C 
ATOM     10  C   UNL     1       7.007  -3.646  25.239  0.00  0.00    +0.019 A 
ATOM     11  C   UNL     1       8.974  -0.597  24.258  0.00  0.00    +0.044 A 
ENDROOT
BRANCH   1  12
ATOM     12  C   UNL     1       8.215  -0.809  26.668  0.00  0.00    +0.342 C 
ATOM     13  O   UNL     1       9.136  -0.771  27.472  0.00  0.00    -0.245 OA
BRANCH  12  14
ATOM     14  O   UNL     1       6.941  -0.399  26.961  0.00  0.00    -0.461 OA
BRANCH  14  16
ATOM     15  C   UNL     1       5.504   0.990  25.570  0.00  0.00    +0.048 C 
ATOM     16  C   UNL     1       6.612   0.951  26.608  0.00  0.00    +0.229 C 
ENDBRANCH  14  16
ENDBRANCH  12  14
ENDBRANCH   1  12
BRANCH   7  17
ATOM     17  O   UNL     1       5.680  -5.580  24.668  0.00  0.00    -0.505 OA
ATOM     18  H   UNL     1       4.853  -5.435  24.176  0.00  0.00    +0.292 HD
ENDBRANCH   7  17
BRANCH  10  19
ATOM     19  C   UNL     1       6.589  -3.737  26.707  0.00  0.00    +0.123 C 
BRANCH  19  20
ATOM     20  N   UNL     1       5.160  -3.952  27.026  0.00  0.00    -0.304 NA
ATOM     21  C   UNL     1       4.387  -2.748  26.722  0.00  0.00    +0.104 C 
ATOM     22  C   UNL     1       4.949  -4.346  28.416  0.00  0.00    +0.104 C 
ENDBRANCH  19  20
ENDBRANCH  10  19
BRANCH  11  23
ATOM     23  C   UNL     1       9.594   0.790  24.343  0.00  0.00    +0.128 C 
BRANCH  23  24
ATOM     24  S   UNL     1       8.687   2.138  23.519  0.00  0.00    -0.119 S 
BRANCH  24  25
ATOM     25  C   UNL     1       9.791   3.542  23.702  0.00  0.00    +0.008 A 
ATOM     26  C   UNL     1       9.362   4.814  24.101  0.00  0.00    +0.015 A 
ATOM     27  C   UNL     1      10.242   5.904  24.080  0.00  0.00    +0.001 A 
ATOM     28  C   UNL     1      11.562   5.734  23.667  0.00  0.00    +0.000 A 
ATOM     29  C   UNL     1      12.006   4.468  23.292  0.00  0.00    +0.001 A 
ATOM     30  C   UNL     1      11.130   3.384  23.311  0.00  0.00    +0.015 A 
ENDBRANCH  24  25
ENDBRANCH  23  24
ENDBRANCH  11  23
TORSDOF 9
ENDMDL
MODEL 6
REMARK VINA RESULT:      -6.0      2.011      2.627
REMARK  Name = 
REMARK  13 active torsions:
REMARK  status: ('A' for Active; 'I' for Inactive)
REMARK    1  A    between atoms: C_1  and  C_2
REMARK    2  A    between atoms: C_2  and  O_3
REMARK    3  A    between atoms: O_3  and  C_4
REMARK    4  A    between atoms: C_4  and  C_6
REMARK    5  A    between atoms: C_7  and  C_22
REMARK    6  A    between atoms: N_8  and  C_21
REMARK    7  A    between atoms: C_12  and  O_19
REMARK    8  A    between atoms: C_13  and  C_15
REMARK    9  A    between atoms: C_15  and  N_16
REMARK   10  A    between atoms: N_16  and  C_17
REMARK   11  A    between atoms: N_16  and  C_18
REMARK   12  A    between atoms: C_22  and  S_23
REMARK   13  A    between atoms: S_23  and  C_24
REMARK                            x       y       z     vdW  Elec       q    Type
REMARK                         _______ _______ _______ _____ _____    ______ ____
ROOT
ATOM      1  C   UNL     1       5.998  -1.768  24.616  0.00  0.00    +0.089 A 
ATOM      2  C   UNL     1       5.890  -2.888  25.537  0.00  0.00    +0.022 A 
ATOM      3  C   UNL     1       5.313  -2.360  26.702  0.00  0.00    +0.051 A 
ATOM      4  C   UNL     1       5.050  -3.139  27.842  0.00  0.00    +0.045 A 
ATOM      5  C   UNL     1       5.449  -4.468  27.835  0.00  0.00    +0.062 A 
ATOM      6 BR   UNL     1       5.127  -5.509  29.393  0.00  0.00    -0.046 Br
ATOM      7  C   UNL     1       6.051  -5.027  26.713  0.00  0.00    +0.136 A 
ATOM      8  N   UNL     1       5.067  -1.010  26.497  0.00  0.00    -0.345 N 
ATOM      9  C   UNL     1       4.401  -0.206  27.505  0.00  0.00    +0.149 C 
ATOM     10  C   UNL     1       6.210  -4.299  25.500  0.00  0.00    +0.019 A 
ATOM     11  C   UNL     1       5.571  -0.602  25.282  0.00  0.00    +0.044 A 
ENDROOT
BRANCH   1  12
ATOM     12  C   UNL     1       6.518  -1.776  23.245  0.00  0.00    +0.342 C 
ATOM     13  O   UNL     1       5.910  -2.217  22.279  0.00  0.00    -0.245 OA
BRANCH  12  14
ATOM     14  O   UNL     1       7.779  -1.245  23.163  0.00  0.00    -0.461 OA
BRANCH  14  16
ATOM     15  C   UNL     1       9.775  -2.451  23.864  0.00  0.00    +0.048 C 
ATOM     16  C   UNL     1       8.815  -2.136  22.729  0.00  0.00    +0.229 C 
ENDBRANCH  14  16
ENDBRANCH  12  14
ENDBRANCH   1  12
BRANCH   7  17
ATOM     17  O   UNL     1       6.510  -6.321  26.785  0.00  0.00    -0.505 OA
ATOM     18  H   UNL     1       5.825  -6.905  26.415  0.00  0.00    +0.292 HD
ENDBRANCH   7  17
BRANCH  10  19
ATOM     19  C   UNL     1       6.763  -4.965  24.240  0.00  0.00    +0.123 C 
BRANCH  19  20
ATOM     20  N   UNL     1       5.887  -5.883  23.479  0.00  0.00    -0.304 NA
ATOM     21  C   UNL     1       6.476  -6.179  22.174  0.00  0.00    +0.104 C 
ATOM     22  C   UNL     1       4.534  -5.358  23.312  0.00  0.00    +0.104 C 
ENDBRANCH  19  20
ENDBRANCH  10  19
BRANCH  11  23
ATOM     23  C   UNL     1       5.605   0.824  24.750  0.00  0.00    +0.128 C 
BRANCH  23  24
ATOM     24  S   UNL     1       6.910   1.908  25.415  0.00  0.00    -0.119 S 
BRANCH  24  25
ATOM     25  C   UNL     1       8.143   1.908  24.110  0.00  0.00    +0.008 A 
ATOM     26  C   UNL     1       7.835   2.106  22.759  0.00  0.00    +0.015 A 
ATOM     27  C   UNL     1       8.816   1.945  21.772  0.00  0.00    +0.001 A 
ATOM     28  C   UNL     1      10.116   1.589  22.124  0.00  0.00    +0.000 A 
ATOM     29  C   UNL     1      10.439   1.413  23.467  0.00  0.00    +0.001 A 
ATOM     30  C   UNL     1       9.463   1.572  24.450  0.00  0.00    +0.015 A 
ENDBRANCH  24  25
ENDBRANCH  23  24
ENDBRANCH  11  23
TORSDOF 9
ENDMDL
MODEL 7
REMARK VINA RESULT:      -6.0      3.051      6.222
REMARK  Name = 
REMARK  13 active torsions:
REMARK  status: ('A' for Active; 'I' for Inactive)
REMARK    1  A    between atoms: C_1  and  C_2
REMARK    2  A    between atoms: C_2  and  O_3
REMARK    3  A    between atoms: O_3  and  C_4
REMARK    4  A    between atoms: C_4  and  C_6
REMARK    5  A    between atoms: C_7  and  C_22
REMARK    6  A    between atoms: N_8  and  C_21
REMARK    7  A    between atoms: C_12  and  O_19
REMARK    8  A    between atoms: C_13  and  C_15
REMARK    9  A    between atoms: C_15  and  N_16
REMARK   10  A    between atoms: N_16  and  C_17
REMARK   11  A    between atoms: N_16  and  C_18
REMARK   12  A    between atoms: C_22  and  S_23
REMARK   13  A    between atoms: S_23  and  C_24
REMARK                            x       y       z     vdW  Elec       q    Type
REMARK                         _______ _______ _______ _____ _____    ______ ____
ROOT
ATOM      1  C   UNL     1       6.993  -4.123  24.945  0.00  0.00    +0.089 A 
ATOM      2  C   UNL     1       6.731  -2.715  24.693  0.00  0.00    +0.022 A 
ATOM      3  C   UNL     1       5.995  -2.267  25.801  0.00  0.00    +0.051 A 
ATOM      4  C   UNL     1       5.540  -0.944  25.929  0.00  0.00    +0.045 A 
ATOM      5  C   UNL     1       5.768  -0.068  24.877  0.00  0.00    +0.062 A 
ATOM      6 BR   UNL     1       5.117   1.712  25.037  0.00  0.00    -0.046 Br
ATOM      7  C   UNL     1       6.467  -0.475  23.747  0.00  0.00    +0.136 A 
ATOM      8  N   UNL     1       5.836  -3.329  26.680  0.00  0.00    -0.345 N 
ATOM      9  C   UNL     1       5.176  -3.152  27.960  0.00  0.00    +0.149 C 
ATOM     10  C   UNL     1       7.052  -1.768  23.646  0.00  0.00    +0.019 A 
ATOM     11  C   UNL     1       6.337  -4.491  26.136  0.00  0.00    +0.044 A 
ENDROOT
BRANCH   1  12
ATOM     12  C   UNL     1       7.742  -5.064  24.106  0.00  0.00    +0.342 C 
ATOM     13  O   UNL     1       8.953  -5.226  24.164  0.00  0.00    -0.245 OA
BRANCH  12  14
ATOM     14  O   UNL     1       6.933  -5.738  23.229  0.00  0.00    -0.461 OA
BRANCH  14  16
ATOM     15  C   UNL     1       6.150  -5.681  20.924  0.00  0.00    +0.048 C 
ATOM     16  C   UNL     1       7.348  -5.740  21.857  0.00  0.00    +0.229 C 
ENDBRANCH  14  16
ENDBRANCH  12  14
ENDBRANCH   1  12
BRANCH   7  17
ATOM     17  O   UNL     1       6.589   0.401  22.693  0.00  0.00    -0.505 OA
ATOM     18  H   UNL     1       5.871   0.215  22.063  0.00  0.00    +0.292 HD
ENDBRANCH   7  17
BRANCH  10  19
ATOM     19  C   UNL     1       7.920  -2.158  22.449  0.00  0.00    +0.123 C 
BRANCH  19  20
ATOM     20  N   UNL     1       9.364  -1.839  22.485  0.00  0.00    -0.304 NA
ATOM     21  C   UNL     1       9.822  -1.720  23.869  0.00  0.00    +0.104 C 
ATOM     22  C   UNL     1       9.690  -0.624  21.743  0.00  0.00    +0.104 C 
ENDBRANCH  19  20
ENDBRANCH  10  19
BRANCH  11  23
ATOM     23  C   UNL     1       6.242  -5.885  26.740  0.00  0.00    +0.128 C 
BRANCH  23  24
ATOM     24  S   UNL     1       4.567  -6.500  27.108  0.00  0.00    -0.119 S 
BRANCH  24  25
ATOM     25  C   UNL     1       3.645  -6.078  25.626  0.00  0.00    +0.008 A 
ATOM     26  C   UNL     1       3.875  -6.672  24.380  0.00  0.00    +0.015 A 
ATOM     27  C   UNL     1       3.230  -6.196  23.231  0.00  0.00    +0.001 A 
ATOM     28  C   UNL     1       2.342  -5.125  23.316  0.00  0.00    +0.000 A 
ATOM     29  C   UNL     1       2.087  -4.543  24.555  0.00  0.00    +0.001 A 
ATOM     30  C   UNL     1       2.730  -5.016  25.698  0.00  0.00    +0.015 A 
ENDBRANCH  24  25
ENDBRANCH  23  24
ENDBRANCH  11  23
TORSDOF 9
ENDMDL
MODEL 8
REMARK VINA RESULT:      -5.9      1.514      2.017
REMARK  Name = 
REMARK  13 active torsions:
REMARK  status: ('A' for Active; 'I' for Inactive)
REMARK    1  A    between atoms: C_1  and  C_2
REMARK    2  A    between atoms: C_2  and  O_3
REMARK    3  A    between atoms: O_3  and  C_4
REMARK    4  A    between atoms: C_4  and  C_6
REMARK    5  A    between atoms: C_7  and  C_22
REMARK    6  A    between atoms: N_8  and  C_21
REMARK    7  A    between atoms: C_12  and  O_19
REMARK    8  A    between atoms: C_13  and  C_15
REMARK    9  A    between atoms: C_15  and  N_16
REMARK   10  A    between atoms: N_16  and  C_17
REMARK   11  A    between atoms: N_16  and  C_18
REMARK   12  A    between atoms: C_22  and  S_23
REMARK   13  A    between atoms: S_23  and  C_24
REMARK                            x       y       z     vdW  Elec       q    Type
REMARK                         _______ _______ _______ _____ _____    ______ ____
ROOT
ATOM      1  C   UNL     1       6.648  -1.616  24.332  0.00  0.00    +0.089 A 
ATOM      2  C   UNL     1       5.561  -2.569  24.170  0.00  0.00    +0.022 A 
ATOM      3  C   UNL     1       4.735  -2.387  25.289  0.00  0.00    +0.051 A 
ATOM      4  C   UNL     1       3.566  -3.138  25.502  0.00  0.00    +0.045 A 
ATOM      5  C   UNL     1       3.264  -4.150  24.603  0.00  0.00    +0.062 A 
ATOM      6 BR   UNL     1       1.703  -5.191  24.916  0.00  0.00    -0.046 Br
ATOM      7  C   UNL     1       4.070  -4.386  23.496  0.00  0.00    +0.136 A 
ATOM      8  N   UNL     1       5.272  -1.376  26.072  0.00  0.00    -0.345 N 
ATOM      9  C   UNL     1       4.593  -0.909  27.267  0.00  0.00    +0.149 C 
ATOM     10  C   UNL     1       5.185  -3.558  23.183  0.00  0.00    +0.019 A 
ATOM     11  C   UNL     1       6.488  -0.966  25.572  0.00  0.00    +0.044 A 
ENDROOT
BRANCH   1  12
ATOM     12  C   UNL     1       7.781  -1.379  23.431  0.00  0.00    +0.342 C 
ATOM     13  O   UNL     1       8.859  -1.951  23.514  0.00  0.00    -0.245 OA
BRANCH  12  14
ATOM     14  O   UNL     1       7.503  -0.428  22.485  0.00  0.00    -0.461 OA
BRANCH  14  16
ATOM     15  C   UNL     1       8.418   1.476  21.273  0.00  0.00    +0.048 C 
ATOM     16  C   UNL     1       8.614   0.033  21.704  0.00  0.00    +0.229 C 
ENDBRANCH  14  16
ENDBRANCH  12  14
ENDBRANCH   1  12
BRANCH   7  17
ATOM     17  O   UNL     1       3.781  -5.458  22.683  0.00  0.00    -0.505 OA
ATOM     18  H   UNL     1       2.950  -5.266  22.216  0.00  0.00    +0.292 HD
ENDBRANCH   7  17
BRANCH  10  19
ATOM     19  C   UNL     1       5.987  -3.757  21.898  0.00  0.00    +0.123 C 
BRANCH  19  20
ATOM     20  N   UNL     1       7.029  -4.808  21.866  0.00  0.00    -0.304 NA
ATOM     21  C   UNL     1       6.551  -5.972  21.120  0.00  0.00    +0.104 C 
ATOM     22  C   UNL     1       7.460  -5.211  23.202  0.00  0.00    +0.104 C 
ENDBRANCH  19  20
ENDBRANCH  10  19
BRANCH  11  23
ATOM     23  C   UNL     1       7.439   0.034  26.214  0.00  0.00    +0.128 C 
BRANCH  23  24
ATOM     24  S   UNL     1       7.116   1.795  25.876  0.00  0.00    -0.119 S 
BRANCH  24  25
ATOM     25  C   UNL     1       8.615   2.330  25.045  0.00  0.00    +0.008 A 
ATOM     26  C   UNL     1       8.776   3.606  24.492  0.00  0.00    +0.015 A 
ATOM     27  C   UNL     1       9.907   3.915  23.725  0.00  0.00    +0.001 A 
ATOM     28  C   UNL     1      10.893   2.954  23.507  0.00  0.00    +0.000 A 
ATOM     29  C   UNL     1      10.754   1.688  24.073  0.00  0.00    +0.001 A 
ATOM     30  C   UNL     1       9.628   1.381  24.835  0.00  0.00    +0.015 A 
ENDBRANCH  24  25
ENDBRANCH  23  24
ENDBRANCH  11  23
TORSDOF 9
ENDMDL
MODEL 9
REMARK VINA RESULT:      -5.9      1.576      2.284
REMARK  Name = 
REMARK  13 active torsions:
REMARK  status: ('A' for Active; 'I' for Inactive)
REMARK    1  A    between atoms: C_1  and  C_2
REMARK    2  A    between atoms: C_2  and  O_3
REMARK    3  A    between atoms: O_3  and  C_4
REMARK    4  A    between atoms: C_4  and  C_6
REMARK    5  A    between atoms: C_7  and  C_22
REMARK    6  A    between atoms: N_8  and  C_21
REMARK    7  A    between atoms: C_12  and  O_19
REMARK    8  A    between atoms: C_13  and  C_15
REMARK    9  A    between atoms: C_15  and  N_16
REMARK   10  A    between atoms: N_16  and  C_17
REMARK   11  A    between atoms: N_16  and  C_18
REMARK   12  A    between atoms: C_22  and  S_23
REMARK   13  A    between atoms: S_23  and  C_24
REMARK                            x       y       z     vdW  Elec       q    Type
REMARK                         _______ _______ _______ _____ _____    ______ ____
ROOT
ATOM      1  C   UNL     1       6.748  -1.888  24.556  0.00  0.00    +0.089 A 
ATOM      2  C   UNL     1       5.575  -2.724  24.355  0.00  0.00    +0.022 A 
ATOM      3  C   UNL     1       4.681  -2.367  25.376  0.00  0.00    +0.051 A 
ATOM      4  C   UNL     1       3.419  -2.965  25.527  0.00  0.00    +0.045 A 
ATOM      5  C   UNL     1       3.079  -4.004  24.672  0.00  0.00    +0.062 A 
ATOM      6 BR   UNL     1       1.385  -4.837  24.903  0.00  0.00    -0.046 Br
ATOM      7  C   UNL     1       3.945  -4.411  23.663  0.00  0.00    +0.136 A 
ATOM      8  N   UNL     1       5.264  -1.365  26.139  0.00  0.00    -0.345 N 
ATOM      9  C   UNL     1       4.543  -0.736  27.230  0.00  0.00    +0.149 C 
ATOM     10  C   UNL     1       5.172  -3.738  23.404  0.00  0.00    +0.019 A 
ATOM     11  C   UNL     1       6.558  -1.132  25.730  0.00  0.00    +0.044 A 
ENDROOT
BRANCH   1  12
ATOM     12  C   UNL     1       7.974  -1.848  23.753  0.00  0.00    +0.342 C 
ATOM     13  O   UNL     1       8.029  -1.446  22.598  0.00  0.00    -0.245 OA
BRANCH  12  14
ATOM     14  O   UNL     1       9.060  -2.327  24.436  0.00  0.00    -0.461 OA
BRANCH  14  16
ATOM     15  C   UNL     1       8.993  -4.207  25.983  0.00  0.00    +0.048 C 
ATOM     16  C   UNL     1       9.163  -3.754  24.543  0.00  0.00    +0.229 C 
ENDBRANCH  14  16
ENDBRANCH  12  14
ENDBRANCH   1  12
BRANCH   7  17
ATOM     17  O   UNL     1       3.604  -5.503  22.900  0.00  0.00    -0.505 OA
ATOM     18  H   UNL     1       4.125  -6.263  23.212  0.00  0.00    +0.292 HD
ENDBRANCH   7  17
BRANCH  10  19
ATOM     19  C   UNL     1       6.054  -4.122  22.216  0.00  0.00    +0.123 C 
BRANCH  19  20
ATOM     20  N   UNL     1       6.233  -5.557  21.900  0.00  0.00    -0.304 NA
ATOM     21  C   UNL     1       7.527  -6.026  22.394  0.00  0.00    +0.104 C 
ATOM     22  C   UNL     1       6.111  -5.836  20.471  0.00  0.00    +0.104 C 
ENDBRANCH  19  20
ENDBRANCH  10  19
BRANCH  11  23
ATOM     23  C   UNL     1       7.561  -0.197  26.392  0.00  0.00    +0.128 C 
BRANCH  23  24
ATOM     24  S   UNL     1       7.425   1.571  25.972  0.00  0.00    -0.119 S 
BRANCH  24  25
ATOM     25  C   UNL     1       8.373   1.701  24.453  0.00  0.00    +0.008 A 
ATOM     26  C   UNL     1       7.813   2.066  23.223  0.00  0.00    +0.015 A 
ATOM     27  C   UNL     1       8.570   2.004  22.046  0.00  0.00    +0.001 A 
ATOM     28  C   UNL     1       9.897   1.582  22.086  0.00  0.00    +0.000 A 
ATOM     29  C   UNL     1      10.472   1.240  23.307  0.00  0.00    +0.001 A 
ATOM     30  C   UNL     1       9.718   1.300  24.478  0.00  0.00    +0.015 A 
ENDBRANCH  24  25
ENDBRANCH  23  24
ENDBRANCH  11  23
TORSDOF 9
ENDMDL
