MODEL 1
REMARK VINA RESULT:      -3.5      0.000      0.000
REMARK  Name = 
REMARK  12 active torsions:
REMARK  status: ('A' for Active; 'I' for Inactive)
REMARK    1  A    between atoms: C_1  and  C_2
REMARK    2  A    between atoms: C_2  and  C_3
REMARK    3  A    between atoms: C_2  and  C_4
REMARK    4  A    between atoms: C_2  and  C_5
REMARK    5  A    between atoms: C_12  and  C_13
REMARK    6  A    between atoms: N_15  and  C_16
REMARK    7  A    between atoms: C_16  and  C_21
REMARK    8  A    between atoms: C_18  and  C_19
REMARK    9  A    between atoms: N_23  and  S_24
REMARK   10  A    between atoms: S_24  and  C_27
REMARK   11  A    between atoms: C_37  and  O_39
REMARK   12  A    between atoms: O_39  and  C_40
REMARK                            x       y       z     vdW  Elec       q    Type
REMARK                         _______ _______ _______ _____ _____    ______ ____
ROOT
ATOM      1  C   UNL     1       2.883   0.970  27.709  0.00  0.00    +0.168 C 
ATOM      2  N   UNL     1       2.445   2.234  28.307  0.00  0.00    -0.269 N 
ATOM      3  H   UNL     1       2.231   3.030  27.713  0.00  0.00    +0.153 HD
ATOM      4  C   UNL     1       2.558   2.456  29.645  0.00  0.00    +0.401 C 
ATOM      5  O   UNL     1       2.894   1.628  30.480  0.00  0.00    -0.226 OA
ATOM      6  O   UNL     1       2.453   3.784  29.915  0.00  0.00    -0.447 OA
ATOM      7  C   UNL     1       3.704   4.291  30.431  0.00  0.00    +0.182 C 
ATOM      8  C   UNL     1       4.251   5.561  29.868  0.00  0.00    +0.033 C 
ATOM      9  C   UNL     1       5.326   6.401  30.484  0.00  0.00    +0.007 C 
ATOM     10  C   UNL     1       6.227   6.912  29.348  0.00  0.00    +0.000 C 
ATOM     11  C   UNL     1       7.524   6.110  29.234  0.00  0.00    +0.000 C 
ATOM     12  C   UNL     1       8.219   6.326  27.891  0.00  0.00    +0.006 C 
ATOM     13  C   UNL     1       7.556   5.515  26.754  0.00  0.00    +0.061 C 
ATOM     14  C   UNL     1       8.568   5.043  25.751  0.00  0.00    +0.103 A 
ATOM     15  C   UNL     1       8.752   3.725  25.318  0.00  0.00    +0.238 A 
ATOM     16  N   UNL     1       9.805   3.402  24.510  0.00  0.00    -0.210 NA
ATOM     17  C   UNL     1      10.637   4.424  24.101  0.00  0.00    +0.096 A 
ATOM     18  C   UNL     1      11.785   4.248  23.299  0.00  0.00    +0.075 A 
ATOM     19  C   UNL     1      12.592   5.325  22.870  0.00  0.00    +0.122 A 
ATOM     20  C   UNL     1      12.234   6.618  23.222  0.00  0.00    +0.048 A 
ATOM     21  C   UNL     1      11.137   6.814  24.048  0.00  0.00    +0.033 A 
ATOM     22  C   UNL     1      10.361   5.754  24.484  0.00  0.00    +0.090 A 
ATOM     23  O   UNL     1       7.998   2.667  25.827  0.00  0.00    -0.470 OA
ATOM     24  C   UNL     1       6.928   2.221  24.951  0.00  0.00    +0.195 C 
ATOM     25  C   UNL     1       6.684   0.690  25.001  0.00  0.00    +0.078 C 
ATOM     26  C   UNL     1       6.015   0.511  26.369  0.00  0.00    +0.166 C 
ATOM     27  N   UNL     1       5.033   1.623  26.426  0.00  0.00    -0.285 N 
ATOM     28  C   UNL     1       5.542   2.673  25.485  0.00  0.00    +0.153 C 
ATOM     29  N   UNL     1       9.343   6.057  25.282  0.00  0.00    -0.245 NA
ATOM     30  C   UNL     1       4.736   4.252  29.337  0.00  0.00    +0.052 C 
ATOM     31  C   UNL     1       3.637   1.333  26.353  0.00  0.00    +0.237 C 
ATOM     32  O   UNL     1       3.000   1.628  25.337  0.00  0.00    -0.274 OA
ENDROOT
BRANCH   1  34
ATOM     33  C   UNL     1       0.443   0.657  26.925  0.00  0.00    +0.013 C 
ATOM     34  C   UNL     1       1.642  -0.003  27.625  0.00  0.00    -0.011 C 
ATOM     35  C   UNL     1       1.980  -1.263  26.782  0.00  0.00    +0.013 C 
ATOM     36  C   UNL     1       1.185  -0.496  29.012  0.00  0.00    +0.013 C 
ENDBRANCH   1  34
BRANCH  26  37
ATOM     37  C   UNL     1       5.642  -0.907  26.860  0.00  0.00    +0.234 C 
ATOM     38  N   UNL     1       5.312  -1.880  25.941  0.00  0.00    -0.299 N 
ATOM     39  H   UNL     1       5.080  -1.656  24.981  0.00  0.00    +0.150 HD
ATOM     40  O   UNL     1       5.785  -1.226  28.041  0.00  0.00    -0.274 OA
BRANCH  38  41
ATOM     41  C   UNL     1       5.219  -3.296  26.352  0.00  0.00    +0.119 C 
ATOM     42  C   UNL     1       3.876  -4.011  26.151  0.00  0.00    +0.046 C 
ATOM     43  C   UNL     1       4.307  -3.617  27.531  0.00  0.00    +0.046 C 
BRANCH  41  44
ATOM     44  C   UNL     1       6.526  -4.084  26.261  0.00  0.00    +0.256 C 
ATOM     45  N   UNL     1       7.474  -3.560  25.373  0.00  0.00    -0.188 N 
ATOM     46  H   UNL     1       7.252  -2.701  24.855  0.00  0.00    +0.176 HD
ATOM     47  O   UNL     1       6.675  -5.145  26.852  0.00  0.00    -0.272 OA
BRANCH  45  48
ATOM     48  S   UNL     1       8.942  -4.209  25.011  0.00  0.00    +0.048 S 
ATOM     49  O   UNL     1       8.733  -5.293  24.076  0.00  0.00    -0.155 OA
ATOM     50  O   UNL     1       9.592  -4.450  26.284  0.00  0.00    -0.155 OA
BRANCH  48  51
ATOM     51  C   UNL     1       9.933  -2.971  24.124  0.00  0.00    +0.151 C 
ATOM     52  C   UNL     1       9.581  -1.533  24.361  0.00  0.00    +0.030 C 
ATOM     53  C   UNL     1       9.172  -2.207  23.080  0.00  0.00    +0.030 C 
ENDBRANCH  48  51
ENDBRANCH  45  48
ENDBRANCH  41  44
BRANCH  42  54
ATOM     54  C   UNL     1       3.731  -5.450  25.892  0.00  0.00    -0.028 C 
ATOM     55  C   UNL     1       2.959  -5.984  24.935  0.00  0.00    +0.004 C 
ENDBRANCH  42  54
ENDBRANCH  38  41
ENDBRANCH  26  37
BRANCH  19  56
ATOM     56  O   UNL     1      13.680   5.023  22.092  0.00  0.00    -0.495 OA
ATOM     57  C   UNL     1      13.837   5.805  20.903  0.00  0.00    +0.277 C 
ENDBRANCH  19  56
TORSDOF 8
ENDMDL
MODEL 2
REMARK VINA RESULT:      -3.1      2.148      3.432
REMARK  Name = 
REMARK  12 active torsions:
REMARK  status: ('A' for Active; 'I' for Inactive)
REMARK    1  A    between atoms: C_1  and  C_2
REMARK    2  A    between atoms: C_2  and  C_3
REMARK    3  A    between atoms: C_2  and  C_4
REMARK    4  A    between atoms: C_2  and  C_5
REMARK    5  A    between atoms: C_12  and  C_13
REMARK    6  A    between atoms: N_15  and  C_16
REMARK    7  A    between atoms: C_16  and  C_21
REMARK    8  A    between atoms: C_18  and  C_19
REMARK    9  A    between atoms: N_23  and  S_24
REMARK   10  A    between atoms: S_24  and  C_27
REMARK   11  A    between atoms: C_37  and  O_39
REMARK   12  A    between atoms: O_39  and  C_40
REMARK                            x       y       z     vdW  Elec       q    Type
REMARK                         _______ _______ _______ _____ _____    ______ ____
ROOT
ATOM      1  C   UNL     1       2.971  -1.233  27.599  0.00  0.00    +0.168 C 
ATOM      2  N   UNL     1       2.314  -0.077  28.211  0.00  0.00    -0.269 N 
ATOM      3  H   UNL     1       1.968   0.680  27.627  0.00  0.00    +0.153 HD
ATOM      4  C   UNL     1       2.374   0.139  29.553  0.00  0.00    +0.401 C 
ATOM      5  O   UNL     1       2.843  -0.631  30.380  0.00  0.00    -0.226 OA
ATOM      6  O   UNL     1       2.035   1.423  29.842  0.00  0.00    -0.447 OA
ATOM      7  C   UNL     1       3.173   2.133  30.380  0.00  0.00    +0.182 C 
ATOM      8  C   UNL     1       3.493   3.489  29.843  0.00  0.00    +0.033 C 
ATOM      9  C   UNL     1       4.399   4.493  30.485  0.00  0.00    +0.007 C 
ATOM     10  C   UNL     1       5.207   5.174  29.367  0.00  0.00    +0.000 C 
ATOM     11  C   UNL     1       6.625   4.615  29.256  0.00  0.00    +0.000 C 
ATOM     12  C   UNL     1       7.283   4.972  27.925  0.00  0.00    +0.006 C 
ATOM     13  C   UNL     1       6.782   4.077  26.768  0.00  0.00    +0.061 C 
ATOM     14  C   UNL     1       7.871   3.807  25.770  0.00  0.00    +0.103 A 
ATOM     15  C   UNL     1       8.287   2.548  25.319  0.00  0.00    +0.238 A 
ATOM     16  N   UNL     1       9.387   2.430  24.518  0.00  0.00    -0.210 NA
ATOM     17  C   UNL     1      10.031   3.588  24.135  0.00  0.00    +0.096 A 
ATOM     18  C   UNL     1      11.199   3.630  23.344  0.00  0.00    +0.075 A 
ATOM     19  C   UNL     1      11.808   4.839  22.941  0.00  0.00    +0.122 A 
ATOM     20  C   UNL     1      11.226   6.043  23.308  0.00  0.00    +0.048 A 
ATOM     21  C   UNL     1      10.104   6.029  24.124  0.00  0.00    +0.033 A 
ATOM     22  C   UNL     1       9.522   4.843  24.534  0.00  0.00    +0.090 A 
ATOM     23  O   UNL     1       7.726   1.367  25.803  0.00  0.00    -0.470 OA
ATOM     24  C   UNL     1       6.759   0.754  24.908  0.00  0.00    +0.195 C 
ATOM     25  C   UNL     1       6.787  -0.796  24.931  0.00  0.00    +0.078 C 
ATOM     26  C   UNL     1       6.148  -1.113  26.289  0.00  0.00    +0.166 C 
ATOM     27  N   UNL     1       4.985  -0.192  26.351  0.00  0.00    -0.285 N 
ATOM     28  C   UNL     1       5.310   0.948  25.432  0.00  0.00    +0.153 C 
ATOM     29  N   UNL     1       8.459   4.949  25.326  0.00  0.00    -0.245 NA
ATOM     30  C   UNL     1       4.205   2.295  29.299  0.00  0.00    +0.052 C 
ATOM     31  C   UNL     1       3.662  -0.720  26.258  0.00  0.00    +0.237 C 
ATOM     32  O   UNL     1       2.993  -0.525  25.238  0.00  0.00    -0.274 OA
ENDROOT
BRANCH   1  34
ATOM     33  C   UNL     1       2.046  -3.160  26.152  0.00  0.00    +0.013 C 
ATOM     34  C   UNL     1       1.921  -2.407  27.485  0.00  0.00    -0.011 C 
ATOM     35  C   UNL     1       2.153  -3.471  28.593  0.00  0.00    +0.013 C 
ATOM     36  C   UNL     1       0.468  -1.912  27.631  0.00  0.00    +0.013 C 
ENDBRANCH   1  34
BRANCH  26  37
ATOM     37  C   UNL     1       6.024  -2.583  26.753  0.00  0.00    +0.234 C 
ATOM     38  N   UNL     1       6.107  -3.599  25.826  0.00  0.00    -0.299 N 
ATOM     39  H   UNL     1       6.016  -3.427  24.832  0.00  0.00    +0.150 HD
ATOM     40  O   UNL     1       6.011  -2.868  27.951  0.00  0.00    -0.274 OA
BRANCH  38  41
ATOM     41  C   UNL     1       6.266  -5.001  26.264  0.00  0.00    +0.119 C 
ATOM     42  C   UNL     1       6.774  -5.251  27.690  0.00  0.00    +0.046 C 
ATOM     43  C   UNL     1       7.687  -5.488  26.525  0.00  0.00    +0.046 C 
BRANCH  41  44
ATOM     44  C   UNL     1       5.310  -5.996  25.608  0.00  0.00    +0.256 C 
ATOM     45  N   UNL     1       4.012  -6.011  26.138  0.00  0.00    -0.188 N 
ATOM     46  H   UNL     1       3.780  -5.369  26.906  0.00  0.00    +0.176 HD
ATOM     47  O   UNL     1       5.693  -6.783  24.752  0.00  0.00    -0.272 OA
BRANCH  45  48
ATOM     48  S   UNL     1       2.781  -7.006  25.690  0.00  0.00    +0.048 S 
ATOM     49  O   UNL     1       1.824  -7.046  26.773  0.00  0.00    -0.155 OA
ATOM     50  O   UNL     1       3.409  -8.223  25.216  0.00  0.00    -0.155 OA
BRANCH  48  51
ATOM     51  C   UNL     1       1.905  -6.265  24.281  0.00  0.00    +0.151 C 
ATOM     52  C   UNL     1       1.589  -7.176  23.132  0.00  0.00    +0.030 C 
ATOM     53  C   UNL     1       2.719  -6.188  23.022  0.00  0.00    +0.030 C 
ENDBRANCH  48  51
ENDBRANCH  45  48
ENDBRANCH  41  44
BRANCH  42  54
ATOM     54  C   UNL     1       6.425  -6.423  28.503  0.00  0.00    -0.028 C 
ATOM     55  C   UNL     1       5.413  -6.476  29.380  0.00  0.00    +0.004 C 
ENDBRANCH  42  54
ENDBRANCH  38  41
ENDBRANCH  26  37
BRANCH  19  56
ATOM     56  O   UNL     1      12.939   4.746  22.171  0.00  0.00    -0.495 OA
ATOM     57  C   UNL     1      13.577   5.984  21.840  0.00  0.00    +0.277 C 
ENDBRANCH  19  56
TORSDOF 8
ENDMDL
MODEL 3
REMARK VINA RESULT:      -2.4      3.245      9.945
REMARK  Name = 
REMARK  12 active torsions:
REMARK  status: ('A' for Active; 'I' for Inactive)
REMARK    1  A    between atoms: C_1  and  C_2
REMARK    2  A    between atoms: C_2  and  C_3
REMARK    3  A    between atoms: C_2  and  C_4
REMARK    4  A    between atoms: C_2  and  C_5
REMARK    5  A    between atoms: C_12  and  C_13
REMARK    6  A    between atoms: N_15  and  C_16
REMARK    7  A    between atoms: C_16  and  C_21
REMARK    8  A    between atoms: C_18  and  C_19
REMARK    9  A    between atoms: N_23  and  S_24
REMARK   10  A    between atoms: S_24  and  C_27
REMARK   11  A    between atoms: C_37  and  O_39
REMARK   12  A    between atoms: O_39  and  C_40
REMARK                            x       y       z     vdW  Elec       q    Type
REMARK                         _______ _______ _______ _____ _____    ______ ____
ROOT
ATOM      1  C   UNL     1       6.570   0.037  27.566  0.00  0.00    +0.168 C 
ATOM      2  N   UNL     1       6.037  -0.328  28.880  0.00  0.00    -0.269 N 
ATOM      3  H   UNL     1       6.244  -1.240  29.277  0.00  0.00    +0.153 HD
ATOM      4  C   UNL     1       5.067   0.416  29.479  0.00  0.00    +0.401 C 
ATOM      5  O   UNL     1       4.641   1.490  29.076  0.00  0.00    -0.226 OA
ATOM      6  O   UNL     1       4.474  -0.292  30.476  0.00  0.00    -0.447 OA
ATOM      7  C   UNL     1       3.093  -0.560  30.147  0.00  0.00    +0.182 C 
ATOM      8  C   UNL     1       2.567  -1.946  30.332  0.00  0.00    +0.033 C 
ATOM      9  C   UNL     1       1.123  -2.336  30.368  0.00  0.00    +0.007 C 
ATOM     10  C   UNL     1       0.981  -3.670  29.616  0.00  0.00    +0.000 C 
ATOM     11  C   UNL     1       0.443  -3.479  28.197  0.00  0.00    +0.000 C 
ATOM     12  C   UNL     1       0.683  -4.705  27.319  0.00  0.00    +0.006 C 
ATOM     13  C   UNL     1       2.142  -4.784  26.813  0.00  0.00    +0.061 C 
ATOM     14  C   UNL     1       2.215  -5.371  25.433  0.00  0.00    +0.103 A 
ATOM     15  C   UNL     1       2.848  -4.799  24.323  0.00  0.00    +0.238 A 
ATOM     16  N   UNL     1       2.718  -5.364  23.086  0.00  0.00    -0.210 NA
ATOM     17  C   UNL     1       1.993  -6.534  22.987  0.00  0.00    +0.096 A 
ATOM     18  C   UNL     1       1.738  -7.216  21.778  0.00  0.00    +0.075 A 
ATOM     19  C   UNL     1       1.021  -8.432  21.722  0.00  0.00    +0.122 A 
ATOM     20  C   UNL     1       0.570  -9.004  22.902  0.00  0.00    +0.048 A 
ATOM     21  C   UNL     1       0.768  -8.330  24.098  0.00  0.00    +0.033 A 
ATOM     22  C   UNL     1       1.451  -7.128  24.147  0.00  0.00    +0.090 A 
ATOM     23  O   UNL     1       3.471  -3.553  24.387  0.00  0.00    -0.470 OA
ATOM     24  C   UNL     1       4.919  -3.614  24.486  0.00  0.00    +0.195 C 
ATOM     25  C   UNL     1       5.641  -2.469  23.728  0.00  0.00    +0.078 C 
ATOM     26  C   UNL     1       5.353  -1.256  24.621  0.00  0.00    +0.166 C 
ATOM     27  N   UNL     1       5.587  -1.769  25.995  0.00  0.00    -0.285 N 
ATOM     28  C   UNL     1       5.398  -3.255  25.918  0.00  0.00    +0.153 C 
ATOM     29  N   UNL     1       1.570  -6.564  25.345  0.00  0.00    -0.245 NA
ATOM     30  C   UNL     1       3.043  -1.513  28.985  0.00  0.00    +0.052 C 
ATOM     31  C   UNL     1       6.720  -1.314  26.733  0.00  0.00    +0.237 C 
ATOM     32  O   UNL     1       7.669  -2.078  26.938  0.00  0.00    -0.274 OA
ENDROOT
BRANCH   1  34
ATOM     33  C   UNL     1       8.268   1.003  29.253  0.00  0.00    +0.013 C 
ATOM     34  C   UNL     1       7.861   0.922  27.774  0.00  0.00    -0.011 C 
ATOM     35  C   UNL     1       9.081   0.309  27.034  0.00  0.00    +0.013 C 
ATOM     36  C   UNL     1       7.682   2.357  27.238  0.00  0.00    +0.013 C 
ENDBRANCH   1  34
BRANCH  26  37
ATOM     37  C   UNL     1       5.858   0.144  24.198  0.00  0.00    +0.234 C 
ATOM     38  N   UNL     1       4.972   1.197  24.140  0.00  0.00    -0.299 N 
ATOM     39  H   UNL     1       3.969   1.056  24.137  0.00  0.00    +0.150 HD
ATOM     40  O   UNL     1       7.062   0.369  24.066  0.00  0.00    -0.274 OA
BRANCH  38  41
ATOM     41  C   UNL     1       5.465   2.584  24.008  0.00  0.00    +0.119 C 
ATOM     42  C   UNL     1       5.097   3.581  25.115  0.00  0.00    +0.046 C 
ATOM     43  C   UNL     1       4.421   3.672  23.781  0.00  0.00    +0.046 C 
BRANCH  41  44
ATOM     44  C   UNL     1       6.786   2.733  23.254  0.00  0.00    +0.256 C 
ATOM     45  N   UNL     1       7.936   2.667  24.052  0.00  0.00    -0.188 N 
ATOM     46  H   UNL     1       7.833   2.520  25.063  0.00  0.00    +0.176 HD
ATOM     47  O   UNL     1       6.814   2.988  22.058  0.00  0.00    -0.272 OA
BRANCH  45  48
ATOM     48  S   UNL     1       9.491   2.851  23.547  0.00  0.00    +0.048 S 
ATOM     49  O   UNL     1       9.530   2.608  22.122  0.00  0.00    -0.155 OA
ATOM     50  O   UNL     1      10.297   2.057  24.453  0.00  0.00    -0.155 OA
BRANCH  48  51
ATOM     51  C   UNL     1       9.982   4.587  23.768  0.00  0.00    +0.151 C 
ATOM     52  C   UNL     1       9.287   5.349  24.857  0.00  0.00    +0.030 C 
ATOM     53  C   UNL     1       8.911   5.579  23.418  0.00  0.00    +0.030 C 
ENDBRANCH  48  51
ENDBRANCH  45  48
ENDBRANCH  41  44
BRANCH  42  54
ATOM     54  C   UNL     1       5.927   4.726  25.513  0.00  0.00    -0.028 C 
ATOM     55  C   UNL     1       5.564   5.669  26.392  0.00  0.00    +0.004 C 
ENDBRANCH  42  54
ENDBRANCH  38  41
ENDBRANCH  26  37
BRANCH  19  56
ATOM     56  O   UNL     1       0.842  -8.998  20.486  0.00  0.00    -0.495 OA
ATOM     57  C   UNL     1       1.945  -8.890  19.580  0.00  0.00    +0.277 C 
ENDBRANCH  19  56
TORSDOF 8
ENDMDL
MODEL 4
REMARK VINA RESULT:      -2.4      2.250      3.600
REMARK  Name = 
REMARK  12 active torsions:
REMARK  status: ('A' for Active; 'I' for Inactive)
REMARK    1  A    between atoms: C_1  and  C_2
REMARK    2  A    between atoms: C_2  and  C_3
REMARK    3  A    between atoms: C_2  and  C_4
REMARK    4  A    between atoms: C_2  and  C_5
REMARK    5  A    between atoms: C_12  and  C_13
REMARK    6  A    between atoms: N_15  and  C_16
REMARK    7  A    between atoms: C_16  and  C_21
REMARK    8  A    between atoms: C_18  and  C_19
REMARK    9  A    between atoms: N_23  and  S_24
REMARK   10  A    between atoms: S_24  and  C_27
REMARK   11  A    between atoms: C_37  and  O_39
REMARK   12  A    between atoms: O_39  and  C_40
REMARK                            x       y       z     vdW  Elec       q    Type
REMARK                         _______ _______ _______ _____ _____    ______ ____
ROOT
ATOM      1  C   UNL     1       2.469  -0.908  27.725  0.00  0.00    +0.168 C 
ATOM      2  N   UNL     1       1.837   0.285  28.291  0.00  0.00    -0.269 N 
ATOM      3  H   UNL     1       1.527   1.035  27.680  0.00  0.00    +0.153 HD
ATOM      4  C   UNL     1       1.876   0.536  29.629  0.00  0.00    +0.401 C 
ATOM      5  O   UNL     1       2.304  -0.226  30.485  0.00  0.00    -0.226 OA
ATOM      6  O   UNL     1       1.573   1.837  29.876  0.00  0.00    -0.447 OA
ATOM      7  C   UNL     1       2.722   2.525  30.418  0.00  0.00    +0.182 C 
ATOM      8  C   UNL     1       3.096   3.855  29.852  0.00  0.00    +0.033 C 
ATOM      9  C   UNL     1       4.020   4.848  30.485  0.00  0.00    +0.007 C 
ATOM     10  C   UNL     1       4.872   5.472  29.367  0.00  0.00    +0.000 C 
ATOM     11  C   UNL     1       6.273   4.866  29.301  0.00  0.00    +0.000 C 
ATOM     12  C   UNL     1       6.970   5.165  27.975  0.00  0.00    +0.006 C 
ATOM     13  C   UNL     1       6.464   4.255  26.831  0.00  0.00    +0.061 C 
ATOM     14  C   UNL     1       7.563   3.924  25.864  0.00  0.00    +0.103 A 
ATOM     15  C   UNL     1       7.947   2.641  25.456  0.00  0.00    +0.238 A 
ATOM     16  N   UNL     1       9.060   2.466  24.682  0.00  0.00    -0.210 NA
ATOM     17  C   UNL     1       9.747   3.593  24.281  0.00  0.00    +0.096 A 
ATOM     18  C   UNL     1      10.931   3.576  23.514  0.00  0.00    +0.075 A 
ATOM     19  C   UNL     1      11.587   4.754  23.092  0.00  0.00    +0.122 A 
ATOM     20  C   UNL     1      11.036   5.985  23.415  0.00  0.00    +0.048 A 
ATOM     21  C   UNL     1       9.899   6.029  24.207  0.00  0.00    +0.033 A 
ATOM     22  C   UNL     1       9.271   4.873  24.636  0.00  0.00    +0.090 A 
ATOM     23  O   UNL     1       7.340   1.491  25.960  0.00  0.00    -0.470 OA
ATOM     24  C   UNL     1       6.371   0.885  25.061  0.00  0.00    +0.195 C 
ATOM     25  C   UNL     1       6.350  -0.664  25.127  0.00  0.00    +0.078 C 
ATOM     26  C   UNL     1       5.674  -0.923  26.479  0.00  0.00    +0.166 C 
ATOM     27  N   UNL     1       4.539   0.035  26.492  0.00  0.00    -0.285 N 
ATOM     28  C   UNL     1       4.920   1.138  25.550  0.00  0.00    +0.153 C 
ATOM     29  N   UNL     1       8.196   5.034  25.402  0.00  0.00    -0.245 NA
ATOM     30  C   UNL     1       3.780   2.625  29.355  0.00  0.00    +0.052 C 
ATOM     31  C   UNL     1       3.203  -0.454  26.385  0.00  0.00    +0.237 C 
ATOM     32  O   UNL     1       2.561  -0.266  25.347  0.00  0.00    -0.274 OA
ENDROOT
BRANCH   1  34
ATOM     33  C   UNL     1       0.466  -1.860  26.404  0.00  0.00    +0.013 C 
ATOM     34  C   UNL     1       1.385  -2.051  27.620  0.00  0.00    -0.011 C 
ATOM     35  C   UNL     1       2.056  -3.439  27.427  0.00  0.00    +0.013 C 
ATOM     36  C   UNL     1       0.507  -2.146  28.884  0.00  0.00    +0.013 C 
ENDBRANCH   1  34
BRANCH  26  37
ATOM     37  C   UNL     1       5.494  -2.375  26.980  0.00  0.00    +0.234 C 
ATOM     38  N   UNL     1       5.719  -3.426  26.117  0.00  0.00    -0.299 N 
ATOM     39  H   UNL     1       5.773  -3.295  25.114  0.00  0.00    +0.150 HD
ATOM     40  O   UNL     1       5.308  -2.614  28.174  0.00  0.00    -0.274 OA
BRANCH  38  41
ATOM     41  C   UNL     1       5.823  -4.807  26.630  0.00  0.00    +0.119 C 
ATOM     42  C   UNL     1       6.091  -4.994  28.129  0.00  0.00    +0.046 C 
ATOM     43  C   UNL     1       7.187  -5.256  27.141  0.00  0.00    +0.046 C 
BRANCH  41  44
ATOM     44  C   UNL     1       5.001  -5.845  25.866  0.00  0.00    +0.256 C 
ATOM     45  N   UNL     1       3.643  -5.896  26.207  0.00  0.00    -0.188 N 
ATOM     46  H   UNL     1       3.284  -5.252  26.922  0.00  0.00    +0.176 HD
ATOM     47  O   UNL     1       5.526  -6.631  25.088  0.00  0.00    -0.272 OA
BRANCH  45  48
ATOM     48  S   UNL     1       2.520  -6.940  25.610  0.00  0.00    +0.048 S 
ATOM     49  O   UNL     1       3.221  -8.043  24.991  0.00  0.00    -0.155 OA
ATOM     50  O   UNL     1       1.597  -6.129  24.841  0.00  0.00    -0.155 OA
BRANCH  48  51
ATOM     51  C   UNL     1       1.586  -7.658  26.993  0.00  0.00    +0.151 C 
ATOM     52  C   UNL     1       0.618  -6.751  27.693  0.00  0.00    +0.030 C 
ATOM     53  C   UNL     1       1.936  -7.086  28.336  0.00  0.00    +0.030 C 
ENDBRANCH  48  51
ENDBRANCH  45  48
ENDBRANCH  41  44
BRANCH  42  54
ATOM     54  C   UNL     1       5.629  -6.143  28.920  0.00  0.00    -0.028 C 
ATOM     55  C   UNL     1       5.331  -6.106  30.226  0.00  0.00    +0.004 C 
ENDBRANCH  42  54
ENDBRANCH  38  41
ENDBRANCH  26  37
BRANCH  19  56
ATOM     56  O   UNL     1      12.729   4.604  22.349  0.00  0.00    -0.495 OA
ATOM     57  C   UNL     1      13.551   5.770  22.218  0.00  0.00    +0.277 C 
ENDBRANCH  19  56
TORSDOF 8
ENDMDL
MODEL 5
REMARK VINA RESULT:      -2.0      3.851     10.299
REMARK  Name = 
REMARK  12 active torsions:
REMARK  status: ('A' for Active; 'I' for Inactive)
REMARK    1  A    between atoms: C_1  and  C_2
REMARK    2  A    between atoms: C_2  and  C_3
REMARK    3  A    between atoms: C_2  and  C_4
REMARK    4  A    between atoms: C_2  and  C_5
REMARK    5  A    between atoms: C_12  and  C_13
REMARK    6  A    between atoms: N_15  and  C_16
REMARK    7  A    between atoms: C_16  and  C_21
REMARK    8  A    between atoms: C_18  and  C_19
REMARK    9  A    between atoms: N_23  and  S_24
REMARK   10  A    between atoms: S_24  and  C_27
REMARK   11  A    between atoms: C_37  and  O_39
REMARK   12  A    between atoms: O_39  and  C_40
REMARK                            x       y       z     vdW  Elec       q    Type
REMARK                         _______ _______ _______ _____ _____    ______ ____
ROOT
ATOM      1  C   UNL     1       6.449   0.371  27.595  0.00  0.00    +0.168 C 
ATOM      2  N   UNL     1       5.912   0.005  28.907  0.00  0.00    -0.269 N 
ATOM      3  H   UNL     1       6.145  -0.894  29.319  0.00  0.00    +0.153 HD
ATOM      4  C   UNL     1       4.907   0.722  29.482  0.00  0.00    +0.401 C 
ATOM      5  O   UNL     1       4.449   1.774  29.060  0.00  0.00    -0.226 OA
ATOM      6  O   UNL     1       4.327   0.006  30.481  0.00  0.00    -0.447 OA
ATOM      7  C   UNL     1       2.961  -0.316  30.137  0.00  0.00    +0.182 C 
ATOM      8  C   UNL     1       2.481  -1.717  30.335  0.00  0.00    +0.033 C 
ATOM      9  C   UNL     1       1.052  -2.158  30.357  0.00  0.00    +0.007 C 
ATOM     10  C   UNL     1       0.968  -3.506  29.621  0.00  0.00    +0.000 C 
ATOM     11  C   UNL     1       0.443  -3.353  28.193  0.00  0.00    +0.000 C 
ATOM     12  C   UNL     1       0.739  -4.582  27.336  0.00  0.00    +0.006 C 
ATOM     13  C   UNL     1       2.206  -4.615  26.850  0.00  0.00    +0.061 C 
ATOM     14  C   UNL     1       2.319  -5.216  25.479  0.00  0.00    +0.103 A 
ATOM     15  C   UNL     1       2.946  -4.637  24.369  0.00  0.00    +0.238 A 
ATOM     16  N   UNL     1       2.853  -5.222  23.139  0.00  0.00    -0.210 NA
ATOM     17  C   UNL     1       2.172  -6.419  23.046  0.00  0.00    +0.096 A 
ATOM     18  C   UNL     1       1.957  -7.125  21.844  0.00  0.00    +0.075 A 
ATOM     19  C   UNL     1       1.285  -8.367  21.794  0.00  0.00    +0.122 A 
ATOM     20  C   UNL     1       0.838  -8.939  22.976  0.00  0.00    +0.048 A 
ATOM     21  C   UNL     1       0.996  -8.243  24.165  0.00  0.00    +0.033 A 
ATOM     22  C   UNL     1       1.636  -7.017  24.207  0.00  0.00    +0.090 A 
ATOM     23  O   UNL     1       3.523  -3.368  24.425  0.00  0.00    -0.470 OA
ATOM     24  C   UNL     1       4.971  -3.376  24.543  0.00  0.00    +0.195 C 
ATOM     25  C   UNL     1       5.662  -2.216  23.779  0.00  0.00    +0.078 C 
ATOM     26  C   UNL     1       5.319  -1.003  24.652  0.00  0.00    +0.166 C 
ATOM     27  N   UNL     1       5.552  -1.489  26.036  0.00  0.00    -0.285 N 
ATOM     28  C   UNL     1       5.418  -2.982  25.977  0.00  0.00    +0.153 C 
ATOM     29  N   UNL     1       1.718  -6.433  25.398  0.00  0.00    -0.245 NA
ATOM     30  C   UNL     1       2.960  -1.286  28.988  0.00  0.00    +0.052 C 
ATOM     31  C   UNL     1       6.658  -0.984  26.783  0.00  0.00    +0.237 C 
ATOM     32  O   UNL     1       7.631  -1.711  27.010  0.00  0.00    -0.274 OA
ENDROOT
BRANCH   1  34
ATOM     33  C   UNL     1       8.398   1.035  29.151  0.00  0.00    +0.013 C 
ATOM     34  C   UNL     1       7.704   1.305  27.807  0.00  0.00    -0.011 C 
ATOM     35  C   UNL     1       8.781   1.046  26.718  0.00  0.00    +0.013 C 
ATOM     36  C   UNL     1       7.342   2.802  27.738  0.00  0.00    +0.013 C 
ENDBRANCH   1  34
BRANCH  26  37
ATOM     37  C   UNL     1       5.779   0.408  24.217  0.00  0.00    +0.234 C 
ATOM     38  N   UNL     1       4.949   1.488  24.424  0.00  0.00    -0.299 N 
ATOM     39  H   UNL     1       3.965   1.377  24.635  0.00  0.00    +0.150 HD
ATOM     40  O   UNL     1       6.933   0.607  23.835  0.00  0.00    -0.274 OA
BRANCH  38  41
ATOM     41  C   UNL     1       5.461   2.866  24.274  0.00  0.00    +0.119 C 
ATOM     42  C   UNL     1       5.817   3.346  22.860  0.00  0.00    +0.046 C 
ATOM     43  C   UNL     1       6.912   3.021  23.830  0.00  0.00    +0.046 C 
BRANCH  41  44
ATOM     44  C   UNL     1       4.951   3.864  25.314  0.00  0.00    +0.256 C 
ATOM     45  N   UNL     1       3.616   3.686  25.702  0.00  0.00    -0.188 N 
ATOM     46  H   UNL     1       3.074   2.918  25.287  0.00  0.00    +0.176 HD
ATOM     47  O   UNL     1       5.641   4.800  25.693  0.00  0.00    -0.272 OA
BRANCH  45  48
ATOM     48  S   UNL     1       2.766   4.628  26.749  0.00  0.00    +0.048 S 
ATOM     49  O   UNL     1       2.358   5.823  26.044  0.00  0.00    -0.155 OA
ATOM     50  O   UNL     1       3.579   4.720  27.946  0.00  0.00    -0.155 OA
BRANCH  48  51
ATOM     51  C   UNL     1       1.230   3.770  27.203  0.00  0.00    +0.151 C 
ATOM     52  C   UNL     1       1.162   3.203  28.589  0.00  0.00    +0.030 C 
ATOM     53  C   UNL     1       1.390   2.292  27.412  0.00  0.00    +0.030 C 
ENDBRANCH  48  51
ENDBRANCH  45  48
ENDBRANCH  41  44
BRANCH  42  54
ATOM     54  C   UNL     1       5.729   4.741  22.409  0.00  0.00    -0.028 C 
ATOM     55  C   UNL     1       6.726   5.634  22.472  0.00  0.00    +0.004 C 
ENDBRANCH  42  54
ENDBRANCH  38  41
ENDBRANCH  26  37
BRANCH  19  56
ATOM     56  O   UNL     1       1.143  -8.955  20.564  0.00  0.00    -0.495 OA
ATOM     57  C   UNL     1       0.759  -8.086  19.494  0.00  0.00    +0.277 C 
ENDBRANCH  19  56
TORSDOF 8
ENDMDL
MODEL 6
REMARK VINA RESULT:      -1.9      3.853     10.397
REMARK  Name = 
REMARK  12 active torsions:
REMARK  status: ('A' for Active; 'I' for Inactive)
REMARK    1  A    between atoms: C_1  and  C_2
REMARK    2  A    between atoms: C_2  and  C_3
REMARK    3  A    between atoms: C_2  and  C_4
REMARK    4  A    between atoms: C_2  and  C_5
REMARK    5  A    between atoms: C_12  and  C_13
REMARK    6  A    between atoms: N_15  and  C_16
REMARK    7  A    between atoms: C_16  and  C_21
REMARK    8  A    between atoms: C_18  and  C_19
REMARK    9  A    between atoms: N_23  and  S_24
REMARK   10  A    between atoms: S_24  and  C_27
REMARK   11  A    between atoms: C_37  and  O_39
REMARK   12  A    between atoms: O_39  and  C_40
REMARK                            x       y       z     vdW  Elec       q    Type
REMARK                         _______ _______ _______ _____ _____    ______ ____
ROOT
ATOM      1  C   UNL     1       6.378   0.418  27.575  0.00  0.00    +0.168 C 
ATOM      2  N   UNL     1       5.863   0.042  28.893  0.00  0.00    -0.269 N 
ATOM      3  H   UNL     1       6.116  -0.854  29.302  0.00  0.00    +0.153 HD
ATOM      4  C   UNL     1       4.853   0.741  29.480  0.00  0.00    +0.401 C 
ATOM      5  O   UNL     1       4.373   1.786  29.064  0.00  0.00    -0.226 OA
ATOM      6  O   UNL     1       4.296   0.015  30.485  0.00  0.00    -0.447 OA
ATOM      7  C   UNL     1       2.931  -0.329  30.157  0.00  0.00    +0.182 C 
ATOM      8  C   UNL     1       2.478  -1.738  30.359  0.00  0.00    +0.033 C 
ATOM      9  C   UNL     1       1.056  -2.203  30.397  0.00  0.00    +0.007 C 
ATOM     10  C   UNL     1       0.987  -3.552  29.661  0.00  0.00    +0.000 C 
ATOM     11  C   UNL     1       0.443  -3.406  28.239  0.00  0.00    +0.000 C 
ATOM     12  C   UNL     1       0.749  -4.629  27.377  0.00  0.00    +0.006 C 
ATOM     13  C   UNL     1       2.212  -4.638  26.874  0.00  0.00    +0.061 C 
ATOM     14  C   UNL     1       2.319  -5.237  25.502  0.00  0.00    +0.103 A 
ATOM     15  C   UNL     1       2.923  -4.646  24.386  0.00  0.00    +0.238 A 
ATOM     16  N   UNL     1       2.826  -5.232  23.156  0.00  0.00    -0.210 NA
ATOM     17  C   UNL     1       2.164  -6.439  23.070  0.00  0.00    +0.096 A 
ATOM     18  C   UNL     1       1.947  -7.149  21.869  0.00  0.00    +0.075 A 
ATOM     19  C   UNL     1       1.296  -8.402  21.827  0.00  0.00    +0.122 A 
ATOM     20  C   UNL     1       0.872  -8.982  23.013  0.00  0.00    +0.048 A 
ATOM     21  C   UNL     1       1.031  -8.284  24.201  0.00  0.00    +0.033 A 
ATOM     22  C   UNL     1       1.651  -7.047  24.236  0.00  0.00    +0.090 A 
ATOM     23  O   UNL     1       3.479  -3.368  24.435  0.00  0.00    -0.470 OA
ATOM     24  C   UNL     1       4.929  -3.352  24.537  0.00  0.00    +0.195 C 
ATOM     25  C   UNL     1       5.591  -2.180  23.767  0.00  0.00    +0.078 C 
ATOM     26  C   UNL     1       5.238  -0.973  24.645  0.00  0.00    +0.166 C 
ATOM     27  N   UNL     1       5.495  -1.456  26.025  0.00  0.00    -0.285 N 
ATOM     28  C   UNL     1       5.385  -2.951  25.966  0.00  0.00    +0.153 C 
ATOM     29  N   UNL     1       1.737  -6.463  25.427  0.00  0.00    -0.245 NA
ATOM     30  C   UNL     1       2.934  -1.298  29.007  0.00  0.00    +0.052 C 
ATOM     31  C   UNL     1       6.601  -0.933  26.760  0.00  0.00    +0.237 C 
ATOM     32  O   UNL     1       7.588  -1.644  26.975  0.00  0.00    -0.274 OA
ENDROOT
BRANCH   1  34
ATOM     33  C   UNL     1       7.204   2.849  27.846  0.00  0.00    +0.013 C 
ATOM     34  C   UNL     1       7.621   1.372  27.774  0.00  0.00    -0.011 C 
ATOM     35  C   UNL     1       8.342   1.072  29.117  0.00  0.00    +0.013 C 
ATOM     36  C   UNL     1       8.668   1.215  26.654  0.00  0.00    +0.013 C 
ENDBRANCH   1  34
BRANCH  26  37
ATOM     37  C   UNL     1       5.670   0.446  24.205  0.00  0.00    +0.234 C 
ATOM     38  N   UNL     1       4.825   1.513  24.425  0.00  0.00    -0.299 N 
ATOM     39  H   UNL     1       3.846   1.385  24.650  0.00  0.00    +0.150 HD
ATOM     40  O   UNL     1       6.815   0.664  23.807  0.00  0.00    -0.274 OA
BRANCH  38  41
ATOM     41  C   UNL     1       5.314   2.898  24.270  0.00  0.00    +0.119 C 
ATOM     42  C   UNL     1       6.771   3.189  24.651  0.00  0.00    +0.046 C 
ATOM     43  C   UNL     1       5.663   3.656  25.547  0.00  0.00    +0.046 C 
BRANCH  41  44
ATOM     44  C   UNL     1       4.640   3.702  23.158  0.00  0.00    +0.256 C 
ATOM     45  N   UNL     1       3.685   4.631  23.591  0.00  0.00    -0.188 N 
ATOM     46  H   UNL     1       3.501   4.724  24.598  0.00  0.00    +0.176 HD
ATOM     47  O   UNL     1       4.859   3.467  21.977  0.00  0.00    -0.272 OA
BRANCH  45  48
ATOM     48  S   UNL     1       2.752   5.595  22.639  0.00  0.00    +0.048 S 
ATOM     49  O   UNL     1       3.616   6.237  21.672  0.00  0.00    -0.155 OA
ATOM     50  O   UNL     1       1.947   6.387  23.547  0.00  0.00    -0.155 OA
BRANCH  48  51
ATOM     51  C   UNL     1       1.617   4.554  21.676  0.00  0.00    +0.151 C 
ATOM     52  C   UNL     1       1.976   4.318  20.239  0.00  0.00    +0.030 C 
ATOM     53  C   UNL     1       0.880   5.286  20.592  0.00  0.00    +0.030 C 
ENDBRANCH  48  51
ENDBRANCH  45  48
ENDBRANCH  41  44
BRANCH  42  54
ATOM     54  C   UNL     1       7.601   4.230  24.031  0.00  0.00    -0.028 C 
ATOM     55  C   UNL     1       8.449   5.031  24.691  0.00  0.00    +0.004 C 
ENDBRANCH  42  54
ENDBRANCH  38  41
ENDBRANCH  26  37
BRANCH  19  56
ATOM     56  O   UNL     1       1.149  -8.991  20.598  0.00  0.00    -0.495 OA
ATOM     57  C   UNL     1       0.899  -8.104  19.502  0.00  0.00    +0.277 C 
ENDBRANCH  19  56
TORSDOF 8
ENDMDL
MODEL 7
REMARK VINA RESULT:      -1.8      3.607     10.306
REMARK  Name = 
REMARK  12 active torsions:
REMARK  status: ('A' for Active; 'I' for Inactive)
REMARK    1  A    between atoms: C_1  and  C_2
REMARK    2  A    between atoms: C_2  and  C_3
REMARK    3  A    between atoms: C_2  and  C_4
REMARK    4  A    between atoms: C_2  and  C_5
REMARK    5  A    between atoms: C_12  and  C_13
REMARK    6  A    between atoms: N_15  and  C_16
REMARK    7  A    between atoms: C_16  and  C_21
REMARK    8  A    between atoms: C_18  and  C_19
REMARK    9  A    between atoms: N_23  and  S_24
REMARK   10  A    between atoms: S_24  and  C_27
REMARK   11  A    between atoms: C_37  and  O_39
REMARK   12  A    between atoms: O_39  and  C_40
REMARK                            x       y       z     vdW  Elec       q    Type
REMARK                         _______ _______ _______ _____ _____    ______ ____
ROOT
ATOM      1  C   UNL     1       6.493   0.217  27.566  0.00  0.00    +0.168 C 
ATOM      2  N   UNL     1       5.970  -0.135  28.888  0.00  0.00    -0.269 N 
ATOM      3  H   UNL     1       6.197  -1.035  29.301  0.00  0.00    +0.153 HD
ATOM      4  C   UNL     1       4.985   0.599  29.474  0.00  0.00    +0.401 C 
ATOM      5  O   UNL     1       4.536   1.656  29.052  0.00  0.00    -0.226 OA
ATOM      6  O   UNL     1       4.409  -0.102  30.485  0.00  0.00    -0.447 OA
ATOM      7  C   UNL     1       3.033  -0.406  30.164  0.00  0.00    +0.182 C 
ATOM      8  C   UNL     1       2.537  -1.799  30.376  0.00  0.00    +0.033 C 
ATOM      9  C   UNL     1       1.101  -2.219  30.422  0.00  0.00    +0.007 C 
ATOM     10  C   UNL     1       0.987  -3.570  29.694  0.00  0.00    +0.000 C 
ATOM     11  C   UNL     1       0.443  -3.416  28.274  0.00  0.00    +0.000 C 
ATOM     12  C   UNL     1       0.708  -4.654  27.418  0.00  0.00    +0.006 C 
ATOM     13  C   UNL     1       2.168  -4.711  26.911  0.00  0.00    +0.061 C 
ATOM     14  C   UNL     1       2.252  -5.321  25.542  0.00  0.00    +0.103 A 
ATOM     15  C   UNL     1       2.870  -4.757  24.420  0.00  0.00    +0.238 A 
ATOM     16  N   UNL     1       2.751  -5.347  23.194  0.00  0.00    -0.210 NA
ATOM     17  C   UNL     1       2.051  -6.534  23.118  0.00  0.00    +0.096 A 
ATOM     18  C   UNL     1       1.808  -7.244  21.923  0.00  0.00    +0.075 A 
ATOM     19  C   UNL     1       1.118  -8.476  21.891  0.00  0.00    +0.122 A 
ATOM     20  C   UNL     1       0.680  -9.036  23.082  0.00  0.00    +0.048 A 
ATOM     21  C   UNL     1       0.866  -8.336  24.265  0.00  0.00    +0.033 A 
ATOM     22  C   UNL     1       1.524  -7.118  24.290  0.00  0.00    +0.090 A 
ATOM     23  O   UNL     1       3.466  -3.497  24.460  0.00  0.00    -0.470 OA
ATOM     24  C   UNL     1       4.916  -3.525  24.557  0.00  0.00    +0.195 C 
ATOM     25  C   UNL     1       5.612  -2.379  23.777  0.00  0.00    +0.078 C 
ATOM     26  C   UNL     1       5.300  -1.156  24.648  0.00  0.00    +0.166 C 
ATOM     27  N   UNL     1       5.546  -1.639  26.031  0.00  0.00    -0.285 N 
ATOM     28  C   UNL     1       5.390  -3.130  25.982  0.00  0.00    +0.153 C 
ATOM     29  N   UNL     1       1.632  -6.530  25.477  0.00  0.00    -0.245 NA
ATOM     30  C   UNL     1       3.002  -1.382  29.020  0.00  0.00    +0.052 C 
ATOM     31  C   UNL     1       6.671  -1.146  26.758  0.00  0.00    +0.237 C 
ATOM     32  O   UNL     1       7.636  -1.886  26.975  0.00  0.00    -0.274 OA
ENDROOT
BRANCH   1  34
ATOM     33  C   UNL     1       7.405   2.626  27.728  0.00  0.00    +0.013 C 
ATOM     34  C   UNL     1       7.765   1.133  27.755  0.00  0.00    -0.011 C 
ATOM     35  C   UNL     1       8.429   0.884  29.137  0.00  0.00    +0.013 C 
ATOM     36  C   UNL     1       8.842   0.871  26.683  0.00  0.00    +0.013 C 
ENDBRANCH   1  34
BRANCH  26  37
ATOM     37  C   UNL     1       5.774   0.245  24.198  0.00  0.00    +0.234 C 
ATOM     38  N   UNL     1       4.961   1.338  24.408  0.00  0.00    -0.299 N 
ATOM     39  H   UNL     1       3.978   1.241  24.631  0.00  0.00    +0.150 HD
ATOM     40  O   UNL     1       6.926   0.426  23.801  0.00  0.00    -0.274 OA
BRANCH  38  41
ATOM     41  C   UNL     1       5.490   2.708  24.243  0.00  0.00    +0.119 C 
ATOM     42  C   UNL     1       6.200   3.045  22.925  0.00  0.00    +0.046 C 
ATOM     43  C   UNL     1       7.006   2.861  24.175  0.00  0.00    +0.046 C 
BRANCH  41  44
ATOM     44  C   UNL     1       4.723   3.794  24.997  0.00  0.00    +0.256 C 
ATOM     45  N   UNL     1       5.522   4.706  25.699  0.00  0.00    -0.188 N 
ATOM     46  H   UNL     1       6.543   4.605  25.664  0.00  0.00    +0.176 HD
ATOM     47  O   UNL     1       3.501   3.791  25.054  0.00  0.00    -0.272 OA
BRANCH  45  48
ATOM     48  S   UNL     1       4.995   5.942  26.649  0.00  0.00    +0.048 S 
ATOM     49  O   UNL     1       4.462   5.373  27.867  0.00  0.00    -0.155 OA
ATOM     50  O   UNL     1       4.164   6.769  25.797  0.00  0.00    -0.155 OA
BRANCH  48  51
ATOM     51  C   UNL     1       6.421   6.948  27.154  0.00  0.00    +0.151 C 
ATOM     52  C   UNL     1       7.686   6.762  26.370  0.00  0.00    +0.030 C 
ATOM     53  C   UNL     1       7.554   6.158  27.742  0.00  0.00    +0.030 C 
ENDBRANCH  48  51
ENDBRANCH  45  48
ENDBRANCH  41  44
BRANCH  42  54
ATOM     54  C   UNL     1       6.228   4.381  22.314  0.00  0.00    -0.028 C 
ATOM     55  C   UNL     1       7.182   5.300  22.518  0.00  0.00    +0.004 C 
ENDBRANCH  42  54
ENDBRANCH  38  41
ENDBRANCH  26  37
BRANCH  19  56
ATOM     56  O   UNL     1       0.949  -9.069  20.666  0.00  0.00    -0.495 OA
ATOM     57  C   UNL     1       1.985  -8.832  19.706  0.00  0.00    +0.277 C 
ENDBRANCH  19  56
TORSDOF 8
ENDMDL
MODEL 8
REMARK VINA RESULT:      -1.6      3.741      9.838
REMARK  Name = 
REMARK  12 active torsions:
REMARK  status: ('A' for Active; 'I' for Inactive)
REMARK    1  A    between atoms: C_1  and  C_2
REMARK    2  A    between atoms: C_2  and  C_3
REMARK    3  A    between atoms: C_2  and  C_4
REMARK    4  A    between atoms: C_2  and  C_5
REMARK    5  A    between atoms: C_12  and  C_13
REMARK    6  A    between atoms: N_15  and  C_16
REMARK    7  A    between atoms: C_16  and  C_21
REMARK    8  A    between atoms: C_18  and  C_19
REMARK    9  A    between atoms: N_23  and  S_24
REMARK   10  A    between atoms: S_24  and  C_27
REMARK   11  A    between atoms: C_37  and  O_39
REMARK   12  A    between atoms: O_39  and  C_40
REMARK                            x       y       z     vdW  Elec       q    Type
REMARK                         _______ _______ _______ _____ _____    ______ ____
ROOT
ATOM      1  C   UNL     1       5.784   3.860  27.461  0.00  0.00    +0.168 C 
ATOM      2  N   UNL     1       5.114   3.854  28.764  0.00  0.00    -0.269 N 
ATOM      3  H   UNL     1       5.423   3.215  29.491  0.00  0.00    +0.153 HD
ATOM      4  C   UNL     1       3.929   4.498  28.950  0.00  0.00    +0.401 C 
ATOM      5  O   UNL     1       3.379   5.228  28.138  0.00  0.00    -0.226 OA
ATOM      6  O   UNL     1       3.323   4.057  30.083  0.00  0.00    -0.447 OA
ATOM      7  C   UNL     1       2.098   3.362  29.758  0.00  0.00    +0.182 C 
ATOM      8  C   UNL     1       1.828   2.043  30.404  0.00  0.00    +0.033 C 
ATOM      9  C   UNL     1       0.503   1.349  30.455  0.00  0.00    +0.007 C 
ATOM     10  C   UNL     1       0.755  -0.154  30.250  0.00  0.00    +0.000 C 
ATOM     11  C   UNL     1       0.443  -0.603  28.822  0.00  0.00    +0.000 C 
ATOM     12  C   UNL     1       1.065  -1.959  28.495  0.00  0.00    +0.006 C 
ATOM     13  C   UNL     1       2.576  -1.849  28.187  0.00  0.00    +0.061 C 
ATOM     14  C   UNL     1       2.998  -2.840  27.141  0.00  0.00    +0.103 A 
ATOM     15  C   UNL     1       3.689  -2.551  25.958  0.00  0.00    +0.238 A 
ATOM     16  N   UNL     1       3.886  -3.522  25.017  0.00  0.00    -0.210 NA
ATOM     17  C   UNL     1       3.431  -4.793  25.302  0.00  0.00    +0.096 A 
ATOM     18  C   UNL     1       3.525  -5.891  24.420  0.00  0.00    +0.075 A 
ATOM     19  C   UNL     1       3.080  -7.188  24.762  0.00  0.00    +0.122 A 
ATOM     20  C   UNL     1       2.552  -7.408  26.026  0.00  0.00    +0.048 A 
ATOM     21  C   UNL     1       2.406  -6.336  26.893  0.00  0.00    +0.033 A 
ATOM     22  C   UNL     1       2.824  -5.063  26.547  0.00  0.00    +0.090 A 
ATOM     23  O   UNL     1       4.037  -1.248  25.604  0.00  0.00    -0.470 OA
ATOM     24  C   UNL     1       5.431  -0.915  25.846  0.00  0.00    +0.195 C 
ATOM     25  C   UNL     1       6.035   0.037  24.781  0.00  0.00    +0.078 C 
ATOM     26  C   UNL     1       5.367   1.374  25.123  0.00  0.00    +0.166 C 
ATOM     27  N   UNL     1       5.456   1.441  26.604  0.00  0.00    -0.285 N 
ATOM     28  C   UNL     1       5.577   0.023  27.075  0.00  0.00    +0.153 C 
ATOM     29  N   UNL     1       2.623  -4.109  27.450  0.00  0.00    -0.245 NA
ATOM     30  C   UNL     1       2.435   2.085  29.040  0.00  0.00    +0.052 C 
ATOM     31  C   UNL     1       6.335   2.386  27.214  0.00  0.00    +0.237 C 
ATOM     32  O   UNL     1       7.365   1.995  27.775  0.00  0.00    -0.274 OA
ENDROOT
BRANCH   1  34
ATOM     33  C   UNL     1       7.537   5.216  28.785  0.00  0.00    +0.013 C 
ATOM     34  C   UNL     1       6.822   5.050  27.435  0.00  0.00    -0.011 C 
ATOM     35  C   UNL     1       7.944   4.785  26.394  0.00  0.00    +0.013 C 
ATOM     36  C   UNL     1       6.167   6.394  27.061  0.00  0.00    +0.013 C 
ENDBRANCH   1  34
BRANCH  26  37
ATOM     37  C   UNL     1       5.655   2.619  24.252  0.00  0.00    +0.234 C 
ATOM     38  N   UNL     1       4.639   3.177  23.506  0.00  0.00    -0.299 N 
ATOM     39  H   UNL     1       3.776   2.682  23.320  0.00  0.00    +0.150 HD
ATOM     40  O   UNL     1       6.731   3.214  24.334  0.00  0.00    -0.274 OA
BRANCH  38  41
ATOM     41  C   UNL     1       4.809   4.508  22.887  0.00  0.00    +0.119 C 
ATOM     42  C   UNL     1       6.237   4.975  22.578  0.00  0.00    +0.046 C 
ATOM     43  C   UNL     1       5.491   5.581  23.728  0.00  0.00    +0.046 C 
BRANCH  41  44
ATOM     44  C   UNL     1       3.648   4.964  22.003  0.00  0.00    +0.256 C 
ATOM     45  N   UNL     1       2.826   3.934  21.524  0.00  0.00    -0.188 N 
ATOM     46  H   UNL     1       3.037   2.964  21.789  0.00  0.00    +0.176 HD
ATOM     47  O   UNL     1       3.519   6.134  21.670  0.00  0.00    -0.272 OA
BRANCH  45  48
ATOM     48  S   UNL     1       1.542   4.097  20.509  0.00  0.00    +0.048 S 
ATOM     49  O   UNL     1       0.637   5.066  21.086  0.00  0.00    -0.155 OA
ATOM     50  O   UNL     1       1.093   2.749  20.222  0.00  0.00    -0.155 OA
BRANCH  48  51
ATOM     51  C   UNL     1       2.114   4.822  18.944  0.00  0.00    +0.151 C 
ATOM     52  C   UNL     1       1.554   6.165  18.582  0.00  0.00    +0.030 C 
ATOM     53  C   UNL     1       1.050   4.927  17.890  0.00  0.00    +0.030 C 
ENDBRANCH  48  51
ENDBRANCH  45  48
ENDBRANCH  41  44
BRANCH  42  54
ATOM     54  C   UNL     1       6.597   5.879  21.477  0.00  0.00    -0.028 C 
ATOM     55  C   UNL     1       7.424   6.928  21.583  0.00  0.00    +0.004 C 
ENDBRANCH  42  54
ENDBRANCH  38  41
ENDBRANCH  26  37
BRANCH  19  56
ATOM     56  O   UNL     1       3.230  -8.171  23.819  0.00  0.00    -0.495 OA
ATOM     57  C   UNL     1       2.019  -8.729  23.296  0.00  0.00    +0.277 C 
ENDBRANCH  19  56
TORSDOF 8
ENDMDL
MODEL 9
REMARK VINA RESULT:      -0.7      3.545     10.158
REMARK  Name = 
REMARK  12 active torsions:
REMARK  status: ('A' for Active; 'I' for Inactive)
REMARK    1  A    between atoms: C_1  and  C_2
REMARK    2  A    between atoms: C_2  and  C_3
REMARK    3  A    between atoms: C_2  and  C_4
REMARK    4  A    between atoms: C_2  and  C_5
REMARK    5  A    between atoms: C_12  and  C_13
REMARK    6  A    between atoms: N_15  and  C_16
REMARK    7  A    between atoms: C_16  and  C_21
REMARK    8  A    between atoms: C_18  and  C_19
REMARK    9  A    between atoms: N_23  and  S_24
REMARK   10  A    between atoms: S_24  and  C_27
REMARK   11  A    between atoms: C_37  and  O_39
REMARK   12  A    between atoms: O_39  and  C_40
REMARK                            x       y       z     vdW  Elec       q    Type
REMARK                         _______ _______ _______ _____ _____    ______ ____
ROOT
ATOM      1  C   UNL     1       6.741  -0.162  27.694  0.00  0.00    +0.168 C 
ATOM      2  N   UNL     1       6.125  -0.525  28.973  0.00  0.00    -0.269 N 
ATOM      3  H   UNL     1       6.271  -1.451  29.363  0.00  0.00    +0.153 HD
ATOM      4  C   UNL     1       5.158   0.252  29.533  0.00  0.00    +0.401 C 
ATOM      5  O   UNL     1       4.801   1.350  29.129  0.00  0.00    -0.226 OA
ATOM      6  O   UNL     1       4.483  -0.445  30.485  0.00  0.00    -0.447 OA
ATOM      7  C   UNL     1       3.111  -0.647  30.080  0.00  0.00    +0.182 C 
ATOM      8  C   UNL     1       2.516  -2.010  30.213  0.00  0.00    +0.033 C 
ATOM      9  C   UNL     1       1.056  -2.337  30.166  0.00  0.00    +0.007 C 
ATOM     10  C   UNL     1       0.897  -3.650  29.383  0.00  0.00    +0.000 C 
ATOM     11  C   UNL     1       0.443  -3.412  27.942  0.00  0.00    +0.000 C 
ATOM     12  C   UNL     1       0.675  -4.634  27.056  0.00  0.00    +0.006 C 
ATOM     13  C   UNL     1       2.154  -4.769  26.624  0.00  0.00    +0.061 C 
ATOM     14  C   UNL     1       2.274  -5.336  25.240  0.00  0.00    +0.103 A 
ATOM     15  C   UNL     1       2.988  -4.775  24.174  0.00  0.00    +0.238 A 
ATOM     16  N   UNL     1       2.899  -5.314  22.922  0.00  0.00    -0.210 NA
ATOM     17  C   UNL     1       2.131  -6.448  22.764  0.00  0.00    +0.096 A 
ATOM     18  C   UNL     1       1.910  -7.099  21.531  0.00  0.00    +0.075 A 
ATOM     19  C   UNL     1       1.145  -8.281  21.415  0.00  0.00    +0.122 A 
ATOM     20  C   UNL     1       0.608  -8.852  22.560  0.00  0.00    +0.048 A 
ATOM     21  C   UNL     1       0.771  -8.207  23.776  0.00  0.00    +0.033 A 
ATOM     22  C   UNL     1       1.503  -7.037  23.883  0.00  0.00    +0.090 A 
ATOM     23  O   UNL     1       3.661  -3.559  24.293  0.00  0.00    -0.470 OA
ATOM     24  C   UNL     1       5.098  -3.686  24.466  0.00  0.00    +0.195 C 
ATOM     25  C   UNL     1       5.908  -2.562  23.768  0.00  0.00    +0.078 C 
ATOM     26  C   UNL     1       5.626  -1.352  24.667  0.00  0.00    +0.166 C 
ATOM     27  N   UNL     1       5.765  -1.897  26.042  0.00  0.00    -0.285 N 
ATOM     28  C   UNL     1       5.516  -3.372  25.928  0.00  0.00    +0.153 C 
ATOM     29  N   UNL     1       1.583  -6.498  25.095  0.00  0.00    -0.245 NA
ATOM     30  C   UNL     1       3.081  -1.578  28.900  0.00  0.00    +0.052 C 
ATOM     31  C   UNL     1       6.876  -1.505  26.846  0.00  0.00    +0.237 C 
ATOM     32  O   UNL     1       7.779  -2.314  27.085  0.00  0.00    -0.274 OA
ENDROOT
BRANCH   1  34
ATOM     33  C   UNL     1       8.367   0.734  29.488  0.00  0.00    +0.013 C 
ATOM     34  C   UNL     1       8.057   0.661  27.985  0.00  0.00    -0.011 C 
ATOM     35  C   UNL     1       9.293  -0.016  27.332  0.00  0.00    +0.013 C 
ATOM     36  C   UNL     1       7.985   2.098  27.432  0.00  0.00    +0.013 C 
ENDBRANCH   1  34
BRANCH  26  37
ATOM     37  C   UNL     1       6.213   0.030  24.297  0.00  0.00    +0.234 C 
ATOM     38  N   UNL     1       7.578   0.184  24.190  0.00  0.00    -0.299 N 
ATOM     39  H   UNL     1       8.226  -0.499  24.563  0.00  0.00    +0.150 HD
ATOM     40  O   UNL     1       5.479   0.954  23.943  0.00  0.00    -0.274 OA
BRANCH  38  41
ATOM     41  C   UNL     1       8.149   1.402  23.579  0.00  0.00    +0.119 C 
ATOM     42  C   UNL     1       9.606   1.347  23.104  0.00  0.00    +0.046 C 
ATOM     43  C   UNL     1       9.261   2.107  24.349  0.00  0.00    +0.046 C 
BRANCH  41  44
ATOM     44  C   UNL     1       7.142   2.296  22.855  0.00  0.00    +0.256 C 
ATOM     45  N   UNL     1       6.733   3.430  23.570  0.00  0.00    -0.188 N 
ATOM     46  H   UNL     1       7.124   3.598  24.505  0.00  0.00    +0.176 HD
ATOM     47  O   UNL     1       6.665   1.977  21.775  0.00  0.00    -0.272 OA
BRANCH  45  48
ATOM     48  S   UNL     1       5.622   4.545  23.089  0.00  0.00    +0.048 S 
ATOM     49  O   UNL     1       5.023   4.075  21.859  0.00  0.00    -0.155 OA
ATOM     50  O   UNL     1       6.300   5.824  23.137  0.00  0.00    -0.155 OA
BRANCH  48  51
ATOM     51  C   UNL     1       4.275   4.600  24.308  0.00  0.00    +0.151 C 
ATOM     52  C   UNL     1       4.485   5.484  25.501  0.00  0.00    +0.030 C 
ATOM     53  C   UNL     1       4.621   3.991  25.635  0.00  0.00    +0.030 C 
ENDBRANCH  48  51
ENDBRANCH  45  48
ENDBRANCH  41  44
BRANCH  42  54
ATOM     54  C   UNL     1      10.145   2.129  21.983  0.00  0.00    -0.028 C 
ATOM     55  C   UNL     1      10.700   3.344  22.090  0.00  0.00    +0.004 C 
ENDBRANCH  42  54
ENDBRANCH  38  41
ENDBRANCH  26  37
BRANCH  19  56
ATOM     56  O   UNL     1       1.006  -8.818  20.162  0.00  0.00    -0.495 OA
ATOM     57  C   UNL     1       2.216  -9.246  19.525  0.00  0.00    +0.277 C 
ENDBRANCH  19  56
TORSDOF 8
ENDMDL
