MODEL 1
REMARK VINA RESULT:      -6.3      0.000      0.000
REMARK  Name = 
REMARK  5 active torsions:
REMARK  status: ('A' for Active; 'I' for Inactive)
REMARK    1  A    between atoms: C_1  and  C_2
REMARK    2  A    between atoms: N_4  and  C_10
REMARK    3  A    between atoms: C_13  and  O_20
REMARK    4  A    between atoms: C_15  and  C_18
REMARK    5  A    between atoms: C_18  and  O_19
REMARK                            x       y       z     vdW  Elec       q    Type
REMARK                         _______ _______ _______ _____ _____    ______ ____
ROOT
ATOM      1  C   UNL     1       9.031  -2.565  24.152  0.00  0.00    +0.260 C 
ATOM      2  O   UNL     1       8.677  -1.186  24.385  0.00  0.00    -0.345 OA
ATOM      3  C   UNL     1       8.540  -0.556  23.085  0.00  0.00    +0.178 C 
ATOM      4  C   UNL     1       8.782  -1.622  22.010  0.00  0.00    +0.184 C 
ATOM      5  C   UNL     1       8.529  -2.911  22.752  0.00  0.00    +0.246 C 
ATOM      6  F   UNL     1       7.185  -3.140  22.762  0.00  0.00    -0.238 F 
ENDROOT
BRANCH   1  15
ATOM      7  C   UNL     1       5.538  -3.817  27.491  0.00  0.00    +0.051 C 
ATOM      8  C   UNL     1       6.834  -4.020  26.779  0.00  0.00    +0.030 A 
ATOM      9  C   UNL     1       7.626  -5.221  27.141  0.00  0.00    +0.257 A 
ATOM     10  O   UNL     1       7.243  -6.022  27.988  0.00  0.00    -0.267 OA
ATOM     11  N   UNL     1       8.798  -5.389  26.461  0.00  0.00    -0.275 N 
ATOM     12  H   UNL     1       9.332  -6.216  26.672  0.00  0.00    +0.173 HD
ATOM     13  C   UNL     1       9.269  -4.583  25.461  0.00  0.00    +0.331 A 
ATOM     14  O   UNL     1      10.283  -4.892  24.837  0.00  0.00    -0.246 OA
ATOM     15  N   UNL     1       8.530  -3.440  25.206  0.00  0.00    -0.271 N 
ATOM     16  C   UNL     1       7.329  -3.200  25.841  0.00  0.00    +0.102 A 
ENDBRANCH   1  15
BRANCH   4  17
ATOM     17  O   UNL     1      10.142  -1.562  21.565  0.00  0.00    -0.386 OA
ATOM     18  H   UNL     1      10.663  -1.101  22.249  0.00  0.00    +0.210 HD
ENDBRANCH   4  17
BRANCH   3  19
ATOM     19  C   UNL     1       7.136   0.048  23.021  0.00  0.00    +0.190 C 
BRANCH  19  20
ATOM     20  O   UNL     1       6.449  -0.198  24.248  0.00  0.00    -0.392 OA
ATOM     21  H   UNL     1       6.522   0.621  24.775  0.00  0.00    +0.210 HD
ENDBRANCH  19  20
ENDBRANCH   3  19
TORSDOF 4
ENDMDL
MODEL 2
REMARK VINA RESULT:      -5.9      2.681      3.479
REMARK  Name = 
REMARK  5 active torsions:
REMARK  status: ('A' for Active; 'I' for Inactive)
REMARK    1  A    between atoms: C_1  and  C_2
REMARK    2  A    between atoms: N_4  and  C_10
REMARK    3  A    between atoms: C_13  and  O_20
REMARK    4  A    between atoms: C_15  and  C_18
REMARK    5  A    between atoms: C_18  and  O_19
REMARK                            x       y       z     vdW  Elec       q    Type
REMARK                         _______ _______ _______ _____ _____    ______ ____
ROOT
ATOM      1  C   UNL     1       9.007  -1.465  23.911  0.00  0.00    +0.260 C 
ATOM      2  O   UNL     1       8.186  -0.302  23.676  0.00  0.00    -0.345 OA
ATOM      3  C   UNL     1       9.084   0.804  23.403  0.00  0.00    +0.178 C 
ATOM      4  C   UNL     1      10.522   0.272  23.433  0.00  0.00    +0.184 C 
ATOM      5  C   UNL     1      10.335  -1.209  23.205  0.00  0.00    +0.246 C 
ATOM      6  F   UNL     1      10.220  -1.421  21.862  0.00  0.00    -0.238 F 
ENDROOT
BRANCH   1  15
ATOM      7  C   UNL     1       5.681  -3.892  21.089  0.00  0.00    +0.051 C 
ATOM      8  C   UNL     1       6.749  -3.826  22.129  0.00  0.00    +0.030 A 
ATOM      9  C   UNL     1       7.180  -5.107  22.740  0.00  0.00    +0.257 A 
ATOM     10  O   UNL     1       6.688  -6.182  22.415  0.00  0.00    -0.267 OA
ATOM     11  N   UNL     1       8.171  -5.016  23.676  0.00  0.00    -0.275 N 
ATOM     12  H   UNL     1       8.498  -5.880  24.078  0.00  0.00    +0.173 HD
ATOM     13  C   UNL     1       8.818  -3.871  24.053  0.00  0.00    +0.331 A 
ATOM     14  O   UNL     1       9.776  -3.921  24.823  0.00  0.00    -0.246 OA
ATOM     15  N   UNL     1       8.335  -2.695  23.505  0.00  0.00    -0.271 N 
ATOM     16  C   UNL     1       7.343  -2.699  22.545  0.00  0.00    +0.102 A 
ENDBRANCH   1  15
BRANCH   4  17
ATOM     17  O   UNL     1      11.100   0.508  24.721  0.00  0.00    -0.386 OA
ATOM     18  H   UNL     1      11.802  -0.154  24.863  0.00  0.00    +0.210 HD
ENDBRANCH   4  17
BRANCH   3  19
ATOM     19  C   UNL     1       8.690   1.383  22.044  0.00  0.00    +0.190 C 
BRANCH  19  20
ATOM     20  O   UNL     1       9.807   2.058  21.465  0.00  0.00    -0.392 OA
ATOM     21  H   UNL     1       9.475   2.923  21.152  0.00  0.00    +0.210 HD
ENDBRANCH  19  20
ENDBRANCH   3  19
TORSDOF 4
ENDMDL
MODEL 3
REMARK VINA RESULT:      -5.9      2.490      3.152
REMARK  Name = 
REMARK  5 active torsions:
REMARK  status: ('A' for Active; 'I' for Inactive)
REMARK    1  A    between atoms: C_1  and  C_2
REMARK    2  A    between atoms: N_4  and  C_10
REMARK    3  A    between atoms: C_13  and  O_20
REMARK    4  A    between atoms: C_15  and  C_18
REMARK    5  A    between atoms: C_18  and  O_19
REMARK                            x       y       z     vdW  Elec       q    Type
REMARK                         _______ _______ _______ _____ _____    ______ ____
ROOT
ATOM      1  C   UNL     1       9.764   0.166  23.615  0.00  0.00    +0.260 C 
ATOM      2  O   UNL     1       9.915   1.198  24.612  0.00  0.00    -0.345 OA
ATOM      3  C   UNL     1       9.609   2.461  23.966  0.00  0.00    +0.178 C 
ATOM      4  C   UNL     1       9.212   2.172  22.514  0.00  0.00    +0.184 C 
ATOM      5  C   UNL     1       8.809   0.718  22.560  0.00  0.00    +0.246 C 
ATOM      6  F   UNL     1       7.517   0.648  22.991  0.00  0.00    -0.238 F 
ENDROOT
BRANCH   1  15
ATOM      7  C   UNL     1       6.893  -2.450  26.749  0.00  0.00    +0.051 C 
ATOM      8  C   UNL     1       7.947  -2.322  25.701  0.00  0.00    +0.030 A 
ATOM      9  C   UNL     1       8.560  -3.577  25.199  0.00  0.00    +0.257 A 
ATOM     10  O   UNL     1       8.224  -4.679  25.620  0.00  0.00    -0.267 OA
ATOM     11  N   UNL     1       9.508  -3.429  24.227  0.00  0.00    -0.275 N 
ATOM     12  H   UNL     1       9.912  -4.272  23.853  0.00  0.00    +0.173 HD
ATOM     13  C   UNL     1       9.897  -2.247  23.657  0.00  0.00    +0.331 A 
ATOM     14  O   UNL     1      10.679  -2.241  22.708  0.00  0.00    -0.246 OA
ATOM     15  N   UNL     1       9.346  -1.101  24.205  0.00  0.00    -0.271 N 
ATOM     16  C   UNL     1       8.373  -1.162  25.182  0.00  0.00    +0.102 A 
ENDBRANCH   1  15
BRANCH   4  17
ATOM     17  O   UNL     1      10.345   2.347  21.656  0.00  0.00    -0.386 OA
ATOM     18  H   UNL     1      11.127   1.985  22.113  0.00  0.00    +0.210 HD
ENDBRANCH   4  17
BRANCH   3  19
ATOM     19  C   UNL     1       8.489   3.122  24.770  0.00  0.00    +0.190 C 
BRANCH  19  20
ATOM     20  O   UNL     1       8.143   2.296  25.883  0.00  0.00    -0.392 OA
ATOM     21  H   UNL     1       7.659   2.867  26.511  0.00  0.00    +0.210 HD
ENDBRANCH  19  20
ENDBRANCH   3  19
TORSDOF 4
ENDMDL
MODEL 4
REMARK VINA RESULT:      -5.9      2.919      3.230
REMARK  Name = 
REMARK  5 active torsions:
REMARK  status: ('A' for Active; 'I' for Inactive)
REMARK    1  A    between atoms: C_1  and  C_2
REMARK    2  A    between atoms: N_4  and  C_10
REMARK    3  A    between atoms: C_13  and  O_20
REMARK    4  A    between atoms: C_15  and  C_18
REMARK    5  A    between atoms: C_18  and  O_19
REMARK                            x       y       z     vdW  Elec       q    Type
REMARK                         _______ _______ _______ _____ _____    ______ ____
ROOT
ATOM      1  C   UNL     1       7.962  -3.980  23.025  0.00  0.00    +0.260 C 
ATOM      2  O   UNL     1       8.865  -3.674  24.107  0.00  0.00    -0.345 OA
ATOM      3  C   UNL     1       9.329  -2.314  23.903  0.00  0.00    +0.178 C 
ATOM      4  C   UNL     1       8.635  -1.755  22.656  0.00  0.00    +0.184 C 
ATOM      5  C   UNL     1       7.424  -2.645  22.519  0.00  0.00    +0.246 C 
ATOM      6  F   UNL     1       6.451  -2.168  23.347  0.00  0.00    -0.238 F 
ENDROOT
BRANCH   1  15
ATOM      7  C   UNL     1       5.054  -6.036  26.522  0.00  0.00    +0.051 C 
ATOM      8  C   UNL     1       5.546  -5.880  25.122  0.00  0.00    +0.030 A 
ATOM      9  C   UNL     1       4.899  -6.715  24.079  0.00  0.00    +0.257 A 
ATOM     10  O   UNL     1       3.998  -7.503  24.343  0.00  0.00    -0.267 OA
ATOM     11  N   UNL     1       5.358  -6.537  22.806  0.00  0.00    -0.275 N 
ATOM     12  H   UNL     1       4.909  -7.072  22.081  0.00  0.00    +0.173 HD
ATOM     13  C   UNL     1       6.312  -5.638  22.413  0.00  0.00    +0.331 A 
ATOM     14  O   UNL     1       6.568  -5.481  21.221  0.00  0.00    -0.246 OA
ATOM     15  N   UNL     1       6.933  -4.931  23.430  0.00  0.00    -0.271 N 
ATOM     16  C   UNL     1       6.522  -5.044  24.743  0.00  0.00    +0.102 A 
ENDBRANCH   1  15
BRANCH   4  17
ATOM     17  O   UNL     1       9.492  -1.902  21.517  0.00  0.00    -0.386 OA
ATOM     18  H   UNL     1       9.853  -1.025  21.296  0.00  0.00    +0.210 HD
ENDBRANCH   4  17
BRANCH   3  19
ATOM     19  C   UNL     1       8.999  -1.528  25.172  0.00  0.00    +0.190 C 
BRANCH  19  20
ATOM     20  O   UNL     1       8.504  -2.417  26.175  0.00  0.00    -0.392 OA
ATOM     21  H   UNL     1       9.281  -2.714  26.688  0.00  0.00    +0.210 HD
ENDBRANCH  19  20
ENDBRANCH   3  19
TORSDOF 4
ENDMDL
MODEL 5
REMARK VINA RESULT:      -5.9      3.263      4.100
REMARK  Name = 
REMARK  5 active torsions:
REMARK  status: ('A' for Active; 'I' for Inactive)
REMARK    1  A    between atoms: C_1  and  C_2
REMARK    2  A    between atoms: N_4  and  C_10
REMARK    3  A    between atoms: C_13  and  O_20
REMARK    4  A    between atoms: C_15  and  C_18
REMARK    5  A    between atoms: C_18  and  O_19
REMARK                            x       y       z     vdW  Elec       q    Type
REMARK                         _______ _______ _______ _____ _____    ______ ____
ROOT
ATOM      1  C   UNL     1       8.006  -1.236  24.074  0.00  0.00    +0.260 C 
ATOM      2  O   UNL     1       7.961  -0.067  23.230  0.00  0.00    -0.345 OA
ATOM      3  C   UNL     1       9.271   0.554  23.296  0.00  0.00    +0.178 C 
ATOM      4  C   UNL     1      10.166  -0.309  24.192  0.00  0.00    +0.184 C 
ATOM      5  C   UNL     1       9.472  -1.649  24.167  0.00  0.00    +0.246 C 
ATOM      6  F   UNL     1       9.863  -2.309  23.039  0.00  0.00    -0.238 F 
ENDROOT
BRANCH   1  15
ATOM      7  C   UNL     1       7.230  -5.566  21.715  0.00  0.00    +0.051 C 
ATOM      8  C   UNL     1       6.779  -4.365  22.476  0.00  0.00    +0.030 A 
ATOM      9  C   UNL     1       5.335  -4.274  22.806  0.00  0.00    +0.257 A 
ATOM     10  O   UNL     1       4.535  -5.141  22.472  0.00  0.00    -0.267 OA
ATOM     11  N   UNL     1       4.955  -3.173  23.519  0.00  0.00    -0.275 N 
ATOM     12  H   UNL     1       3.984  -3.111  23.779  0.00  0.00    +0.173 HD
ATOM     13  C   UNL     1       5.786  -2.191  23.986  0.00  0.00    +0.331 A 
ATOM     14  O   UNL     1       5.353  -1.302  24.716  0.00  0.00    -0.246 OA
ATOM     15  N   UNL     1       7.112  -2.285  23.595  0.00  0.00    -0.271 N 
ATOM     16  C   UNL     1       7.581  -3.371  22.884  0.00  0.00    +0.102 A 
ENDBRANCH   1  15
BRANCH   4  17
ATOM     17  O   UNL     1      10.176   0.221  25.522  0.00  0.00    -0.386 OA
ATOM     18  H   UNL     1       9.347   0.715  25.656  0.00  0.00    +0.210 HD
ENDBRANCH   4  17
BRANCH   3  19
ATOM     19  C   UNL     1       9.792   0.664  21.862  0.00  0.00    +0.190 C 
BRANCH  19  20
ATOM     20  O   UNL     1       9.923   2.040  21.501  0.00  0.00    -0.392 OA
ATOM     21  H   UNL     1       9.076   2.469  21.735  0.00  0.00    +0.210 HD
ENDBRANCH  19  20
ENDBRANCH   3  19
TORSDOF 4
ENDMDL
MODEL 6
REMARK VINA RESULT:      -5.8      2.286      5.257
REMARK  Name = 
REMARK  5 active torsions:
REMARK  status: ('A' for Active; 'I' for Inactive)
REMARK    1  A    between atoms: C_1  and  C_2
REMARK    2  A    between atoms: N_4  and  C_10
REMARK    3  A    between atoms: C_13  and  O_20
REMARK    4  A    between atoms: C_15  and  C_18
REMARK    5  A    between atoms: C_18  and  O_19
REMARK                            x       y       z     vdW  Elec       q    Type
REMARK                         _______ _______ _______ _____ _____    ______ ____
ROOT
ATOM      1  C   UNL     1       8.983  -3.116  25.209  0.00  0.00    +0.260 C 
ATOM      2  O   UNL     1       9.192  -3.998  24.087  0.00  0.00    -0.345 OA
ATOM      3  C   UNL     1       8.332  -5.150  24.286  0.00  0.00    +0.178 C 
ATOM      4  C   UNL     1       7.530  -4.931  25.574  0.00  0.00    +0.184 C 
ATOM      5  C   UNL     1       7.595  -3.435  25.759  0.00  0.00    +0.246 C 
ATOM      6  F   UNL     1       6.625  -2.868  24.987  0.00  0.00    -0.238 F 
ENDROOT
BRANCH   1  15
ATOM      7  C   UNL     1       9.556   0.456  21.771  0.00  0.00    +0.051 C 
ATOM      8  C   UNL     1       9.435  -0.033  23.175  0.00  0.00    +0.030 A 
ATOM      9  C   UNL     1       9.465   0.986  24.254  0.00  0.00    +0.257 A 
ATOM     10  O   UNL     1       9.585   2.182  24.015  0.00  0.00    -0.267 OA
ATOM     11  N   UNL     1       9.334   0.509  25.527  0.00  0.00    -0.275 N 
ATOM     12  H   UNL     1       9.321   1.190  26.269  0.00  0.00    +0.173 HD
ATOM     13  C   UNL     1       9.134  -0.798  25.879  0.00  0.00    +0.331 A 
ATOM     14  O   UNL     1       8.914  -1.101  27.050  0.00  0.00    -0.246 OA
ATOM     15  N   UNL     1       9.180  -1.718  24.844  0.00  0.00    -0.271 N 
ATOM     16  C   UNL     1       9.299  -1.319  23.528  0.00  0.00    +0.102 A 
ENDBRANCH   1  15
BRANCH   4  17
ATOM     17  O   UNL     1       8.174  -5.597  26.666  0.00  0.00    -0.386 OA
ATOM     18  H   UNL     1       8.895  -6.144  26.302  0.00  0.00    +0.210 HD
ENDBRANCH   4  17
BRANCH   3  19
ATOM     19  C   UNL     1       7.447  -5.273  23.045  0.00  0.00    +0.190 C 
BRANCH  19  20
ATOM     20  O   UNL     1       7.567  -4.094  22.248  0.00  0.00    -0.392 OA
ATOM     21  H   UNL     1       8.141  -4.328  21.493  0.00  0.00    +0.210 HD
ENDBRANCH  19  20
ENDBRANCH   3  19
TORSDOF 4
ENDMDL
MODEL 7
REMARK VINA RESULT:      -5.7      2.211      5.312
REMARK  Name = 
REMARK  5 active torsions:
REMARK  status: ('A' for Active; 'I' for Inactive)
REMARK    1  A    between atoms: C_1  and  C_2
REMARK    2  A    between atoms: N_4  and  C_10
REMARK    3  A    between atoms: C_13  and  O_20
REMARK    4  A    between atoms: C_15  and  C_18
REMARK    5  A    between atoms: C_18  and  O_19
REMARK                            x       y       z     vdW  Elec       q    Type
REMARK                         _______ _______ _______ _____ _____    ______ ____
ROOT
ATOM      1  C   UNL     1       8.570  -3.018  23.489  0.00  0.00    +0.260 C 
ATOM      2  O   UNL     1       7.268  -3.543  23.820  0.00  0.00    -0.345 OA
ATOM      3  C   UNL     1       7.459  -4.516  24.880  0.00  0.00    +0.178 C 
ATOM      4  C   UNL     1       8.949  -4.548  25.236  0.00  0.00    +0.184 C 
ATOM      5  C   UNL     1       9.446  -3.219  24.722  0.00  0.00    +0.246 C 
ATOM      6  F   UNL     1       9.179  -2.272  25.667  0.00  0.00    -0.238 F 
ENDROOT
BRANCH   1  15
ATOM      7  C   UNL     1       6.312   1.432  23.362  0.00  0.00    +0.051 C 
ATOM      8  C   UNL     1       7.401   0.480  22.995  0.00  0.00    +0.030 A 
ATOM      9  C   UNL     1       8.497   1.001  22.142  0.00  0.00    +0.257 A 
ATOM     10  O   UNL     1       8.520   2.162  21.748  0.00  0.00    -0.267 OA
ATOM     11  N   UNL     1       9.488   0.112  21.837  0.00  0.00    -0.275 N 
ATOM     12  H   UNL     1      10.256   0.457  21.285  0.00  0.00    +0.173 HD
ATOM     13  C   UNL     1       9.575  -1.179  22.283  0.00  0.00    +0.331 A 
ATOM     14  O   UNL     1      10.571  -1.857  22.039  0.00  0.00    -0.246 OA
ATOM     15  N   UNL     1       8.496  -1.639  23.020  0.00  0.00    -0.271 N 
ATOM     16  C   UNL     1       7.459  -0.802  23.381  0.00  0.00    +0.102 A 
ENDBRANCH   1  15
BRANCH   4  17
ATOM     17  O   UNL     1       9.591  -5.622  24.539  0.00  0.00    -0.386 OA
ATOM     18  H   UNL     1      10.195  -5.235  23.878  0.00  0.00    +0.210 HD
ENDBRANCH   4  17
BRANCH   3  19
ATOM     19  C   UNL     1       6.574  -4.088  26.052  0.00  0.00    +0.190 C 
BRANCH  19  20
ATOM     20  O   UNL     1       7.251  -4.340  27.284  0.00  0.00    -0.392 OA
ATOM     21  H   UNL     1       7.913  -5.035  27.098  0.00  0.00    +0.210 HD
ENDBRANCH  19  20
ENDBRANCH   3  19
TORSDOF 4
ENDMDL
MODEL 8
REMARK VINA RESULT:      -5.6      2.313      3.113
REMARK  Name = 
REMARK  5 active torsions:
REMARK  status: ('A' for Active; 'I' for Inactive)
REMARK    1  A    between atoms: C_1  and  C_2
REMARK    2  A    between atoms: N_4  and  C_10
REMARK    3  A    between atoms: C_13  and  O_20
REMARK    4  A    between atoms: C_15  and  C_18
REMARK    5  A    between atoms: C_18  and  O_19
REMARK                            x       y       z     vdW  Elec       q    Type
REMARK                         _______ _______ _______ _____ _____    ______ ____
ROOT
ATOM      1  C   UNL     1       8.837  -1.257  22.679  0.00  0.00    +0.260 C 
ATOM      2  O   UNL     1      10.123  -0.818  23.163  0.00  0.00    -0.345 OA
ATOM      3  C   UNL     1      10.178   0.620  22.980  0.00  0.00    +0.178 C 
ATOM      4  C   UNL     1       8.838   1.079  22.394  0.00  0.00    +0.184 C 
ATOM      5  C   UNL     1       7.907  -0.050  22.762  0.00  0.00    +0.246 C 
ATOM      6  F   UNL     1       7.483   0.149  24.043  0.00  0.00    -0.238 F 
ENDROOT
BRANCH   1  15
ATOM      7  C   UNL     1       8.960  -4.310  26.626  0.00  0.00    +0.051 C 
ATOM      8  C   UNL     1       8.434  -3.865  25.302  0.00  0.00    +0.030 A 
ATOM      9  C   UNL     1       7.321  -4.652  24.715  0.00  0.00    +0.257 A 
ATOM     10  O   UNL     1       6.845  -5.629  25.283  0.00  0.00    -0.267 OA
ATOM     11  N   UNL     1       6.850  -4.210  23.512  0.00  0.00    -0.275 N 
ATOM     12  H   UNL     1       6.074  -4.714  23.115  0.00  0.00    +0.173 HD
ATOM     13  C   UNL     1       7.278  -3.098  22.840  0.00  0.00    +0.331 A 
ATOM     14  O   UNL     1       6.704  -2.728  21.818  0.00  0.00    -0.246 OA
ATOM     15  N   UNL     1       8.362  -2.436  23.394  0.00  0.00    -0.271 N 
ATOM     16  C   UNL     1       8.891  -2.811  24.612  0.00  0.00    +0.102 A 
ENDBRANCH   1  15
BRANCH   4  17
ATOM     17  O   UNL     1       8.944   1.192  20.970  0.00  0.00    -0.386 OA
ATOM     18  H   UNL     1       8.805   0.307  20.586  0.00  0.00    +0.210 HD
ENDBRANCH   4  17
BRANCH   3  19
ATOM     19  C   UNL     1      10.475   1.240  24.346  0.00  0.00    +0.190 C 
BRANCH  19  20
ATOM     20  O   UNL     1      10.410   0.232  25.356  0.00  0.00    -0.392 OA
ATOM     21  H   UNL     1      11.060   0.485  26.041  0.00  0.00    +0.210 HD
ENDBRANCH  19  20
ENDBRANCH   3  19
TORSDOF 4
ENDMDL
MODEL 9
REMARK VINA RESULT:      -5.5      2.490      3.556
REMARK  Name = 
REMARK  5 active torsions:
REMARK  status: ('A' for Active; 'I' for Inactive)
REMARK    1  A    between atoms: C_1  and  C_2
REMARK    2  A    between atoms: N_4  and  C_10
REMARK    3  A    between atoms: C_13  and  O_20
REMARK    4  A    between atoms: C_15  and  C_18
REMARK    5  A    between atoms: C_18  and  O_19
REMARK                            x       y       z     vdW  Elec       q    Type
REMARK                         _______ _______ _______ _____ _____    ______ ____
ROOT
ATOM      1  C   UNL     1       8.217   0.043  24.812  0.00  0.00    +0.260 C 
ATOM      2  O   UNL     1       7.597   0.449  23.574  0.00  0.00    -0.345 OA
ATOM      3  C   UNL     1       8.290   1.641  23.122  0.00  0.00    +0.178 C 
ATOM      4  C   UNL     1       9.416   1.946  24.117  0.00  0.00    +0.184 C 
ATOM      5  C   UNL     1       9.632   0.616  24.796  0.00  0.00    +0.246 C 
ATOM      6  F   UNL     1      10.451  -0.136  24.006  0.00  0.00    -0.238 F 
ENDROOT
BRANCH   1  15
ATOM      7  C   UNL     1       7.593  -4.571  23.014  0.00  0.00    +0.051 C 
ATOM      8  C   UNL     1       7.867  -3.594  24.108  0.00  0.00    +0.030 A 
ATOM      9  C   UNL     1       8.142  -4.146  25.457  0.00  0.00    +0.257 A 
ATOM     10  O   UNL     1       8.147  -5.352  25.679  0.00  0.00    -0.267 OA
ATOM     11  N   UNL     1       8.406  -3.228  26.433  0.00  0.00    -0.275 N 
ATOM     12  H   UNL     1       8.626  -3.587  27.348  0.00  0.00    +0.173 HD
ATOM     13  C   UNL     1       8.483  -1.873  26.262  0.00  0.00    +0.331 A 
ATOM     14  O   UNL     1       8.842  -1.147  27.188  0.00  0.00    -0.246 OA
ATOM     15  N   UNL     1       8.153  -1.402  25.002  0.00  0.00    -0.271 N 
ATOM     16  C   UNL     1       7.884  -2.262  23.957  0.00  0.00    +0.102 A 
ENDBRANCH   1  15
BRANCH   4  17
ATOM     17  O   UNL     1       8.973   2.923  25.066  0.00  0.00    -0.386 OA
ATOM     18  H   UNL     1       9.529   3.718  24.962  0.00  0.00    +0.210 HD
ENDBRANCH   4  17
BRANCH   3  19
ATOM     19  C   UNL     1       8.802   1.359  21.709  0.00  0.00    +0.190 C 
BRANCH  19  20
ATOM     20  O   UNL     1      10.013   2.080  21.482  0.00  0.00    -0.392 OA
ATOM     21  H   UNL     1      10.351   1.786  20.614  0.00  0.00    +0.210 HD
ENDBRANCH  19  20
ENDBRANCH   3  19
TORSDOF 4
ENDMDL
