MODEL 1
REMARK VINA RESULT:      -6.2      0.000      0.000
REMARK  Name = 
REMARK  18 active torsions:
REMARK  status: ('A' for Active; 'I' for Inactive)
REMARK    1  A    between atoms: C_1  and  C_2
REMARK    2  A    between atoms: C_2  and  C_41
REMARK    3  A    between atoms: C_7  and  C_27
REMARK    4  A    between atoms: C_11  and  C_13
REMARK    5  A    between atoms: C_13  and  C_15
REMARK    6  A    between atoms: C_13  and  N_19
REMARK    7  A    between atoms: C_15  and  C_16
REMARK    8  A    between atoms: C_15  and  C_17
REMARK    9  A    between atoms: C_15  and  C_18
REMARK   10  A    between atoms: N_22  and  C_23
REMARK   11  A    between atoms: C_23  and  C_24
REMARK   12  A    between atoms: C_23  and  C_25
REMARK   13  A    between atoms: C_23  and  C_26
REMARK   14  A    between atoms: N_29  and  C_30
REMARK   15  A    between atoms: C_30  and  C_31
REMARK   16  A    between atoms: C_30  and  C_36
REMARK   17  A    between atoms: C_31  and  C_32
REMARK   18  A    between atoms: C_36  and  C_38
REMARK                            x       y       z     vdW  Elec       q    Type
REMARK                         _______ _______ _______ _____ _____    ______ ____
ROOT
ATOM      1  C   UNL     1       6.865   2.363  28.933  0.00  0.00    +0.011 C 
ATOM      2  C   UNL     1       5.999   1.498  28.033  0.00  0.00    -0.025 C 
ATOM      3  C   UNL     1       4.532   1.734  28.232  0.00  0.00    +0.011 C 
ATOM      4  C   UNL     1       6.608   1.186  26.675  0.00  0.00    +0.030 C 
ATOM      5  C   UNL     1       6.015   0.585  25.395  0.00  0.00    +0.166 C 
ATOM      6  N   UNL     1       6.154  -0.853  25.704  0.00  0.00    -0.288 N 
ATOM      7  C   UNL     1       6.316  -1.828  24.738  0.00  0.00    +0.237 C 
ATOM      8  O   UNL     1       6.620  -1.510  23.580  0.00  0.00    -0.274 OA
ATOM      9  C   UNL     1       5.789  -1.035  27.099  0.00  0.00    +0.113 C 
ATOM     10  C   UNL     1       6.522   0.108  27.738  0.00  0.00    +0.018 C 
ENDROOT
BRANCH   5  11
ATOM     11  C   UNL     1       6.708   1.230  24.162  0.00  0.00    +0.234 C 
ATOM     12  N   UNL     1       8.087   1.248  24.203  0.00  0.00    -0.304 N 
ATOM     13  H   UNL     1       8.509   0.507  24.752  0.00  0.00    +0.149 HD
ATOM     14  O   UNL     1       6.068   1.849  23.309  0.00  0.00    -0.274 OA
BRANCH  12  15
ATOM     15  C   UNL     1       8.866   1.754  23.075  0.00  0.00    +0.149 C 
BRANCH  15  16
ATOM     16  C   UNL     1       9.470   0.569  22.332  0.00  0.00    +0.237 C 
ATOM     17  O   UNL     1       9.443   0.417  21.111  0.00  0.00    -0.285 OA
BRANCH  16  18
ATOM     18  C   UNL     1      10.121  -0.508  23.204  0.00  0.00    +0.279 C 
ATOM     19  N   UNL     1      10.182  -1.744  22.624  0.00  0.00    -0.323 N 
ATOM     20  H   UNL     1      10.637  -2.502  23.112  0.00  0.00    +0.145 HD
ATOM     21  H   UNL     1       9.837  -1.878  21.676  0.00  0.00    +0.145 HD
ATOM     22  O   UNL     1      10.544  -0.270  24.321  0.00  0.00    -0.267 OA
ENDBRANCH  16  18
ENDBRANCH  15  16
BRANCH  15  23
ATOM     23  C   UNL     1       9.943   2.773  23.491  0.00  0.00    +0.034 C 
BRANCH  23  24
ATOM     24  C   UNL     1       9.363   4.081  24.040  0.00  0.00    -0.009 C 
ATOM     25  C   UNL     1       8.261   4.745  23.184  0.00  0.00    +0.003 C 
ATOM     26  C   UNL     1       8.957   6.096  23.361  0.00  0.00    +0.001 C 
ATOM     27  C   UNL     1      10.225   5.348  23.799  0.00  0.00    +0.003 C 
ENDBRANCH  23  24
ENDBRANCH  15  23
ENDBRANCH  12  15
ENDBRANCH   5  11
BRANCH   7  28
ATOM     28  C   UNL     1       6.194  -3.349  25.110  0.00  0.00    +0.166 C 
BRANCH  28  29
ATOM     29  N   UNL     1       5.257  -3.925  24.133  0.00  0.00    -0.288 N 
ATOM     30  H   UNL     1       5.549  -4.130  23.188  0.00  0.00    +0.151 HD
ATOM     31  C   UNL     1       4.106  -4.494  24.584  0.00  0.00    +0.301 C 
ATOM     32  N   UNL     1       3.273  -4.923  23.589  0.00  0.00    -0.295 N 
ATOM     33  H   UNL     1       3.314  -4.357  22.752  0.00  0.00    +0.151 HD
ATOM     34  O   UNL     1       3.878  -4.597  25.791  0.00  0.00    -0.253 OA
BRANCH  32  35
ATOM     35  C   UNL     1       1.968  -5.533  23.913  0.00  0.00    +0.028 C 
ATOM     36  C   UNL     1       2.172  -6.765  24.815  0.00  0.00    +0.031 C 
ATOM     37  C   UNL     1       1.293  -6.017  22.613  0.00  0.00    +0.031 C 
ATOM     38  C   UNL     1       1.029  -4.518  24.580  0.00  0.00    +0.031 C 
ENDBRANCH  32  35
ENDBRANCH  28  29
BRANCH  28  39
ATOM     39  C   UNL     1       7.517  -4.184  25.194  0.00  0.00    -0.011 C 
ATOM     40  C   UNL     1       7.333  -5.285  26.274  0.00  0.00    +0.013 C 
ATOM     41  C   UNL     1       8.712  -3.310  25.615  0.00  0.00    +0.013 C 
ATOM     42  C   UNL     1       7.898  -4.870  23.870  0.00  0.00    +0.013 C 
ENDBRANCH  28  39
ENDBRANCH   7  28
TORSDOF 10
ENDMDL
MODEL 2
REMARK VINA RESULT:      -6.1      2.666      8.500
REMARK  Name = 
REMARK  18 active torsions:
REMARK  status: ('A' for Active; 'I' for Inactive)
REMARK    1  A    between atoms: C_1  and  C_2
REMARK    2  A    between atoms: C_2  and  C_41
REMARK    3  A    between atoms: C_7  and  C_27
REMARK    4  A    between atoms: C_11  and  C_13
REMARK    5  A    between atoms: C_13  and  C_15
REMARK    6  A    between atoms: C_13  and  N_19
REMARK    7  A    between atoms: C_15  and  C_16
REMARK    8  A    between atoms: C_15  and  C_17
REMARK    9  A    between atoms: C_15  and  C_18
REMARK   10  A    between atoms: N_22  and  C_23
REMARK   11  A    between atoms: C_23  and  C_24
REMARK   12  A    between atoms: C_23  and  C_25
REMARK   13  A    between atoms: C_23  and  C_26
REMARK   14  A    between atoms: N_29  and  C_30
REMARK   15  A    between atoms: C_30  and  C_31
REMARK   16  A    between atoms: C_30  and  C_36
REMARK   17  A    between atoms: C_31  and  C_32
REMARK   18  A    between atoms: C_36  and  C_38
REMARK                            x       y       z     vdW  Elec       q    Type
REMARK                         _______ _______ _______ _____ _____    ______ ____
ROOT
ATOM      1  C   UNL     1       7.191  -5.961  21.899  0.00  0.00    +0.011 C 
ATOM      2  C   UNL     1       6.751  -4.509  21.824  0.00  0.00    -0.025 C 
ATOM      3  C   UNL     1       5.887  -4.221  20.633  0.00  0.00    +0.011 C 
ATOM      4  C   UNL     1       6.547  -3.837  23.172  0.00  0.00    +0.030 C 
ATOM      5  C   UNL     1       5.890  -2.511  23.573  0.00  0.00    +0.166 C 
ATOM      6  N   UNL     1       7.030  -1.593  23.371  0.00  0.00    -0.288 N 
ATOM      7  C   UNL     1       7.202  -0.422  24.085  0.00  0.00    +0.237 C 
ATOM      8  O   UNL     1       6.544  -0.221  25.115  0.00  0.00    -0.274 OA
ATOM      9  C   UNL     1       7.697  -1.992  22.144  0.00  0.00    +0.113 C 
ATOM     10  C   UNL     1       7.748  -3.482  22.317  0.00  0.00    +0.018 C 
ENDROOT
BRANCH   5  11
ATOM     11  C   UNL     1       5.207  -2.680  24.959  0.00  0.00    +0.234 C 
ATOM     12  N   UNL     1       5.476  -3.867  25.608  0.00  0.00    -0.304 N 
ATOM     13  H   UNL     1       6.367  -4.292  25.372  0.00  0.00    +0.149 HD
ATOM     14  O   UNL     1       4.342  -1.896  25.355  0.00  0.00    -0.274 OA
BRANCH  12  15
ATOM     15  C   UNL     1       4.962  -4.123  26.952  0.00  0.00    +0.149 C 
BRANCH  15  16
ATOM     16  C   UNL     1       6.105  -4.640  27.818  0.00  0.00    +0.237 C 
ATOM     17  O   UNL     1       6.003  -4.947  29.005  0.00  0.00    -0.285 OA
BRANCH  16  18
ATOM     18  C   UNL     1       7.471  -4.742  27.135  0.00  0.00    +0.279 C 
ATOM     19  N   UNL     1       7.943  -6.017  27.001  0.00  0.00    -0.323 N 
ATOM     20  H   UNL     1       8.817  -6.178  26.521  0.00  0.00    +0.145 HD
ATOM     21  H   UNL     1       7.380  -6.803  27.318  0.00  0.00    +0.145 HD
ATOM     22  O   UNL     1       8.078  -3.758  26.749  0.00  0.00    -0.267 OA
ENDBRANCH  16  18
ENDBRANCH  15  16
BRANCH  15  23
ATOM     23  C   UNL     1       3.758  -5.082  26.968  0.00  0.00    +0.034 C 
BRANCH  23  24
ATOM     24  C   UNL     1       3.499  -5.757  25.616  0.00  0.00    -0.009 C 
ATOM     25  C   UNL     1       2.137  -6.471  25.466  0.00  0.00    +0.003 C 
ATOM     26  C   UNL     1       2.852  -7.675  24.850  0.00  0.00    +0.001 C 
ATOM     27  C   UNL     1       4.174  -7.139  25.419  0.00  0.00    +0.003 C 
ENDBRANCH  23  24
ENDBRANCH  15  23
ENDBRANCH  12  15
ENDBRANCH   5  11
BRANCH   7  28
ATOM     28  C   UNL     1       8.280   0.630  23.645  0.00  0.00    +0.166 C 
BRANCH  28  29
ATOM     29  N   UNL     1       7.846   1.912  24.221  0.00  0.00    -0.288 N 
ATOM     30  H   UNL     1       8.168   2.212  25.130  0.00  0.00    +0.151 HD
ATOM     31  C   UNL     1       7.288   2.845  23.402  0.00  0.00    +0.301 C 
ATOM     32  N   UNL     1       6.847   3.962  24.053  0.00  0.00    -0.295 N 
ATOM     33  H   UNL     1       6.507   3.781  24.988  0.00  0.00    +0.151 HD
ATOM     34  O   UNL     1       7.212   2.659  22.186  0.00  0.00    -0.253 OA
BRANCH  32  35
ATOM     35  C   UNL     1       6.186   5.054  23.310  0.00  0.00    +0.028 C 
ATOM     36  C   UNL     1       5.737   6.159  24.285  0.00  0.00    +0.031 C 
ATOM     37  C   UNL     1       4.923   4.509  22.613  0.00  0.00    +0.031 C 
ATOM     38  C   UNL     1       7.110   5.627  22.225  0.00  0.00    +0.031 C 
ENDBRANCH  32  35
ENDBRANCH  28  29
BRANCH  28  39
ATOM     39  C   UNL     1       9.777   0.325  23.995  0.00  0.00    -0.011 C 
ATOM     40  C   UNL     1       9.821  -0.393  25.371  0.00  0.00    +0.013 C 
ATOM     41  C   UNL     1      10.605   1.617  24.112  0.00  0.00    +0.013 C 
ATOM     42  C   UNL     1      10.480  -0.574  22.962  0.00  0.00    +0.013 C 
ENDBRANCH  28  39
ENDBRANCH   7  28
TORSDOF 10
ENDMDL
MODEL 3
REMARK VINA RESULT:      -6.0      2.546      4.070
REMARK  Name = 
REMARK  18 active torsions:
REMARK  status: ('A' for Active; 'I' for Inactive)
REMARK    1  A    between atoms: C_1  and  C_2
REMARK    2  A    between atoms: C_2  and  C_41
REMARK    3  A    between atoms: C_7  and  C_27
REMARK    4  A    between atoms: C_11  and  C_13
REMARK    5  A    between atoms: C_13  and  C_15
REMARK    6  A    between atoms: C_13  and  N_19
REMARK    7  A    between atoms: C_15  and  C_16
REMARK    8  A    between atoms: C_15  and  C_17
REMARK    9  A    between atoms: C_15  and  C_18
REMARK   10  A    between atoms: N_22  and  C_23
REMARK   11  A    between atoms: C_23  and  C_24
REMARK   12  A    between atoms: C_23  and  C_25
REMARK   13  A    between atoms: C_23  and  C_26
REMARK   14  A    between atoms: N_29  and  C_30
REMARK   15  A    between atoms: C_30  and  C_31
REMARK   16  A    between atoms: C_30  and  C_36
REMARK   17  A    between atoms: C_31  and  C_32
REMARK   18  A    between atoms: C_36  and  C_38
REMARK                            x       y       z     vdW  Elec       q    Type
REMARK                         _______ _______ _______ _____ _____    ______ ____
ROOT
ATOM      1  C   UNL     1       6.279   1.788  29.380  0.00  0.00    +0.011 C 
ATOM      2  C   UNL     1       5.952   0.873  28.212  0.00  0.00    -0.025 C 
ATOM      3  C   UNL     1       4.898  -0.141  28.541  0.00  0.00    +0.011 C 
ATOM      4  C   UNL     1       6.072   1.522  26.842  0.00  0.00    +0.030 C 
ATOM      5  C   UNL     1       5.616   1.077  25.448  0.00  0.00    +0.166 C 
ATOM      6  N   UNL     1       6.764   0.231  25.065  0.00  0.00    -0.288 N 
ATOM      7  C   UNL     1       7.166   0.038  23.757  0.00  0.00    +0.237 C 
ATOM      8  O   UNL     1       6.742   0.781  22.861  0.00  0.00    -0.274 OA
ATOM      9  C   UNL     1       7.143  -0.543  26.235  0.00  0.00    +0.113 C 
ATOM     10  C   UNL     1       7.106   0.513  27.301  0.00  0.00    +0.018 C 
ENDROOT
BRANCH   5  11
ATOM     11  C   UNL     1       5.206   2.329  24.623  0.00  0.00    +0.234 C 
ATOM     12  N   UNL     1       6.094   3.384  24.673  0.00  0.00    -0.304 N 
ATOM     13  H   UNL     1       7.059   3.124  24.846  0.00  0.00    +0.149 HD
ATOM     14  O   UNL     1       4.084   2.437  24.122  0.00  0.00    -0.274 OA
BRANCH  12  15
ATOM     15  C   UNL     1       5.871   4.592  23.882  0.00  0.00    +0.149 C 
BRANCH  15  16
ATOM     16  C   UNL     1       7.052   4.778  22.937  0.00  0.00    +0.237 C 
ATOM     17  O   UNL     1       7.063   5.534  21.966  0.00  0.00    -0.285 OA
BRANCH  16  18
ATOM     18  C   UNL     1       8.287   3.921  23.230  0.00  0.00    +0.279 C 
ATOM     19  N   UNL     1       8.707   3.158  22.178  0.00  0.00    -0.323 N 
ATOM     20  H   UNL     1       9.541   2.596  22.271  0.00  0.00    +0.145 HD
ATOM     21  H   UNL     1       8.223   3.213  21.284  0.00  0.00    +0.145 HD
ATOM     22  O   UNL     1       8.838   3.928  24.316  0.00  0.00    -0.267 OA
ENDBRANCH  16  18
ENDBRANCH  15  16
BRANCH  15  23
ATOM     23  C   UNL     1       5.629   5.845  24.743  0.00  0.00    +0.034 C 
BRANCH  23  24
ATOM     24  C   UNL     1       6.175   5.717  26.170  0.00  0.00    -0.009 C 
ATOM     25  C   UNL     1       5.124   5.752  27.302  0.00  0.00    +0.003 C 
ATOM     26  C   UNL     1       6.010   6.731  28.075  0.00  0.00    +0.001 C 
ATOM     27  C   UNL     1       6.777   7.011  26.774  0.00  0.00    +0.003 C 
ENDBRANCH  23  24
ENDBRANCH  15  23
ENDBRANCH  12  15
ENDBRANCH   5  11
BRANCH   7  28
ATOM     28  C   UNL     1       8.220  -1.070  23.400  0.00  0.00    +0.166 C 
BRANCH  28  29
ATOM     29  N   UNL     1       7.572  -1.928  22.396  0.00  0.00    -0.288 N 
ATOM     30  H   UNL     1       7.507  -1.642  21.429  0.00  0.00    +0.151 HD
ATOM     31  C   UNL     1       7.365  -3.241  22.689  0.00  0.00    +0.301 C 
ATOM     32  N   UNL     1       6.685  -3.924  21.722  0.00  0.00    -0.295 N 
ATOM     33  H   UNL     1       6.009  -3.361  21.224  0.00  0.00    +0.151 HD
ATOM     34  O   UNL     1       7.776  -3.729  23.744  0.00  0.00    -0.253 OA
BRANCH  32  35
ATOM     35  C   UNL     1       6.351  -5.352  21.903  0.00  0.00    +0.028 C 
ATOM     36  C   UNL     1       7.563  -6.106  22.482  0.00  0.00    +0.031 C 
ATOM     37  C   UNL     1       6.025  -5.980  20.533  0.00  0.00    +0.031 C 
ATOM     38  C   UNL     1       5.120  -5.525  22.804  0.00  0.00    +0.031 C 
ENDBRANCH  32  35
ENDBRANCH  28  29
BRANCH  28  39
ATOM     39  C   UNL     1       9.635  -0.599  22.922  0.00  0.00    -0.011 C 
ATOM     40  C   UNL     1      10.131   0.515  23.884  0.00  0.00    +0.013 C 
ATOM     41  C   UNL     1       9.584  -0.004  21.503  0.00  0.00    +0.013 C 
ATOM     42  C   UNL     1      10.687  -1.723  22.907  0.00  0.00    +0.013 C 
ENDBRANCH  28  39
ENDBRANCH   7  28
TORSDOF 10
ENDMDL
MODEL 4
REMARK VINA RESULT:      -6.0      2.365      7.571
REMARK  Name = 
REMARK  18 active torsions:
REMARK  status: ('A' for Active; 'I' for Inactive)
REMARK    1  A    between atoms: C_1  and  C_2
REMARK    2  A    between atoms: C_2  and  C_41
REMARK    3  A    between atoms: C_7  and  C_27
REMARK    4  A    between atoms: C_11  and  C_13
REMARK    5  A    between atoms: C_13  and  C_15
REMARK    6  A    between atoms: C_13  and  N_19
REMARK    7  A    between atoms: C_15  and  C_16
REMARK    8  A    between atoms: C_15  and  C_17
REMARK    9  A    between atoms: C_15  and  C_18
REMARK   10  A    between atoms: N_22  and  C_23
REMARK   11  A    between atoms: C_23  and  C_24
REMARK   12  A    between atoms: C_23  and  C_25
REMARK   13  A    between atoms: C_23  and  C_26
REMARK   14  A    between atoms: N_29  and  C_30
REMARK   15  A    between atoms: C_30  and  C_31
REMARK   16  A    between atoms: C_30  and  C_36
REMARK   17  A    between atoms: C_31  and  C_32
REMARK   18  A    between atoms: C_36  and  C_38
REMARK                            x       y       z     vdW  Elec       q    Type
REMARK                         _______ _______ _______ _____ _____    ______ ____
ROOT
ATOM      1  C   UNL     1       5.276   1.754  29.298  0.00  0.00    +0.011 C 
ATOM      2  C   UNL     1       6.325   1.104  28.411  0.00  0.00    -0.025 C 
ATOM      3  C   UNL     1       7.560   0.706  29.161  0.00  0.00    +0.011 C 
ATOM      4  C   UNL     1       5.765   0.291  27.255  0.00  0.00    +0.030 C 
ATOM      5  C   UNL     1       6.413  -0.708  26.289  0.00  0.00    +0.166 C 
ATOM      6  N   UNL     1       6.942   0.227  25.276  0.00  0.00    -0.288 N 
ATOM      7  C   UNL     1       7.109  -0.105  23.945  0.00  0.00    +0.237 C 
ATOM      8  O   UNL     1       6.573  -1.123  23.488  0.00  0.00    -0.274 OA
ATOM      9  C   UNL     1       7.501   1.366  25.986  0.00  0.00    +0.113 C 
ATOM     10  C   UNL     1       6.423   1.632  26.995  0.00  0.00    +0.018 C 
ENDROOT
BRANCH   5  11
ATOM     11  C   UNL     1       5.378  -1.811  25.928  0.00  0.00    +0.234 C 
ATOM     12  N   UNL     1       5.909  -3.061  25.685  0.00  0.00    -0.304 N 
ATOM     13  H   UNL     1       6.784  -3.255  26.161  0.00  0.00    +0.149 HD
ATOM     14  O   UNL     1       4.199  -1.540  25.689  0.00  0.00    -0.274 OA
BRANCH  12  15
ATOM     15  C   UNL     1       5.043  -4.205  25.412  0.00  0.00    +0.149 C 
BRANCH  15  16
ATOM     16  C   UNL     1       5.651  -5.441  26.065  0.00  0.00    +0.237 C 
ATOM     17  O   UNL     1       5.270  -6.596  25.875  0.00  0.00    -0.285 OA
BRANCH  16  18
ATOM     18  C   UNL     1       6.796  -5.185  27.049  0.00  0.00    +0.279 C 
ATOM     19  N   UNL     1       7.994  -5.722  26.674  0.00  0.00    -0.323 N 
ATOM     20  H   UNL     1       8.813  -5.563  27.244  0.00  0.00    +0.145 HD
ATOM     21  H   UNL     1       8.074  -6.218  25.789  0.00  0.00    +0.145 HD
ATOM     22  O   UNL     1       6.637  -4.553  28.079  0.00  0.00    -0.267 OA
ENDBRANCH  16  18
ENDBRANCH  15  16
BRANCH  15  23
ATOM     23  C   UNL     1       4.785  -4.425  23.910  0.00  0.00    +0.034 C 
BRANCH  23  24
ATOM     24  C   UNL     1       6.054  -4.754  23.116  0.00  0.00    -0.009 C 
ATOM     25  C   UNL     1       6.142  -4.147  21.698  0.00  0.00    +0.003 C 
ATOM     26  C   UNL     1       6.606  -5.502  21.161  0.00  0.00    +0.001 C 
ATOM     27  C   UNL     1       6.082  -6.154  22.450  0.00  0.00    +0.003 C 
ENDBRANCH  23  24
ENDBRANCH  15  23
ENDBRANCH  12  15
ENDBRANCH   5  11
BRANCH   7  28
ATOM     28  C   UNL     1       7.914   0.838  22.981  0.00  0.00    +0.166 C 
BRANCH  28  29
ATOM     29  N   UNL     1       7.892   2.166  23.612  0.00  0.00    -0.288 N 
ATOM     30  H   UNL     1       8.535   2.401  24.356  0.00  0.00    +0.151 HD
ATOM     31  C   UNL     1       7.249   3.185  22.978  0.00  0.00    +0.301 C 
ATOM     32  N   UNL     1       7.221   4.350  23.690  0.00  0.00    -0.295 N 
ATOM     33  H   UNL     1       7.181   4.216  24.691  0.00  0.00    +0.151 HD
ATOM     34  O   UNL     1       6.755   3.025  21.860  0.00  0.00    -0.253 OA
BRANCH  32  35
ATOM     35  C   UNL     1       6.532   5.541  23.154  0.00  0.00    +0.028 C 
ATOM     36  C   UNL     1       7.295   6.087  21.932  0.00  0.00    +0.031 C 
ATOM     37  C   UNL     1       6.518   6.650  24.225  0.00  0.00    +0.031 C 
ATOM     38  C   UNL     1       5.074   5.223  22.787  0.00  0.00    +0.031 C 
ENDBRANCH  32  35
ENDBRANCH  28  29
BRANCH  28  39
ATOM     39  C   UNL     1       9.371   0.410  22.597  0.00  0.00    -0.011 C 
ATOM     40  C   UNL     1      10.110   1.651  22.025  0.00  0.00    +0.013 C 
ATOM     41  C   UNL     1       9.374  -0.680  21.511  0.00  0.00    +0.013 C 
ATOM     42  C   UNL     1      10.189  -0.128  23.785  0.00  0.00    +0.013 C 
ENDBRANCH  28  39
ENDBRANCH   7  28
TORSDOF 10
ENDMDL
MODEL 5
REMARK VINA RESULT:      -5.9      2.797      4.449
REMARK  Name = 
REMARK  18 active torsions:
REMARK  status: ('A' for Active; 'I' for Inactive)
REMARK    1  A    between atoms: C_1  and  C_2
REMARK    2  A    between atoms: C_2  and  C_41
REMARK    3  A    between atoms: C_7  and  C_27
REMARK    4  A    between atoms: C_11  and  C_13
REMARK    5  A    between atoms: C_13  and  C_15
REMARK    6  A    between atoms: C_13  and  N_19
REMARK    7  A    between atoms: C_15  and  C_16
REMARK    8  A    between atoms: C_15  and  C_17
REMARK    9  A    between atoms: C_15  and  C_18
REMARK   10  A    between atoms: N_22  and  C_23
REMARK   11  A    between atoms: C_23  and  C_24
REMARK   12  A    between atoms: C_23  and  C_25
REMARK   13  A    between atoms: C_23  and  C_26
REMARK   14  A    between atoms: N_29  and  C_30
REMARK   15  A    between atoms: C_30  and  C_31
REMARK   16  A    between atoms: C_30  and  C_36
REMARK   17  A    between atoms: C_31  and  C_32
REMARK   18  A    between atoms: C_36  and  C_38
REMARK                            x       y       z     vdW  Elec       q    Type
REMARK                         _______ _______ _______ _____ _____    ______ ____
ROOT
ATOM      1  C   UNL     1       6.212   2.773  29.200  0.00  0.00    +0.011 C 
ATOM      2  C   UNL     1       5.891   1.700  28.173  0.00  0.00    -0.025 C 
ATOM      3  C   UNL     1       4.872   0.714  28.658  0.00  0.00    +0.011 C 
ATOM      4  C   UNL     1       5.970   2.160  26.726  0.00  0.00    +0.030 C 
ATOM      5  C   UNL     1       5.503   1.518  25.415  0.00  0.00    +0.166 C 
ATOM      6  N   UNL     1       6.668   0.658  25.126  0.00  0.00    -0.288 N 
ATOM      7  C   UNL     1       7.054   0.300  23.848  0.00  0.00    +0.237 C 
ATOM      8  O   UNL     1       6.594   0.904  22.869  0.00  0.00    -0.274 OA
ATOM      9  C   UNL     1       7.089   0.060  26.382  0.00  0.00    +0.113 C 
ATOM     10  C   UNL     1       7.040   1.250  27.295  0.00  0.00    +0.018 C 
ENDROOT
BRANCH   5  11
ATOM     11  C   UNL     1       5.044   2.636  24.436  0.00  0.00    +0.234 C 
ATOM     12  N   UNL     1       5.848   3.757  24.403  0.00  0.00    -0.304 N 
ATOM     13  H   UNL     1       6.820   3.594  24.645  0.00  0.00    +0.149 HD
ATOM     14  O   UNL     1       3.944   2.600  23.881  0.00  0.00    -0.274 OA
BRANCH  12  15
ATOM     15  C   UNL     1       5.577   4.849  23.472  0.00  0.00    +0.149 C 
BRANCH  15  16
ATOM     16  C   UNL     1       6.849   5.145  22.686  0.00  0.00    +0.237 C 
ATOM     17  O   UNL     1       6.972   6.050  21.862  0.00  0.00    -0.285 OA
BRANCH  16  18
ATOM     18  C   UNL     1       8.030   4.205  22.945  0.00  0.00    +0.279 C 
ATOM     19  N   UNL     1       8.249   3.288  21.956  0.00  0.00    -0.323 N 
ATOM     20  H   UNL     1       9.035   2.657  22.025  0.00  0.00    +0.145 HD
ATOM     21  H   UNL     1       7.665   3.290  21.122  0.00  0.00    +0.145 HD
ATOM     22  O   UNL     1       8.710   4.279  23.953  0.00  0.00    -0.267 OA
ENDBRANCH  16  18
ENDBRANCH  15  16
BRANCH  15  23
ATOM     23  C   UNL     1       5.029   6.112  24.162  0.00  0.00    +0.034 C 
BRANCH  23  24
ATOM     24  C   UNL     1       3.597   6.462  23.741  0.00  0.00    -0.009 C 
ATOM     25  C   UNL     1       2.470   5.705  24.479  0.00  0.00    +0.003 C 
ATOM     26  C   UNL     1       1.781   5.450  23.136  0.00  0.00    +0.001 C 
ATOM     27  C   UNL     1       3.102   5.796  22.432  0.00  0.00    +0.003 C 
ENDBRANCH  23  24
ENDBRANCH  15  23
ENDBRANCH  12  15
ENDBRANCH   5  11
BRANCH   7  28
ATOM     28  C   UNL     1       8.132  -0.818  23.622  0.00  0.00    +0.166 C 
BRANCH  28  29
ATOM     29  N   UNL     1       7.580  -1.701  22.584  0.00  0.00    -0.288 N 
ATOM     30  H   UNL     1       7.607  -1.440  21.608  0.00  0.00    +0.151 HD
ATOM     31  C   UNL     1       7.343  -3.007  22.888  0.00  0.00    +0.301 C 
ATOM     32  N   UNL     1       6.755  -3.714  21.878  0.00  0.00    -0.295 N 
ATOM     33  H   UNL     1       6.131  -3.163  21.304  0.00  0.00    +0.151 HD
ATOM     34  O   UNL     1       7.650  -3.468  23.989  0.00  0.00    -0.253 OA
BRANCH  32  35
ATOM     35  C   UNL     1       6.402  -5.136  22.062  0.00  0.00    +0.028 C 
ATOM     36  C   UNL     1       5.227  -5.263  23.050  0.00  0.00    +0.031 C 
ATOM     37  C   UNL     1       7.603  -5.887  22.671  0.00  0.00    +0.031 C 
ATOM     38  C   UNL     1       6.061  -5.803  20.722  0.00  0.00    +0.031 C 
ENDBRANCH  32  35
ENDBRANCH  28  29
BRANCH  28  39
ATOM     39  C   UNL     1       9.589  -0.362  23.270  0.00  0.00    -0.011 C 
ATOM     40  C   UNL     1      10.548  -1.560  23.509  0.00  0.00    +0.013 C 
ATOM     41  C   UNL     1      10.052   0.797  24.171  0.00  0.00    +0.013 C 
ATOM     42  C   UNL     1       9.754   0.101  21.811  0.00  0.00    +0.013 C 
ENDBRANCH  28  39
ENDBRANCH   7  28
TORSDOF 10
ENDMDL
MODEL 6
REMARK VINA RESULT:      -5.8      2.973      7.343
REMARK  Name = 
REMARK  18 active torsions:
REMARK  status: ('A' for Active; 'I' for Inactive)
REMARK    1  A    between atoms: C_1  and  C_2
REMARK    2  A    between atoms: C_2  and  C_41
REMARK    3  A    between atoms: C_7  and  C_27
REMARK    4  A    between atoms: C_11  and  C_13
REMARK    5  A    between atoms: C_13  and  C_15
REMARK    6  A    between atoms: C_13  and  N_19
REMARK    7  A    between atoms: C_15  and  C_16
REMARK    8  A    between atoms: C_15  and  C_17
REMARK    9  A    between atoms: C_15  and  C_18
REMARK   10  A    between atoms: N_22  and  C_23
REMARK   11  A    between atoms: C_23  and  C_24
REMARK   12  A    between atoms: C_23  and  C_25
REMARK   13  A    between atoms: C_23  and  C_26
REMARK   14  A    between atoms: N_29  and  C_30
REMARK   15  A    between atoms: C_30  and  C_31
REMARK   16  A    between atoms: C_30  and  C_36
REMARK   17  A    between atoms: C_31  and  C_32
REMARK   18  A    between atoms: C_36  and  C_38
REMARK                            x       y       z     vdW  Elec       q    Type
REMARK                         _______ _______ _______ _____ _____    ______ ____
ROOT
ATOM      1  C   UNL     1      11.444   0.600  24.257  0.00  0.00    +0.011 C 
ATOM      2  C   UNL     1      10.046   1.097  23.927  0.00  0.00    -0.025 C 
ATOM      3  C   UNL     1      10.018   2.015  22.742  0.00  0.00    +0.011 C 
ATOM      4  C   UNL     1       8.932   0.109  24.231  0.00  0.00    +0.030 C 
ATOM      5  C   UNL     1       7.448   0.079  23.844  0.00  0.00    +0.166 C 
ATOM      6  N   UNL     1       6.890   0.925  24.919  0.00  0.00    -0.288 N 
ATOM      7  C   UNL     1       5.603   0.792  25.403  0.00  0.00    +0.237 C 
ATOM      8  O   UNL     1       4.943  -0.223  25.140  0.00  0.00    -0.274 OA
ATOM      9  C   UNL     1       7.802   2.040  25.111  0.00  0.00    +0.113 C 
ATOM     10  C   UNL     1       9.125   1.333  25.105  0.00  0.00    +0.018 C 
ENDROOT
BRANCH   5  11
ATOM     11  C   UNL     1       7.004  -1.398  23.647  0.00  0.00    +0.234 C 
ATOM     12  N   UNL     1       7.431  -2.277  24.621  0.00  0.00    -0.304 N 
ATOM     13  H   UNL     1       7.590  -1.861  25.533  0.00  0.00    +0.149 HD
ATOM     14  O   UNL     1       6.476  -1.782  22.601  0.00  0.00    -0.274 OA
BRANCH  12  15
ATOM     15  C   UNL     1       7.020  -3.679  24.601  0.00  0.00    +0.149 C 
BRANCH  15  16
ATOM     16  C   UNL     1       6.822  -4.147  26.038  0.00  0.00    +0.237 C 
ATOM     17  O   UNL     1       5.763  -4.075  26.660  0.00  0.00    -0.285 OA
BRANCH  16  18
ATOM     18  C   UNL     1       8.061  -4.714  26.735  0.00  0.00    +0.279 C 
ATOM     19  N   UNL     1       7.943  -6.017  27.127  0.00  0.00    -0.323 N 
ATOM     20  H   UNL     1       8.730  -6.483  27.555  0.00  0.00    +0.145 HD
ATOM     21  H   UNL     1       7.091  -6.535  26.922  0.00  0.00    +0.145 HD
ATOM     22  O   UNL     1       9.064  -4.047  26.920  0.00  0.00    -0.267 OA
ENDBRANCH  16  18
ENDBRANCH  15  16
BRANCH  15  23
ATOM     23  C   UNL     1       8.001  -4.587  23.837  0.00  0.00    +0.034 C 
BRANCH  23  24
ATOM     24  C   UNL     1       7.306  -5.666  22.999  0.00  0.00    -0.009 C 
ATOM     25  C   UNL     1       7.192  -5.379  21.485  0.00  0.00    +0.003 C 
ATOM     26  C   UNL     1       5.728  -5.820  21.525  0.00  0.00    +0.001 C 
ATOM     27  C   UNL     1       5.756  -5.659  23.052  0.00  0.00    +0.003 C 
ENDBRANCH  23  24
ENDBRANCH  15  23
ENDBRANCH  12  15
ENDBRANCH   5  11
BRANCH   7  28
ATOM     28  C   UNL     1       4.989   1.882  26.352  0.00  0.00    +0.166 C 
BRANCH  28  29
ATOM     29  N   UNL     1       3.694   2.245  25.757  0.00  0.00    -0.288 N 
ATOM     30  H   UNL     1       2.825   2.020  26.221  0.00  0.00    +0.151 HD
ATOM     31  C   UNL     1       3.665   3.175  24.763  0.00  0.00    +0.301 C 
ATOM     32  N   UNL     1       2.424   3.375  24.228  0.00  0.00    -0.295 N 
ATOM     33  H   UNL     1       1.844   2.547  24.221  0.00  0.00    +0.151 HD
ATOM     34  O   UNL     1       4.690   3.761  24.411  0.00  0.00    -0.253 OA
BRANCH  32  35
ATOM     35  C   UNL     1       2.230   4.328  23.117  0.00  0.00    +0.028 C 
ATOM     36  C   UNL     1       2.670   5.740  23.550  0.00  0.00    +0.031 C 
ATOM     37  C   UNL     1       0.732   4.399  22.758  0.00  0.00    +0.031 C 
ATOM     38  C   UNL     1       2.993   3.882  21.861  0.00  0.00    +0.031 C 
ENDBRANCH  32  35
ENDBRANCH  28  29
BRANCH  28  39
ATOM     39  C   UNL     1       4.841   1.523  27.870  0.00  0.00    -0.011 C 
ATOM     40  C   UNL     1       4.729   2.846  28.676  0.00  0.00    +0.013 C 
ATOM     41  C   UNL     1       6.069   0.757  28.393  0.00  0.00    +0.013 C 
ATOM     42  C   UNL     1       3.602   0.665  28.182  0.00  0.00    +0.013 C 
ENDBRANCH  28  39
ENDBRANCH   7  28
TORSDOF 10
ENDMDL
MODEL 7
REMARK VINA RESULT:      -5.8      2.677      8.125
REMARK  Name = 
REMARK  18 active torsions:
REMARK  status: ('A' for Active; 'I' for Inactive)
REMARK    1  A    between atoms: C_1  and  C_2
REMARK    2  A    between atoms: C_2  and  C_41
REMARK    3  A    between atoms: C_7  and  C_27
REMARK    4  A    between atoms: C_11  and  C_13
REMARK    5  A    between atoms: C_13  and  C_15
REMARK    6  A    between atoms: C_13  and  N_19
REMARK    7  A    between atoms: C_15  and  C_16
REMARK    8  A    between atoms: C_15  and  C_17
REMARK    9  A    between atoms: C_15  and  C_18
REMARK   10  A    between atoms: N_22  and  C_23
REMARK   11  A    between atoms: C_23  and  C_24
REMARK   12  A    between atoms: C_23  and  C_25
REMARK   13  A    between atoms: C_23  and  C_26
REMARK   14  A    between atoms: N_29  and  C_30
REMARK   15  A    between atoms: C_30  and  C_31
REMARK   16  A    between atoms: C_30  and  C_36
REMARK   17  A    between atoms: C_31  and  C_32
REMARK   18  A    between atoms: C_36  and  C_38
REMARK                            x       y       z     vdW  Elec       q    Type
REMARK                         _______ _______ _______ _____ _____    ______ ____
ROOT
ATOM      1  C   UNL     1      10.838  -1.807  22.848  0.00  0.00    +0.011 C 
ATOM      2  C   UNL     1       9.625  -0.894  22.906  0.00  0.00    -0.025 C 
ATOM      3  C   UNL     1       9.300  -0.270  21.582  0.00  0.00    +0.011 C 
ATOM      4  C   UNL     1       8.558  -1.317  23.902  0.00  0.00    +0.030 C 
ATOM      5  C   UNL     1       7.109  -0.861  24.115  0.00  0.00    +0.166 C 
ATOM      6  N   UNL     1       7.340   0.317  24.976  0.00  0.00    -0.288 N 
ATOM      7  C   UNL     1       6.428   0.767  25.911  0.00  0.00    +0.237 C 
ATOM      8  O   UNL     1       5.483   0.044  26.256  0.00  0.00    -0.274 OA
ATOM      9  C   UNL     1       8.492   1.024  24.445  0.00  0.00    +0.113 C 
ATOM     10  C   UNL     1       9.435  -0.115  24.190  0.00  0.00    +0.018 C 
ENDROOT
BRANCH   5  11
ATOM     11  C   UNL     1       6.260  -2.073  24.591  0.00  0.00    +0.234 C 
ATOM     12  N   UNL     1       6.976  -3.210  24.903  0.00  0.00    -0.304 N 
ATOM     13  H   UNL     1       7.929  -3.045  25.210  0.00  0.00    +0.149 HD
ATOM     14  O   UNL     1       5.029  -2.074  24.509  0.00  0.00    -0.274 OA
BRANCH  12  15
ATOM     15  C   UNL     1       6.310  -4.396  25.437  0.00  0.00    +0.149 C 
BRANCH  15  16
ATOM     16  C   UNL     1       7.280  -5.121  26.363  0.00  0.00    +0.237 C 
ATOM     17  O   UNL     1       6.958  -5.980  27.183  0.00  0.00    -0.285 OA
BRANCH  16  18
ATOM     18  C   UNL     1       8.748  -4.699  26.260  0.00  0.00    +0.279 C 
ATOM     19  N   UNL     1       9.565  -5.633  25.689  0.00  0.00    -0.323 N 
ATOM     20  H   UNL     1      10.541  -5.419  25.541  0.00  0.00    +0.145 HD
ATOM     21  H   UNL     1       9.176  -6.510  25.348  0.00  0.00    +0.145 HD
ATOM     22  O   UNL     1       9.142  -3.618  26.659  0.00  0.00    -0.267 OA
ENDBRANCH  16  18
ENDBRANCH  15  16
BRANCH  15  23
ATOM     23  C   UNL     1       5.765  -5.330  24.341  0.00  0.00    +0.034 C 
BRANCH  23  24
ATOM     24  C   UNL     1       6.560  -5.262  23.032  0.00  0.00    -0.009 C 
ATOM     25  C   UNL     1       5.879  -4.513  21.865  0.00  0.00    +0.003 C 
ATOM     26  C   UNL     1       6.266  -5.656  20.924  0.00  0.00    +0.001 C 
ATOM     27  C   UNL     1       6.515  -6.540  22.156  0.00  0.00    +0.003 C 
ENDBRANCH  23  24
ENDBRANCH  15  23
ENDBRANCH  12  15
ENDBRANCH   5  11
BRANCH   7  28
ATOM     28  C   UNL     1       6.616   2.164  26.603  0.00  0.00    +0.166 C 
BRANCH  28  29
ATOM     29  N   UNL     1       5.789   3.106  25.834  0.00  0.00    -0.288 N 
ATOM     30  H   UNL     1       4.798   3.196  26.012  0.00  0.00    +0.151 HD
ATOM     31  C   UNL     1       6.403   4.092  25.124  0.00  0.00    +0.301 C 
ATOM     32  N   UNL     1       5.546   4.857  24.384  0.00  0.00    -0.295 N 
ATOM     33  H   UNL     1       4.744   4.350  24.035  0.00  0.00    +0.151 HD
ATOM     34  O   UNL     1       7.624   4.248  25.178  0.00  0.00    -0.253 OA
BRANCH  32  35
ATOM     35  C   UNL     1       6.059   5.949  23.532  0.00  0.00    +0.028 C 
ATOM     36  C   UNL     1       6.761   7.009  24.400  0.00  0.00    +0.031 C 
ATOM     37  C   UNL     1       4.879   6.640  22.819  0.00  0.00    +0.031 C 
ATOM     38  C   UNL     1       7.011   5.412  22.452  0.00  0.00    +0.031 C 
ENDBRANCH  32  35
ENDBRANCH  28  29
BRANCH  28  39
ATOM     39  C   UNL     1       6.316   2.261  28.138  0.00  0.00    -0.011 C 
ATOM     40  C   UNL     1       7.046   1.091  28.854  0.00  0.00    +0.013 C 
ATOM     41  C   UNL     1       4.811   2.124  28.430  0.00  0.00    +0.013 C 
ATOM     42  C   UNL     1       6.786   3.581  28.775  0.00  0.00    +0.013 C 
ENDBRANCH  28  39
ENDBRANCH   7  28
TORSDOF 10
ENDMDL
MODEL 8
REMARK VINA RESULT:      -5.7      2.866      7.684
REMARK  Name = 
REMARK  18 active torsions:
REMARK  status: ('A' for Active; 'I' for Inactive)
REMARK    1  A    between atoms: C_1  and  C_2
REMARK    2  A    between atoms: C_2  and  C_41
REMARK    3  A    between atoms: C_7  and  C_27
REMARK    4  A    between atoms: C_11  and  C_13
REMARK    5  A    between atoms: C_13  and  C_15
REMARK    6  A    between atoms: C_13  and  N_19
REMARK    7  A    between atoms: C_15  and  C_16
REMARK    8  A    between atoms: C_15  and  C_17
REMARK    9  A    between atoms: C_15  and  C_18
REMARK   10  A    between atoms: N_22  and  C_23
REMARK   11  A    between atoms: C_23  and  C_24
REMARK   12  A    between atoms: C_23  and  C_25
REMARK   13  A    between atoms: C_23  and  C_26
REMARK   14  A    between atoms: N_29  and  C_30
REMARK   15  A    between atoms: C_30  and  C_31
REMARK   16  A    between atoms: C_30  and  C_36
REMARK   17  A    between atoms: C_31  and  C_32
REMARK   18  A    between atoms: C_36  and  C_38
REMARK                            x       y       z     vdW  Elec       q    Type
REMARK                         _______ _______ _______ _____ _____    ______ ____
ROOT
ATOM      1  C   UNL     1      10.828  -1.628  22.742  0.00  0.00    +0.011 C 
ATOM      2  C   UNL     1       9.502  -0.892  22.644  0.00  0.00    -0.025 C 
ATOM      3  C   UNL     1       9.256  -0.310  21.285  0.00  0.00    +0.011 C 
ATOM      4  C   UNL     1       8.391  -1.467  23.509  0.00  0.00    +0.030 C 
ATOM      5  C   UNL     1       6.878  -1.217  23.541  0.00  0.00    +0.166 C 
ATOM      6  N   UNL     1       6.838  -0.025  24.412  0.00  0.00    -0.288 N 
ATOM      7  C   UNL     1       5.766   0.289  25.226  0.00  0.00    +0.237 C 
ATOM      8  O   UNL     1       4.896  -0.561  25.461  0.00  0.00    -0.274 OA
ATOM      9  C   UNL     1       7.937   0.839  24.017  0.00  0.00    +0.113 C 
ATOM     10  C   UNL     1       9.052  -0.156  23.889  0.00  0.00    +0.018 C 
ENDROOT
BRANCH   5  11
ATOM     11  C   UNL     1       6.153  -2.538  23.923  0.00  0.00    +0.234 C 
ATOM     12  N   UNL     1       6.947  -3.495  24.522  0.00  0.00    -0.304 N 
ATOM     13  H   UNL     1       7.744  -3.130  25.034  0.00  0.00    +0.149 HD
ATOM     14  O   UNL     1       5.006  -2.781  23.542  0.00  0.00    -0.274 OA
BRANCH  12  15
ATOM     15  C   UNL     1       6.377  -4.751  25.002  0.00  0.00    +0.149 C 
BRANCH  15  16
ATOM     16  C   UNL     1       7.375  -5.407  25.949  0.00  0.00    +0.237 C 
ATOM     17  O   UNL     1       7.072  -6.065  26.944  0.00  0.00    -0.285 OA
BRANCH  16  18
ATOM     18  C   UNL     1       8.855  -5.180  25.626  0.00  0.00    +0.279 C 
ATOM     19  N   UNL     1       9.642  -4.947  26.717  0.00  0.00    -0.323 N 
ATOM     20  H   UNL     1      10.639  -4.832  26.598  0.00  0.00    +0.145 HD
ATOM     21  H   UNL     1       9.236  -4.963  27.650  0.00  0.00    +0.145 HD
ATOM     22  O   UNL     1       9.280  -5.208  24.484  0.00  0.00    -0.267 OA
ENDBRANCH  16  18
ENDBRANCH  15  16
BRANCH  15  23
ATOM     23  C   UNL     1       5.963  -5.703  23.865  0.00  0.00    +0.034 C 
BRANCH  23  24
ATOM     24  C   UNL     1       4.589  -6.347  24.079  0.00  0.00    -0.009 C 
ATOM     25  C   UNL     1       3.484  -5.931  23.083  0.00  0.00    +0.003 C 
ATOM     26  C   UNL     1       2.517  -5.747  24.254  0.00  0.00    +0.001 C 
ATOM     27  C   UNL     1       3.725  -5.720  25.203  0.00  0.00    +0.003 C 
ENDBRANCH  23  24
ENDBRANCH  15  23
ENDBRANCH  12  15
ENDBRANCH   5  11
BRANCH   7  28
ATOM     28  C   UNL     1       5.675   1.693  25.921  0.00  0.00    +0.166 C 
BRANCH  28  29
ATOM     29  N   UNL     1       4.294   2.153  25.713  0.00  0.00    -0.288 N 
ATOM     30  H   UNL     1       3.615   2.126  26.461  0.00  0.00    +0.151 HD
ATOM     31  C   UNL     1       4.015   2.926  24.627  0.00  0.00    +0.301 C 
ATOM     32  N   UNL     1       2.690   3.227  24.487  0.00  0.00    -0.295 N 
ATOM     33  H   UNL     1       2.069   2.500  24.815  0.00  0.00    +0.151 HD
ATOM     34  O   UNL     1       4.910   3.299  23.867  0.00  0.00    -0.253 OA
BRANCH  32  35
ATOM     35  C   UNL     1       2.219   4.030  23.339  0.00  0.00    +0.028 C 
ATOM     36  C   UNL     1       2.868   5.427  23.373  0.00  0.00    +0.031 C 
ATOM     37  C   UNL     1       0.693   4.224  23.442  0.00  0.00    +0.031 C 
ATOM     38  C   UNL     1       2.515   3.324  22.008  0.00  0.00    +0.031 C 
ENDBRANCH  32  35
ENDBRANCH  28  29
BRANCH  28  39
ATOM     39  C   UNL     1       6.086   1.784  27.431  0.00  0.00    -0.011 C 
ATOM     40  C   UNL     1       4.800   1.670  28.295  0.00  0.00    +0.013 C 
ATOM     41  C   UNL     1       6.752   3.133  27.756  0.00  0.00    +0.013 C 
ATOM     42  C   UNL     1       7.060   0.677  27.872  0.00  0.00    +0.013 C 
ENDBRANCH  28  39
ENDBRANCH   7  28
TORSDOF 10
ENDMDL
MODEL 9
REMARK VINA RESULT:      -5.4      2.865      8.212
REMARK  Name = 
REMARK  18 active torsions:
REMARK  status: ('A' for Active; 'I' for Inactive)
REMARK    1  A    between atoms: C_1  and  C_2
REMARK    2  A    between atoms: C_2  and  C_41
REMARK    3  A    between atoms: C_7  and  C_27
REMARK    4  A    between atoms: C_11  and  C_13
REMARK    5  A    between atoms: C_13  and  C_15
REMARK    6  A    between atoms: C_13  and  N_19
REMARK    7  A    between atoms: C_15  and  C_16
REMARK    8  A    between atoms: C_15  and  C_17
REMARK    9  A    between atoms: C_15  and  C_18
REMARK   10  A    between atoms: N_22  and  C_23
REMARK   11  A    between atoms: C_23  and  C_24
REMARK   12  A    between atoms: C_23  and  C_25
REMARK   13  A    between atoms: C_23  and  C_26
REMARK   14  A    between atoms: N_29  and  C_30
REMARK   15  A    between atoms: C_30  and  C_31
REMARK   16  A    between atoms: C_30  and  C_36
REMARK   17  A    between atoms: C_31  and  C_32
REMARK   18  A    between atoms: C_36  and  C_38
REMARK                            x       y       z     vdW  Elec       q    Type
REMARK                         _______ _______ _______ _____ _____    ______ ____
ROOT
ATOM      1  C   UNL     1       7.674  -6.447  22.153  0.00  0.00    +0.011 C 
ATOM      2  C   UNL     1       6.874  -5.197  22.478  0.00  0.00    -0.025 C 
ATOM      3  C   UNL     1       5.489  -5.224  21.907  0.00  0.00    +0.011 C 
ATOM      4  C   UNL     1       7.199  -4.567  23.824  0.00  0.00    +0.030 C 
ATOM      5  C   UNL     1       6.494  -3.485  24.651  0.00  0.00    +0.166 C 
ATOM      6  N   UNL     1       7.073  -2.276  24.029  0.00  0.00    -0.288 N 
ATOM      7  C   UNL     1       7.248  -1.082  24.703  0.00  0.00    +0.237 C 
ATOM      8  O   UNL     1       7.171  -1.050  25.939  0.00  0.00    -0.274 OA
ATOM      9  C   UNL     1       7.114  -2.502  22.595  0.00  0.00    +0.113 C 
ATOM     10  C   UNL     1       7.655  -3.901  22.540  0.00  0.00    +0.018 C 
ENDROOT
BRANCH   5  11
ATOM     11  C   UNL     1       6.678  -3.800  26.162  0.00  0.00    +0.234 C 
ATOM     12  N   UNL     1       5.517  -3.815  26.907  0.00  0.00    -0.304 N 
ATOM     13  H   UNL     1       4.679  -4.053  26.388  0.00  0.00    +0.149 HD
ATOM     14  O   UNL     1       7.795  -3.840  26.684  0.00  0.00    -0.274 OA
BRANCH  12  15
ATOM     15  C   UNL     1       5.537  -4.173  28.323  0.00  0.00    +0.149 C 
BRANCH  15  16
ATOM     16  C   UNL     1       5.789  -5.672  28.441  0.00  0.00    +0.237 C 
ATOM     17  O   UNL     1       6.800  -6.179  28.926  0.00  0.00    -0.285 OA
BRANCH  16  18
ATOM     18  C   UNL     1       4.697  -6.582  27.872  0.00  0.00    +0.279 C 
ATOM     19  N   UNL     1       4.156  -7.449  28.779  0.00  0.00    -0.323 N 
ATOM     20  H   UNL     1       3.397  -8.055  28.499  0.00  0.00    +0.145 HD
ATOM     21  H   UNL     1       4.466  -7.430  29.748  0.00  0.00    +0.145 HD
ATOM     22  O   UNL     1       4.350  -6.529  26.706  0.00  0.00    -0.267 OA
ENDBRANCH  16  18
ENDBRANCH  15  16
BRANCH  15  23
ATOM     23  C   UNL     1       4.261  -3.751  29.073  0.00  0.00    +0.034 C 
BRANCH  23  24
ATOM     24  C   UNL     1       3.415  -2.729  28.307  0.00  0.00    -0.009 C 
ATOM     25  C   UNL     1       3.558  -1.258  28.758  0.00  0.00    +0.003 C 
ATOM     26  C   UNL     1       2.034  -1.114  28.725  0.00  0.00    +0.001 C 
ATOM     27  C   UNL     1       1.924  -2.646  28.725  0.00  0.00    +0.003 C 
ENDBRANCH  23  24
ENDBRANCH  15  23
ENDBRANCH  12  15
ENDBRANCH   5  11
BRANCH   7  28
ATOM     28  C   UNL     1       7.619   0.228  23.922  0.00  0.00    +0.166 C 
BRANCH  28  29
ATOM     29  N   UNL     1       6.865   1.309  24.574  0.00  0.00    -0.288 N 
ATOM     30  H   UNL     1       7.069   1.590  25.523  0.00  0.00    +0.151 HD
ATOM     31  C   UNL     1       6.129   2.156  23.803  0.00  0.00    +0.301 C 
ATOM     32  N   UNL     1       5.406   3.069  24.516  0.00  0.00    -0.295 N 
ATOM     33  H   UNL     1       5.084   2.725  25.411  0.00  0.00    +0.151 HD
ATOM     34  O   UNL     1       6.148   2.072  22.573  0.00  0.00    -0.253 OA
BRANCH  32  35
ATOM     35  C   UNL     1       4.529   4.037  23.827  0.00  0.00    +0.028 C 
ATOM     36  C   UNL     1       5.375   4.988  22.958  0.00  0.00    +0.031 C 
ATOM     37  C   UNL     1       3.793   4.898  24.874  0.00  0.00    +0.031 C 
ATOM     38  C   UNL     1       3.469   3.322  22.977  0.00  0.00    +0.031 C 
ENDBRANCH  32  35
ENDBRANCH  28  29
BRANCH  28  39
ATOM     39  C   UNL     1       9.138   0.590  23.792  0.00  0.00    -0.011 C 
ATOM     40  C   UNL     1       9.386   1.936  24.526  0.00  0.00    +0.013 C 
ATOM     41  C   UNL     1       9.552   0.774  22.321  0.00  0.00    +0.013 C 
ATOM     42  C   UNL     1      10.078  -0.468  24.400  0.00  0.00    +0.013 C 
ENDBRANCH  28  39
ENDBRANCH   7  28
TORSDOF 10
ENDMDL
