MODEL 1
REMARK VINA RESULT:      -6.3      0.000      0.000
REMARK  Name = 
REMARK  18 active torsions:
REMARK  status: ('A' for Active; 'I' for Inactive)
REMARK    1  A    between atoms: C_1  and  C_2
REMARK    2  A    between atoms: C_2  and  C_42
REMARK    3  A    between atoms: C_7  and  C_27
REMARK    4  A    between atoms: C_11  and  C_13
REMARK    5  A    between atoms: C_13  and  C_15
REMARK    6  A    between atoms: C_13  and  N_19
REMARK    7  A    between atoms: C_15  and  C_16
REMARK    8  A    between atoms: C_15  and  C_17
REMARK    9  A    between atoms: C_15  and  C_18
REMARK   10  A    between atoms: N_22  and  C_23
REMARK   11  A    between atoms: C_23  and  C_24
REMARK   12  A    between atoms: C_23  and  C_25
REMARK   13  A    between atoms: C_23  and  C_26
REMARK   14  A    between atoms: N_29  and  C_30
REMARK   15  A    between atoms: C_30  and  C_32
REMARK   16  A    between atoms: C_30  and  C_37
REMARK   17  A    between atoms: C_32  and  C_33
REMARK   18  A    between atoms: C_37  and  C_39
REMARK                            x       y       z     vdW  Elec       q    Type
REMARK                         _______ _______ _______ _____ _____    ______ ____
ROOT
ATOM      1  C   UNL     1       5.684   2.193  28.753  0.00  0.00    +0.011 C 
ATOM      2  C   UNL     1       5.091   1.304  27.675  0.00  0.00    -0.025 C 
ATOM      3  C   UNL     1       3.607   1.454  27.539  0.00  0.00    +0.011 C 
ATOM      4  C   UNL     1       5.987   1.072  26.477  0.00  0.00    +0.030 C 
ATOM      5  C   UNL     1       5.717   0.472  25.088  0.00  0.00    +0.166 C 
ATOM      6  N   UNL     1       5.897  -0.960  25.391  0.00  0.00    -0.288 N 
ATOM      7  C   UNL     1       6.191  -1.900  24.409  0.00  0.00    +0.237 C 
ATOM      8  O   UNL     1       6.546  -1.534  23.282  0.00  0.00    -0.274 OA
ATOM      9  C   UNL     1       5.308  -1.225  26.697  0.00  0.00    +0.113 C 
ATOM     10  C   UNL     1       5.775  -0.038  27.482  0.00  0.00    +0.018 C 
ENDROOT
BRANCH   5  11
ATOM     11  C   UNL     1       6.638   1.174  24.048  0.00  0.00    +0.234 C 
ATOM     12  N   UNL     1       7.974   1.235  24.398  0.00  0.00    -0.304 N 
ATOM     13  H   UNL     1       8.292   0.540  25.068  0.00  0.00    +0.149 HD
ATOM     14  O   UNL     1       6.185   1.798  23.089  0.00  0.00    -0.274 OA
BRANCH  12  15
ATOM     15  C   UNL     1       8.970   1.816  23.504  0.00  0.00    +0.149 C 
BRANCH  15  16
ATOM     16  C   UNL     1       9.887   0.702  23.020  0.00  0.00    +0.237 C 
ATOM     17  O   UNL     1      10.902   0.327  23.611  0.00  0.00    -0.285 OA
BRANCH  16  18
ATOM     18  C   UNL     1       9.508   0.041  21.695  0.00  0.00    +0.279 C 
ATOM     19  N   UNL     1       9.939  -1.251  21.563  0.00  0.00    -0.323 N 
ATOM     20  H   UNL     1       9.705  -1.771  20.729  0.00  0.00    +0.145 HD
ATOM     21  H   UNL     1      10.447  -1.697  22.318  0.00  0.00    +0.145 HD
ATOM     22  O   UNL     1       8.879   0.630  20.832  0.00  0.00    -0.267 OA
ENDBRANCH  16  18
ENDBRANCH  15  16
BRANCH  15  23
ATOM     23  C   UNL     1       9.764   2.972  24.143  0.00  0.00    +0.034 C 
BRANCH  23  24
ATOM     24  C   UNL     1       8.958   4.264  24.301  0.00  0.00    -0.009 C 
ATOM     25  C   UNL     1       8.161   4.726  23.061  0.00  0.00    +0.003 C 
ATOM     26  C   UNL     1       8.682   6.150  23.269  0.00  0.00    +0.001 C 
ATOM     27  C   UNL     1       9.776   5.580  24.181  0.00  0.00    +0.003 C 
ENDBRANCH  23  24
ENDBRANCH  15  23
ENDBRANCH  12  15
ENDBRANCH   5  11
BRANCH   7  28
ATOM     28  C   UNL     1       6.094  -3.427  24.734  0.00  0.00    +0.166 C 
BRANCH  28  29
ATOM     29  N   UNL     1       5.090  -3.968  23.820  0.00  0.00    -0.288 N 
ATOM     30  H   UNL     1       5.365  -4.346  22.926  0.00  0.00    +0.151 HD
ATOM     31  C   UNL     1       3.940  -4.451  24.375  0.00  0.00    +0.301 C 
ATOM     32  N   UNL     1       3.044  -4.906  23.453  0.00  0.00    -0.295 N 
ATOM     33  H   UNL     1       3.093  -4.411  22.567  0.00  0.00    +0.151 HD
ATOM     34  O   UNL     1       3.757  -4.461  25.586  0.00  0.00    -0.253 OA
BRANCH  32  35
ATOM     35  C   UNL     1       1.720  -5.396  23.867  0.00  0.00    +0.028 C 
ATOM     36  C   UNL     1       1.865  -6.630  24.777  0.00  0.00    +0.031 C 
ATOM     37  C   UNL     1       0.927  -5.824  22.618  0.00  0.00    +0.031 C 
ATOM     38  C   UNL     1       0.927  -4.282  24.577  0.00  0.00    +0.031 C 
ENDBRANCH  32  35
ENDBRANCH  28  29
BRANCH  28  39
ATOM     39  C   UNL     1       7.434  -4.231  24.719  0.00  0.00    -0.011 C 
ATOM     40  C   UNL     1       7.569  -4.939  23.344  0.00  0.00    +0.013 C 
ATOM     41  C   UNL     1       7.401  -5.305  25.825  0.00  0.00    +0.013 C 
ATOM     42  C   UNL     1       8.694  -3.370  24.924  0.00  0.00    +0.013 C 
ENDBRANCH  28  39
ENDBRANCH   7  28
TORSDOF 10
ENDMDL
MODEL 2
REMARK VINA RESULT:      -6.1      2.680      8.540
REMARK  Name = 
REMARK  18 active torsions:
REMARK  status: ('A' for Active; 'I' for Inactive)
REMARK    1  A    between atoms: C_1  and  C_2
REMARK    2  A    between atoms: C_2  and  C_42
REMARK    3  A    between atoms: C_7  and  C_27
REMARK    4  A    between atoms: C_11  and  C_13
REMARK    5  A    between atoms: C_13  and  C_15
REMARK    6  A    between atoms: C_13  and  N_19
REMARK    7  A    between atoms: C_15  and  C_16
REMARK    8  A    between atoms: C_15  and  C_17
REMARK    9  A    between atoms: C_15  and  C_18
REMARK   10  A    between atoms: N_22  and  C_23
REMARK   11  A    between atoms: C_23  and  C_24
REMARK   12  A    between atoms: C_23  and  C_25
REMARK   13  A    between atoms: C_23  and  C_26
REMARK   14  A    between atoms: N_29  and  C_30
REMARK   15  A    between atoms: C_30  and  C_32
REMARK   16  A    between atoms: C_30  and  C_37
REMARK   17  A    between atoms: C_32  and  C_33
REMARK   18  A    between atoms: C_37  and  C_39
REMARK                            x       y       z     vdW  Elec       q    Type
REMARK                         _______ _______ _______ _____ _____    ______ ____
ROOT
ATOM      1  C   UNL     1       7.008  -6.022  21.861  0.00  0.00    +0.011 C 
ATOM      2  C   UNL     1       6.573  -4.569  21.810  0.00  0.00    -0.025 C 
ATOM      3  C   UNL     1       5.694  -4.259  20.637  0.00  0.00    +0.011 C 
ATOM      4  C   UNL     1       6.365  -3.918  23.161  0.00  0.00    +0.030 C 
ATOM      5  C   UNL     1       5.707  -2.594  23.577  0.00  0.00    +0.166 C 
ATOM      6  N   UNL     1       6.851  -1.678  23.409  0.00  0.00    -0.288 N 
ATOM      7  C   UNL     1       6.926  -0.449  24.055  0.00  0.00    +0.237 C 
ATOM      8  O   UNL     1       6.149  -0.181  24.980  0.00  0.00    -0.274 OA
ATOM      9  C   UNL     1       7.573  -2.071  22.205  0.00  0.00    +0.113 C 
ATOM     10  C   UNL     1       7.581  -3.563  22.334  0.00  0.00    +0.018 C 
ENDROOT
BRANCH   5  11
ATOM     11  C   UNL     1       5.050  -2.775  24.977  0.00  0.00    +0.234 C 
ATOM     12  N   UNL     1       5.400  -3.937  25.640  0.00  0.00    -0.304 N 
ATOM     13  H   UNL     1       6.278  -4.363  25.360  0.00  0.00    +0.149 HD
ATOM     14  O   UNL     1       4.143  -2.044  25.373  0.00  0.00    -0.274 OA
BRANCH  12  15
ATOM     15  C   UNL     1       4.907  -4.225  26.983  0.00  0.00    +0.149 C 
BRANCH  15  16
ATOM     16  C   UNL     1       6.082  -4.676  27.838  0.00  0.00    +0.237 C 
ATOM     17  O   UNL     1       6.006  -4.958  29.035  0.00  0.00    -0.285 OA
BRANCH  16  18
ATOM     18  C   UNL     1       7.439  -4.751  27.138  0.00  0.00    +0.279 C 
ATOM     19  N   UNL     1       7.943  -6.017  27.013  0.00  0.00    -0.323 N 
ATOM     20  H   UNL     1       8.823  -6.157  26.537  0.00  0.00    +0.145 HD
ATOM     21  H   UNL     1       7.414  -6.811  27.355  0.00  0.00    +0.145 HD
ATOM     22  O   UNL     1       8.017  -3.755  26.735  0.00  0.00    -0.267 OA
ENDBRANCH  16  18
ENDBRANCH  15  16
BRANCH  15  23
ATOM     23  C   UNL     1       3.757  -5.252  27.004  0.00  0.00    +0.034 C 
BRANCH  23  24
ATOM     24  C   UNL     1       3.419  -5.832  25.629  0.00  0.00    -0.009 C 
ATOM     25  C   UNL     1       2.103  -6.637  25.533  0.00  0.00    +0.003 C 
ATOM     26  C   UNL     1       2.840  -7.731  24.758  0.00  0.00    +0.001 C 
ATOM     27  C   UNL     1       4.166  -7.142  25.255  0.00  0.00    +0.003 C 
ENDBRANCH  23  24
ENDBRANCH  15  23
ENDBRANCH  12  15
ENDBRANCH   5  11
BRANCH   7  28
ATOM     28  C   UNL     1       8.011   0.594  23.628  0.00  0.00    +0.166 C 
BRANCH  28  29
ATOM     29  N   UNL     1       7.602   1.864  24.225  0.00  0.00    -0.288 N 
ATOM     30  H   UNL     1       8.024   2.184  25.084  0.00  0.00    +0.151 HD
ATOM     31  C   UNL     1       7.105   2.817  23.381  0.00  0.00    +0.301 C 
ATOM     32  N   UNL     1       6.718   3.957  24.022  0.00  0.00    -0.295 N 
ATOM     33  H   UNL     1       6.383   3.793  24.967  0.00  0.00    +0.151 HD
ATOM     34  O   UNL     1       7.026   2.637  22.172  0.00  0.00    -0.253 OA
BRANCH  32  35
ATOM     35  C   UNL     1       6.092   5.062  23.280  0.00  0.00    +0.028 C 
ATOM     36  C   UNL     1       7.070   5.628  22.234  0.00  0.00    +0.031 C 
ATOM     37  C   UNL     1       5.746   6.197  24.261  0.00  0.00    +0.031 C 
ATOM     38  C   UNL     1       4.785   4.595  22.610  0.00  0.00    +0.031 C 
ENDBRANCH  32  35
ENDBRANCH  28  29
BRANCH  28  39
ATOM     39  C   UNL     1       9.498   0.223  23.935  0.00  0.00    -0.011 C 
ATOM     40  C   UNL     1      10.218   1.483  24.485  0.00  0.00    +0.013 C 
ATOM     41  C   UNL     1      10.198  -0.216  22.633  0.00  0.00    +0.013 C 
ATOM     42  C   UNL     1       9.669  -0.901  24.974  0.00  0.00    +0.013 C 
ENDBRANCH  28  39
ENDBRANCH   7  28
TORSDOF 10
ENDMDL
MODEL 3
REMARK VINA RESULT:      -6.0      2.806      8.243
REMARK  Name = 
REMARK  18 active torsions:
REMARK  status: ('A' for Active; 'I' for Inactive)
REMARK    1  A    between atoms: C_1  and  C_2
REMARK    2  A    between atoms: C_2  and  C_42
REMARK    3  A    between atoms: C_7  and  C_27
REMARK    4  A    between atoms: C_11  and  C_13
REMARK    5  A    between atoms: C_13  and  C_15
REMARK    6  A    between atoms: C_13  and  N_19
REMARK    7  A    between atoms: C_15  and  C_16
REMARK    8  A    between atoms: C_15  and  C_17
REMARK    9  A    between atoms: C_15  and  C_18
REMARK   10  A    between atoms: N_22  and  C_23
REMARK   11  A    between atoms: C_23  and  C_24
REMARK   12  A    between atoms: C_23  and  C_25
REMARK   13  A    between atoms: C_23  and  C_26
REMARK   14  A    between atoms: N_29  and  C_30
REMARK   15  A    between atoms: C_30  and  C_32
REMARK   16  A    between atoms: C_30  and  C_37
REMARK   17  A    between atoms: C_32  and  C_33
REMARK   18  A    between atoms: C_37  and  C_39
REMARK                            x       y       z     vdW  Elec       q    Type
REMARK                         _______ _______ _______ _____ _____    ______ ____
ROOT
ATOM      1  C   UNL     1      10.861  -1.848  22.930  0.00  0.00    +0.011 C 
ATOM      2  C   UNL     1       9.659  -0.923  22.975  0.00  0.00    -0.025 C 
ATOM      3  C   UNL     1       9.356  -0.286  21.653  0.00  0.00    +0.011 C 
ATOM      4  C   UNL     1       8.563  -1.347  23.930  0.00  0.00    +0.030 C 
ATOM      5  C   UNL     1       7.113  -0.873  24.111  0.00  0.00    +0.166 C 
ATOM      6  N   UNL     1       7.331   0.275  25.010  0.00  0.00    -0.288 N 
ATOM      7  C   UNL     1       6.327   0.790  25.823  0.00  0.00    +0.237 C 
ATOM      8  O   UNL     1       5.280   0.156  25.999  0.00  0.00    -0.274 OA
ATOM      9  C   UNL     1       8.536   0.971  24.573  0.00  0.00    +0.113 C 
ATOM     10  C   UNL     1       9.454  -0.176  24.281  0.00  0.00    +0.018 C 
ENDROOT
BRANCH   5  11
ATOM     11  C   UNL     1       6.244  -2.077  24.578  0.00  0.00    +0.234 C 
ATOM     12  N   UNL     1       6.954  -3.213  24.919  0.00  0.00    -0.304 N 
ATOM     13  H   UNL     1       7.924  -3.069  25.186  0.00  0.00    +0.149 HD
ATOM     14  O   UNL     1       5.019  -2.083  24.462  0.00  0.00    -0.274 OA
BRANCH  12  15
ATOM     15  C   UNL     1       6.285  -4.407  25.425  0.00  0.00    +0.149 C 
BRANCH  15  16
ATOM     16  C   UNL     1       7.241  -5.132  26.361  0.00  0.00    +0.237 C 
ATOM     17  O   UNL     1       6.896  -5.953  27.213  0.00  0.00    -0.285 OA
BRANCH  16  18
ATOM     18  C   UNL     1       8.721  -4.777  26.224  0.00  0.00    +0.279 C 
ATOM     19  N   UNL     1       9.481  -5.738  25.615  0.00  0.00    -0.323 N 
ATOM     20  H   UNL     1      10.465  -5.570  25.459  0.00  0.00    +0.145 HD
ATOM     21  H   UNL     1       9.049  -6.592  25.281  0.00  0.00    +0.145 HD
ATOM     22  O   UNL     1       9.177  -3.722  26.636  0.00  0.00    -0.267 OA
ENDBRANCH  16  18
ENDBRANCH  15  16
BRANCH  15  23
ATOM     23  C   UNL     1       5.765  -5.335  24.309  0.00  0.00    +0.034 C 
BRANCH  23  24
ATOM     24  C   UNL     1       6.565  -5.247  23.007  0.00  0.00    -0.009 C 
ATOM     25  C   UNL     1       5.866  -4.540  21.824  0.00  0.00    +0.003 C 
ATOM     26  C   UNL     1       6.302  -5.678  20.899  0.00  0.00    +0.001 C 
ATOM     27  C   UNL     1       6.575  -6.536  22.141  0.00  0.00    +0.003 C 
ENDBRANCH  23  24
ENDBRANCH  15  23
ENDBRANCH  12  15
ENDBRANCH   5  11
BRANCH   7  28
ATOM     28  C   UNL     1       6.528   2.167  26.537  0.00  0.00    +0.166 C 
BRANCH  28  29
ATOM     29  N   UNL     1       5.680   3.117  25.822  0.00  0.00    -0.288 N 
ATOM     30  H   UNL     1       4.744   3.312  26.146  0.00  0.00    +0.151 HD
ATOM     31  C   UNL     1       6.308   4.096  25.106  0.00  0.00    +0.301 C 
ATOM     32  N   UNL     1       5.446   4.919  24.443  0.00  0.00    -0.295 N 
ATOM     33  H   UNL     1       4.588   4.455  24.156  0.00  0.00    +0.151 HD
ATOM     34  O   UNL     1       7.528   4.200  25.078  0.00  0.00    -0.253 OA
BRANCH  32  35
ATOM     35  C   UNL     1       5.948   5.985  23.563  0.00  0.00    +0.028 C 
ATOM     36  C   UNL     1       6.730   7.031  24.380  0.00  0.00    +0.031 C 
ATOM     37  C   UNL     1       4.755   6.701  22.904  0.00  0.00    +0.031 C 
ATOM     38  C   UNL     1       6.828   5.396  22.443  0.00  0.00    +0.031 C 
ENDBRANCH  32  35
ENDBRANCH  28  29
BRANCH  28  39
ATOM     39  C   UNL     1       6.307   2.191  28.084  0.00  0.00    -0.011 C 
ATOM     40  C   UNL     1       6.873   3.523  28.643  0.00  0.00    +0.013 C 
ATOM     41  C   UNL     1       7.072   1.020  28.732  0.00  0.00    +0.013 C 
ATOM     42  C   UNL     1       4.831   2.096  28.515  0.00  0.00    +0.013 C 
ENDBRANCH  28  39
ENDBRANCH   7  28
TORSDOF 10
ENDMDL
MODEL 4
REMARK VINA RESULT:      -5.8      2.766      7.789
REMARK  Name = 
REMARK  18 active torsions:
REMARK  status: ('A' for Active; 'I' for Inactive)
REMARK    1  A    between atoms: C_1  and  C_2
REMARK    2  A    between atoms: C_2  and  C_42
REMARK    3  A    between atoms: C_7  and  C_27
REMARK    4  A    between atoms: C_11  and  C_13
REMARK    5  A    between atoms: C_13  and  C_15
REMARK    6  A    between atoms: C_13  and  N_19
REMARK    7  A    between atoms: C_15  and  C_16
REMARK    8  A    between atoms: C_15  and  C_17
REMARK    9  A    between atoms: C_15  and  C_18
REMARK   10  A    between atoms: N_22  and  C_23
REMARK   11  A    between atoms: C_23  and  C_24
REMARK   12  A    between atoms: C_23  and  C_25
REMARK   13  A    between atoms: C_23  and  C_26
REMARK   14  A    between atoms: N_29  and  C_30
REMARK   15  A    between atoms: C_30  and  C_32
REMARK   16  A    between atoms: C_30  and  C_37
REMARK   17  A    between atoms: C_32  and  C_33
REMARK   18  A    between atoms: C_37  and  C_39
REMARK                            x       y       z     vdW  Elec       q    Type
REMARK                         _______ _______ _______ _____ _____    ______ ____
ROOT
ATOM      1  C   UNL     1      10.931  -1.518  22.492  0.00  0.00    +0.011 C 
ATOM      2  C   UNL     1       9.603  -0.783  22.493  0.00  0.00    -0.025 C 
ATOM      3  C   UNL     1       9.286  -0.137  21.180  0.00  0.00    +0.011 C 
ATOM      4  C   UNL     1       8.530  -1.408  23.359  0.00  0.00    +0.030 C 
ATOM      5  C   UNL     1       7.017  -1.162  23.464  0.00  0.00    +0.166 C 
ATOM      6  N   UNL     1       7.008  -0.037  24.418  0.00  0.00    -0.288 N 
ATOM      7  C   UNL     1       5.892   0.286  25.182  0.00  0.00    +0.237 C 
ATOM      8  O   UNL     1       4.943  -0.504  25.266  0.00  0.00    -0.274 OA
ATOM      9  C   UNL     1       8.117   0.848  24.085  0.00  0.00    +0.113 C 
ATOM     10  C   UNL     1       9.213  -0.136  23.810  0.00  0.00    +0.018 C 
ENDROOT
BRANCH   5  11
ATOM     11  C   UNL     1       6.312  -2.502  23.828  0.00  0.00    +0.234 C 
ATOM     12  N   UNL     1       7.072  -3.374  24.585  0.00  0.00    -0.304 N 
ATOM     13  H   UNL     1       7.825  -2.957  25.126  0.00  0.00    +0.149 HD
ATOM     14  O   UNL     1       5.245  -2.839  23.318  0.00  0.00    -0.274 OA
BRANCH  12  15
ATOM     15  C   UNL     1       6.533  -4.648  25.050  0.00  0.00    +0.149 C 
BRANCH  15  16
ATOM     16  C   UNL     1       7.478  -5.214  26.099  0.00  0.00    +0.237 C 
ATOM     17  O   UNL     1       7.150  -6.017  26.975  0.00  0.00    -0.285 OA
BRANCH  16  18
ATOM     18  C   UNL     1       8.922  -4.715  26.050  0.00  0.00    +0.279 C 
ATOM     19  N   UNL     1       9.828  -5.641  25.610  0.00  0.00    -0.323 N 
ATOM     20  H   UNL     1      10.800  -5.383  25.519  0.00  0.00    +0.145 HD
ATOM     21  H   UNL     1       9.516  -6.565  25.332  0.00  0.00    +0.145 HD
ATOM     22  O   UNL     1       9.229  -3.582  26.384  0.00  0.00    -0.267 OA
ENDBRANCH  16  18
ENDBRANCH  15  16
BRANCH  15  23
ATOM     23  C   UNL     1       6.275  -5.654  23.911  0.00  0.00    +0.034 C 
BRANCH  23  24
ATOM     24  C   UNL     1       4.931  -6.379  24.017  0.00  0.00    -0.009 C 
ATOM     25  C   UNL     1       3.855  -5.975  22.984  0.00  0.00    +0.003 C 
ATOM     26  C   UNL     1       2.820  -5.896  24.109  0.00  0.00    +0.001 C 
ATOM     27  C   UNL     1       3.973  -5.851  25.119  0.00  0.00    +0.003 C 
ENDBRANCH  23  24
ENDBRANCH  15  23
ENDBRANCH  12  15
ENDBRANCH   5  11
BRANCH   7  28
ATOM     28  C   UNL     1       5.842   1.642  25.959  0.00  0.00    +0.166 C 
BRANCH  28  29
ATOM     29  N   UNL     1       4.532   2.221  25.670  0.00  0.00    -0.288 N 
ATOM     30  H   UNL     1       3.881   2.410  26.417  0.00  0.00    +0.151 HD
ATOM     31  C   UNL     1       4.424   2.983  24.541  0.00  0.00    +0.301 C 
ATOM     32  N   UNL     1       3.163   3.457  24.327  0.00  0.00    -0.295 N 
ATOM     33  H   UNL     1       2.437   2.839  24.678  0.00  0.00    +0.151 HD
ATOM     34  O   UNL     1       5.382   3.200  23.809  0.00  0.00    -0.253 OA
BRANCH  32  35
ATOM     35  C   UNL     1       2.845   4.235  23.120  0.00  0.00    +0.028 C 
ATOM     36  C   UNL     1       3.762   5.469  23.021  0.00  0.00    +0.031 C 
ATOM     37  C   UNL     1       1.392   4.737  23.211  0.00  0.00    +0.031 C 
ATOM     38  C   UNL     1       2.970   3.358  21.860  0.00  0.00    +0.031 C 
ENDBRANCH  32  35
ENDBRANCH  28  29
BRANCH  28  39
ATOM     39  C   UNL     1       6.163   1.585  27.488  0.00  0.00    -0.011 C 
ATOM     40  C   UNL     1       4.843   1.321  28.259  0.00  0.00    +0.013 C 
ATOM     41  C   UNL     1       6.737   2.942  27.944  0.00  0.00    +0.013 C 
ATOM     42  C   UNL     1       7.163   0.484  27.885  0.00  0.00    +0.013 C 
ENDBRANCH  28  39
ENDBRANCH   7  28
TORSDOF 10
ENDMDL
MODEL 5
REMARK VINA RESULT:      -5.6      2.939      8.301
REMARK  Name = 
REMARK  18 active torsions:
REMARK  status: ('A' for Active; 'I' for Inactive)
REMARK    1  A    between atoms: C_1  and  C_2
REMARK    2  A    between atoms: C_2  and  C_42
REMARK    3  A    between atoms: C_7  and  C_27
REMARK    4  A    between atoms: C_11  and  C_13
REMARK    5  A    between atoms: C_13  and  C_15
REMARK    6  A    between atoms: C_13  and  N_19
REMARK    7  A    between atoms: C_15  and  C_16
REMARK    8  A    between atoms: C_15  and  C_17
REMARK    9  A    between atoms: C_15  and  C_18
REMARK   10  A    between atoms: N_22  and  C_23
REMARK   11  A    between atoms: C_23  and  C_24
REMARK   12  A    between atoms: C_23  and  C_25
REMARK   13  A    between atoms: C_23  and  C_26
REMARK   14  A    between atoms: N_29  and  C_30
REMARK   15  A    between atoms: C_30  and  C_32
REMARK   16  A    between atoms: C_30  and  C_37
REMARK   17  A    between atoms: C_32  and  C_33
REMARK   18  A    between atoms: C_37  and  C_39
REMARK                            x       y       z     vdW  Elec       q    Type
REMARK                         _______ _______ _______ _____ _____    ______ ____
ROOT
ATOM      1  C   UNL     1       7.568  -6.181  21.958  0.00  0.00    +0.011 C 
ATOM      2  C   UNL     1       6.815  -4.936  22.388  0.00  0.00    -0.025 C 
ATOM      3  C   UNL     1       5.406  -4.896  21.882  0.00  0.00    +0.011 C 
ATOM      4  C   UNL     1       7.190  -4.404  23.756  0.00  0.00    +0.030 C 
ATOM      5  C   UNL     1       6.536  -3.357  24.670  0.00  0.00    +0.166 C 
ATOM      6  N   UNL     1       7.139  -2.128  24.123  0.00  0.00    -0.288 N 
ATOM      7  C   UNL     1       7.224  -0.948  24.853  0.00  0.00    +0.237 C 
ATOM      8  O   UNL     1       7.012  -0.951  26.072  0.00  0.00    -0.274 OA
ATOM      9  C   UNL     1       7.192  -2.257  22.672  0.00  0.00    +0.113 C 
ATOM     10  C   UNL     1       7.649  -3.674  22.513  0.00  0.00    +0.018 C 
ENDROOT
BRANCH   5  11
ATOM     11  C   UNL     1       6.785  -3.757  26.154  0.00  0.00    +0.234 C 
ATOM     12  N   UNL     1       5.642  -3.951  26.907  0.00  0.00    -0.304 N 
ATOM     13  H   UNL     1       4.798  -4.175  26.387  0.00  0.00    +0.149 HD
ATOM     14  O   UNL     1       7.904  -3.710  26.664  0.00  0.00    -0.274 OA
BRANCH  12  15
ATOM     15  C   UNL     1       5.711  -4.379  28.300  0.00  0.00    +0.149 C 
BRANCH  15  16
ATOM     16  C   UNL     1       5.961  -5.879  28.328  0.00  0.00    +0.237 C 
ATOM     17  O   UNL     1       6.876  -6.423  28.951  0.00  0.00    -0.285 OA
BRANCH  16  18
ATOM     18  C   UNL     1       5.010  -6.740  27.498  0.00  0.00    +0.279 C 
ATOM     19  N   UNL     1       3.994  -7.314  28.213  0.00  0.00    -0.323 N 
ATOM     20  H   UNL     1       3.304  -7.875  27.734  0.00  0.00    +0.145 HD
ATOM     21  H   UNL     1       3.909  -7.137  29.207  0.00  0.00    +0.145 HD
ATOM     22  O   UNL     1       5.160  -6.901  26.298  0.00  0.00    -0.267 OA
ENDBRANCH  16  18
ENDBRANCH  15  16
BRANCH  15  23
ATOM     23  C   UNL     1       4.464  -3.992  29.120  0.00  0.00    +0.034 C 
BRANCH  23  24
ATOM     24  C   UNL     1       3.347  -3.359  28.288  0.00  0.00    -0.009 C 
ATOM     25  C   UNL     1       2.466  -2.315  29.011  0.00  0.00    +0.003 C 
ATOM     26  C   UNL     1       1.217  -2.984  28.434  0.00  0.00    +0.001 C 
ATOM     27  C   UNL     1       2.066  -4.223  28.122  0.00  0.00    +0.003 C 
ENDBRANCH  23  24
ENDBRANCH  15  23
ENDBRANCH  12  15
ENDBRANCH   5  11
BRANCH   7  28
ATOM     28  C   UNL     1       7.611   0.388  24.137  0.00  0.00    +0.166 C 
BRANCH  28  29
ATOM     29  N   UNL     1       6.878   1.442  24.834  0.00  0.00    -0.288 N 
ATOM     30  H   UNL     1       7.238   1.835  25.691  0.00  0.00    +0.151 HD
ATOM     31  C   UNL     1       6.062   2.236  24.079  0.00  0.00    +0.301 C 
ATOM     32  N   UNL     1       5.391   3.171  24.810  0.00  0.00    -0.295 N 
ATOM     33  H   UNL     1       5.184   2.869  25.758  0.00  0.00    +0.151 HD
ATOM     34  O   UNL     1       5.961   2.098  22.866  0.00  0.00    -0.253 OA
BRANCH  32  35
ATOM     35  C   UNL     1       4.412   4.066  24.172  0.00  0.00    +0.028 C 
ATOM     36  C   UNL     1       5.129   5.097  23.281  0.00  0.00    +0.031 C 
ATOM     37  C   UNL     1       3.648   4.839  25.263  0.00  0.00    +0.031 C 
ATOM     38  C   UNL     1       3.388   3.256  23.355  0.00  0.00    +0.031 C 
ENDBRANCH  32  35
ENDBRANCH  28  29
BRANCH  28  39
ATOM     39  C   UNL     1       9.139   0.691  24.001  0.00  0.00    -0.011 C 
ATOM     40  C   UNL     1       9.405   2.129  24.520  0.00  0.00    +0.013 C 
ATOM     41  C   UNL     1       9.546   0.620  22.515  0.00  0.00    +0.013 C 
ATOM     42  C   UNL     1      10.048  -0.265  24.794  0.00  0.00    +0.013 C 
ENDBRANCH  28  39
ENDBRANCH   7  28
TORSDOF 10
ENDMDL
MODEL 6
REMARK VINA RESULT:      -5.6      2.974      7.462
REMARK  Name = 
REMARK  18 active torsions:
REMARK  status: ('A' for Active; 'I' for Inactive)
REMARK    1  A    between atoms: C_1  and  C_2
REMARK    2  A    between atoms: C_2  and  C_42
REMARK    3  A    between atoms: C_7  and  C_27
REMARK    4  A    between atoms: C_11  and  C_13
REMARK    5  A    between atoms: C_13  and  C_15
REMARK    6  A    between atoms: C_13  and  N_19
REMARK    7  A    between atoms: C_15  and  C_16
REMARK    8  A    between atoms: C_15  and  C_17
REMARK    9  A    between atoms: C_15  and  C_18
REMARK   10  A    between atoms: N_22  and  C_23
REMARK   11  A    between atoms: C_23  and  C_24
REMARK   12  A    between atoms: C_23  and  C_25
REMARK   13  A    between atoms: C_23  and  C_26
REMARK   14  A    between atoms: N_29  and  C_30
REMARK   15  A    between atoms: C_30  and  C_32
REMARK   16  A    between atoms: C_30  and  C_37
REMARK   17  A    between atoms: C_32  and  C_33
REMARK   18  A    between atoms: C_37  and  C_39
REMARK                            x       y       z     vdW  Elec       q    Type
REMARK                         _______ _______ _______ _____ _____    ______ ____
ROOT
ATOM      1  C   UNL     1      11.430   1.043  24.095  0.00  0.00    +0.011 C 
ATOM      2  C   UNL     1       9.980   1.293  23.721  0.00  0.00    -0.025 C 
ATOM      3  C   UNL     1       9.814   1.810  22.325  0.00  0.00    +0.011 C 
ATOM      4  C   UNL     1       8.987   0.336  24.345  0.00  0.00    +0.030 C 
ATOM      5  C   UNL     1       7.501   0.062  24.062  0.00  0.00    +0.166 C 
ATOM      6  N   UNL     1       6.886   1.109  24.898  0.00  0.00    -0.288 N 
ATOM      7  C   UNL     1       5.571   1.033  25.344  0.00  0.00    +0.237 C 
ATOM      8  O   UNL     1       4.942  -0.029  25.254  0.00  0.00    -0.274 OA
ATOM      9  C   UNL     1       7.693   2.317  24.780  0.00  0.00    +0.113 C 
ATOM     10  C   UNL     1       9.081   1.758  24.852  0.00  0.00    +0.018 C 
ENDROOT
BRANCH   5  11
ATOM     11  C   UNL     1       7.203  -1.440  24.343  0.00  0.00    +0.234 C 
ATOM     12  N   UNL     1       6.365  -2.050  23.428  0.00  0.00    -0.304 N 
ATOM     13  H   UNL     1       6.319  -1.619  22.509  0.00  0.00    +0.149 HD
ATOM     14  O   UNL     1       7.523  -1.983  25.399  0.00  0.00    -0.274 OA
BRANCH  12  15
ATOM     15  C   UNL     1       6.033  -3.468  23.526  0.00  0.00    +0.149 C 
BRANCH  15  16
ATOM     16  C   UNL     1       6.014  -4.054  22.123  0.00  0.00    +0.237 C 
ATOM     17  O   UNL     1       5.692  -3.430  21.109  0.00  0.00    -0.285 OA
BRANCH  16  18
ATOM     18  C   UNL     1       6.402  -5.527  21.999  0.00  0.00    +0.279 C 
ATOM     19  N   UNL     1       5.342  -6.392  21.968  0.00  0.00    -0.323 N 
ATOM     20  H   UNL     1       5.511  -7.382  21.858  0.00  0.00    +0.145 HD
ATOM     21  H   UNL     1       4.394  -6.036  22.007  0.00  0.00    +0.145 HD
ATOM     22  O   UNL     1       7.566  -5.889  21.941  0.00  0.00    -0.267 OA
ENDBRANCH  16  18
ENDBRANCH  15  16
BRANCH  15  23
ATOM     23  C   UNL     1       4.712  -3.735  24.275  0.00  0.00    +0.034 C 
BRANCH  23  24
ATOM     24  C   UNL     1       4.857  -4.683  25.468  0.00  0.00    -0.009 C 
ATOM     25  C   UNL     1       5.009  -4.017  26.854  0.00  0.00    +0.003 C 
ATOM     26  C   UNL     1       6.163  -4.969  27.174  0.00  0.00    +0.001 C 
ATOM     27  C   UNL     1       6.276  -5.281  25.677  0.00  0.00    +0.003 C 
ENDBRANCH  23  24
ENDBRANCH  15  23
ENDBRANCH  12  15
ENDBRANCH   5  11
BRANCH   7  28
ATOM     28  C   UNL     1       4.888   2.287  25.983  0.00  0.00    +0.166 C 
BRANCH  28  29
ATOM     29  N   UNL     1       3.577   2.396  25.346  0.00  0.00    -0.288 N 
ATOM     30  H   UNL     1       2.739   2.164  25.859  0.00  0.00    +0.151 HD
ATOM     31  C   UNL     1       3.454   3.293  24.324  0.00  0.00    +0.301 C 
ATOM     32  N   UNL     1       2.211   3.309  23.765  0.00  0.00    -0.295 N 
ATOM     33  H   UNL     1       1.743   2.408  23.799  0.00  0.00    +0.151 HD
ATOM     34  O   UNL     1       4.388   4.001  23.965  0.00  0.00    -0.253 OA
BRANCH  32  35
ATOM     35  C   UNL     1       1.918   4.163  22.604  0.00  0.00    +0.028 C 
ATOM     36  C   UNL     1       0.443   4.014  22.186  0.00  0.00    +0.031 C 
ATOM     37  C   UNL     1       2.789   3.717  21.415  0.00  0.00    +0.031 C 
ATOM     38  C   UNL     1       2.252   5.635  22.913  0.00  0.00    +0.031 C 
ENDBRANCH  32  35
ENDBRANCH  28  29
BRANCH  28  39
ATOM     39  C   UNL     1       4.817   2.325  27.544  0.00  0.00    -0.011 C 
ATOM     40  C   UNL     1       6.079   1.626  28.113  0.00  0.00    +0.013 C 
ATOM     41  C   UNL     1       3.569   1.555  28.021  0.00  0.00    +0.013 C 
ATOM     42  C   UNL     1       4.761   3.744  28.141  0.00  0.00    +0.013 C 
ENDBRANCH  28  39
ENDBRANCH   7  28
TORSDOF 10
ENDMDL
MODEL 7
REMARK VINA RESULT:      -5.6      2.976      7.536
REMARK  Name = 
REMARK  18 active torsions:
REMARK  status: ('A' for Active; 'I' for Inactive)
REMARK    1  A    between atoms: C_1  and  C_2
REMARK    2  A    between atoms: C_2  and  C_42
REMARK    3  A    between atoms: C_7  and  C_27
REMARK    4  A    between atoms: C_11  and  C_13
REMARK    5  A    between atoms: C_13  and  C_15
REMARK    6  A    between atoms: C_13  and  N_19
REMARK    7  A    between atoms: C_15  and  C_16
REMARK    8  A    between atoms: C_15  and  C_17
REMARK    9  A    between atoms: C_15  and  C_18
REMARK   10  A    between atoms: N_22  and  C_23
REMARK   11  A    between atoms: C_23  and  C_24
REMARK   12  A    between atoms: C_23  and  C_25
REMARK   13  A    between atoms: C_23  and  C_26
REMARK   14  A    between atoms: N_29  and  C_30
REMARK   15  A    between atoms: C_30  and  C_32
REMARK   16  A    between atoms: C_30  and  C_37
REMARK   17  A    between atoms: C_32  and  C_33
REMARK   18  A    between atoms: C_37  and  C_39
REMARK                            x       y       z     vdW  Elec       q    Type
REMARK                         _______ _______ _______ _____ _____    ______ ____
ROOT
ATOM      1  C   UNL     1      11.515   1.083  24.103  0.00  0.00    +0.011 C 
ATOM      2  C   UNL     1      10.095   1.455  23.717  0.00  0.00    -0.025 C 
ATOM      3  C   UNL     1      10.011   2.174  22.406  0.00  0.00    +0.011 C 
ATOM      4  C   UNL     1       9.036   0.467  24.160  0.00  0.00    +0.030 C 
ATOM      5  C   UNL     1       7.554   0.309  23.786  0.00  0.00    +0.166 C 
ATOM      6  N   UNL     1       6.948   1.254  24.744  0.00  0.00    -0.288 N 
ATOM      7  C   UNL     1       5.613   1.178  25.125  0.00  0.00    +0.237 C 
ATOM      8  O   UNL     1       4.944   0.173  24.860  0.00  0.00    -0.274 OA
ATOM      9  C   UNL     1       7.811   2.426  24.831  0.00  0.00    +0.113 C 
ATOM     10  C   UNL     1       9.169   1.796  24.871  0.00  0.00    +0.018 C 
ENDROOT
BRANCH   5  11
ATOM     11  C   UNL     1       7.179  -1.201  23.836  0.00  0.00    +0.234 C 
ATOM     12  N   UNL     1       7.914  -1.956  24.732  0.00  0.00    -0.304 N 
ATOM     13  H   UNL     1       8.341  -1.445  25.501  0.00  0.00    +0.149 HD
ATOM     14  O   UNL     1       6.432  -1.717  23.006  0.00  0.00    -0.274 OA
BRANCH  12  15
ATOM     15  C   UNL     1       7.646  -3.376  24.931  0.00  0.00    +0.149 C 
BRANCH  15  16
ATOM     16  C   UNL     1       8.063  -3.749  26.346  0.00  0.00    +0.237 C 
ATOM     17  O   UNL     1       9.064  -3.311  26.917  0.00  0.00    -0.285 OA
BRANCH  16  18
ATOM     18  C   UNL     1       7.172  -4.756  27.071  0.00  0.00    +0.279 C 
ATOM     19  N   UNL     1       7.700  -6.015  27.167  0.00  0.00    -0.323 N 
ATOM     20  H   UNL     1       7.188  -6.734  27.658  0.00  0.00    +0.145 HD
ATOM     21  H   UNL     1       8.620  -6.210  26.790  0.00  0.00    +0.145 HD
ATOM     22  O   UNL     1       6.078  -4.452  27.517  0.00  0.00    -0.267 OA
ENDBRANCH  16  18
ENDBRANCH  15  16
BRANCH  15  23
ATOM     23  C   UNL     1       8.323  -4.278  23.880  0.00  0.00    +0.034 C 
BRANCH  23  24
ATOM     24  C   UNL     1       7.426  -5.405  23.361  0.00  0.00    -0.009 C 
ATOM     25  C   UNL     1       7.190  -5.441  21.835  0.00  0.00    +0.003 C 
ATOM     26  C   UNL     1       5.695  -5.653  22.080  0.00  0.00    +0.001 C 
ATOM     27  C   UNL     1       5.899  -5.170  23.522  0.00  0.00    +0.003 C 
ENDBRANCH  23  24
ENDBRANCH  15  23
ENDBRANCH  12  15
ENDBRANCH   5  11
BRANCH   7  28
ATOM     28  C   UNL     1       4.958   2.359  25.914  0.00  0.00    +0.166 C 
BRANCH  28  29
ATOM     29  N   UNL     1       3.640   2.558  25.316  0.00  0.00    -0.288 N 
ATOM     30  H   UNL     1       2.805   2.453  25.872  0.00  0.00    +0.151 HD
ATOM     31  C   UNL     1       3.567   3.386  24.233  0.00  0.00    +0.301 C 
ATOM     32  N   UNL     1       2.310   3.491  23.715  0.00  0.00    -0.295 N 
ATOM     33  H   UNL     1       1.755   2.648  23.834  0.00  0.00    +0.151 HD
ATOM     34  O   UNL     1       4.552   3.965  23.789  0.00  0.00    -0.253 OA
BRANCH  32  35
ATOM     35  C   UNL     1       2.057   4.284  22.502  0.00  0.00    +0.028 C 
ATOM     36  C   UNL     1       2.592   5.718  22.678  0.00  0.00    +0.031 C 
ATOM     37  C   UNL     1       0.539   4.375  22.265  0.00  0.00    +0.031 C 
ATOM     38  C   UNL     1       2.693   3.610  21.271  0.00  0.00    +0.031 C 
ENDBRANCH  32  35
ENDBRANCH  28  29
BRANCH  28  39
ATOM     39  C   UNL     1       4.910   2.220  27.471  0.00  0.00    -0.011 C 
ATOM     40  C   UNL     1       5.220   3.603  28.100  0.00  0.00    +0.013 C 
ATOM     41  C   UNL     1       5.987   1.216  27.930  0.00  0.00    +0.013 C 
ATOM     42  C   UNL     1       3.551   1.751  28.023  0.00  0.00    +0.013 C 
ENDBRANCH  28  39
ENDBRANCH   7  28
TORSDOF 10
ENDMDL
MODEL 8
REMARK VINA RESULT:      -5.5      2.533      4.369
REMARK  Name = 
REMARK  18 active torsions:
REMARK  status: ('A' for Active; 'I' for Inactive)
REMARK    1  A    between atoms: C_1  and  C_2
REMARK    2  A    between atoms: C_2  and  C_42
REMARK    3  A    between atoms: C_7  and  C_27
REMARK    4  A    between atoms: C_11  and  C_13
REMARK    5  A    between atoms: C_13  and  C_15
REMARK    6  A    between atoms: C_13  and  N_19
REMARK    7  A    between atoms: C_15  and  C_16
REMARK    8  A    between atoms: C_15  and  C_17
REMARK    9  A    between atoms: C_15  and  C_18
REMARK   10  A    between atoms: N_22  and  C_23
REMARK   11  A    between atoms: C_23  and  C_24
REMARK   12  A    between atoms: C_23  and  C_25
REMARK   13  A    between atoms: C_23  and  C_26
REMARK   14  A    between atoms: N_29  and  C_30
REMARK   15  A    between atoms: C_30  and  C_32
REMARK   16  A    between atoms: C_30  and  C_37
REMARK   17  A    between atoms: C_32  and  C_33
REMARK   18  A    between atoms: C_37  and  C_39
REMARK                            x       y       z     vdW  Elec       q    Type
REMARK                         _______ _______ _______ _____ _____    ______ ____
ROOT
ATOM      1  C   UNL     1       5.981   1.924  29.488  0.00  0.00    +0.011 C 
ATOM      2  C   UNL     1       5.705   1.155  28.209  0.00  0.00    -0.025 C 
ATOM      3  C   UNL     1       4.525   0.239  28.316  0.00  0.00    +0.011 C 
ATOM      4  C   UNL     1       6.025   1.905  26.933  0.00  0.00    +0.030 C 
ATOM      5  C   UNL     1       5.681   1.629  25.461  0.00  0.00    +0.166 C 
ATOM      6  N   UNL     1       6.793   0.726  25.106  0.00  0.00    -0.288 N 
ATOM      7  C   UNL     1       7.203   0.527  23.792  0.00  0.00    +0.237 C 
ATOM      8  O   UNL     1       6.808   1.280  22.894  0.00  0.00    -0.274 OA
ATOM      9  C   UNL     1       7.031  -0.165  26.235  0.00  0.00    +0.113 C 
ATOM     10  C   UNL     1       6.928   0.781  27.391  0.00  0.00    +0.018 C 
ENDROOT
BRANCH   5  11
ATOM     11  C   UNL     1       5.509   2.987  24.720  0.00  0.00    +0.234 C 
ATOM     12  N   UNL     1       6.536   3.892  24.913  0.00  0.00    -0.304 N 
ATOM     13  H   UNL     1       7.432   3.498  25.187  0.00  0.00    +0.149 HD
ATOM     14  O   UNL     1       4.454   3.303  24.171  0.00  0.00    -0.274 OA
BRANCH  12  15
ATOM     15  C   UNL     1       6.545   5.188  24.244  0.00  0.00    +0.149 C 
BRANCH  15  16
ATOM     16  C   UNL     1       7.577   5.144  23.127  0.00  0.00    +0.237 C 
ATOM     17  O   UNL     1       7.305   5.138  21.925  0.00  0.00    -0.285 OA
BRANCH  16  18
ATOM     18  C   UNL     1       9.041   5.080  23.561  0.00  0.00    +0.279 C 
ATOM     19  N   UNL     1       9.820   6.098  23.080  0.00  0.00    -0.323 N 
ATOM     20  H   UNL     1      10.794   6.147  23.343  0.00  0.00    +0.145 HD
ATOM     21  H   UNL     1       9.409   6.823  22.502  0.00  0.00    +0.145 HD
ATOM     22  O   UNL     1       9.469   4.187  24.272  0.00  0.00    -0.267 OA
ENDBRANCH  16  18
ENDBRANCH  15  16
BRANCH  15  23
ATOM     23  C   UNL     1       6.791   6.369  25.204  0.00  0.00    +0.034 C 
BRANCH  23  24
ATOM     24  C   UNL     1       5.511   6.964  25.796  0.00  0.00    -0.009 C 
ATOM     25  C   UNL     1       4.871   6.178  26.963  0.00  0.00    +0.003 C 
ATOM     26  C   UNL     1       3.501   6.330  26.300  0.00  0.00    +0.001 C 
ATOM     27  C   UNL     1       4.213   6.689  24.990  0.00  0.00    +0.003 C 
ENDBRANCH  23  24
ENDBRANCH  15  23
ENDBRANCH  12  15
ENDBRANCH   5  11
BRANCH   7  28
ATOM     28  C   UNL     1       8.187  -0.639  23.449  0.00  0.00    +0.166 C 
BRANCH  28  29
ATOM     29  N   UNL     1       7.398  -1.624  22.712  0.00  0.00    -0.288 N 
ATOM     30  H   UNL     1       7.249  -1.521  21.720  0.00  0.00    +0.151 HD
ATOM     31  C   UNL     1       7.353  -2.891  23.221  0.00  0.00    +0.301 C 
ATOM     32  N   UNL     1       6.570  -3.738  22.493  0.00  0.00    -0.295 N 
ATOM     33  H   UNL     1       5.792  -3.273  22.035  0.00  0.00    +0.151 HD
ATOM     34  O   UNL     1       7.964  -3.207  24.235  0.00  0.00    -0.253 OA
BRANCH  32  35
ATOM     35  C   UNL     1       6.347  -5.123  22.934  0.00  0.00    +0.028 C 
ATOM     36  C   UNL     1       6.395  -5.212  24.471  0.00  0.00    +0.031 C 
ATOM     37  C   UNL     1       7.470  -6.018  22.378  0.00  0.00    +0.031 C 
ATOM     38  C   UNL     1       5.004  -5.655  22.397  0.00  0.00    +0.031 C 
ENDBRANCH  32  35
ENDBRANCH  28  29
BRANCH  28  39
ATOM     39  C   UNL     1       9.512  -0.245  22.719  0.00  0.00    -0.011 C 
ATOM     40  C   UNL     1      10.249   0.819  23.575  0.00  0.00    +0.013 C 
ATOM     41  C   UNL     1       9.178   0.372  21.346  0.00  0.00    +0.013 C 
ATOM     42  C   UNL     1      10.485  -1.417  22.494  0.00  0.00    +0.013 C 
ENDBRANCH  28  39
ENDBRANCH   7  28
TORSDOF 10
ENDMDL
MODEL 9
REMARK VINA RESULT:      -5.3      1.837      2.473
REMARK  Name = 
REMARK  18 active torsions:
REMARK  status: ('A' for Active; 'I' for Inactive)
REMARK    1  A    between atoms: C_1  and  C_2
REMARK    2  A    between atoms: C_2  and  C_42
REMARK    3  A    between atoms: C_7  and  C_27
REMARK    4  A    between atoms: C_11  and  C_13
REMARK    5  A    between atoms: C_13  and  C_15
REMARK    6  A    between atoms: C_13  and  N_19
REMARK    7  A    between atoms: C_15  and  C_16
REMARK    8  A    between atoms: C_15  and  C_17
REMARK    9  A    between atoms: C_15  and  C_18
REMARK   10  A    between atoms: N_22  and  C_23
REMARK   11  A    between atoms: C_23  and  C_24
REMARK   12  A    between atoms: C_23  and  C_25
REMARK   13  A    between atoms: C_23  and  C_26
REMARK   14  A    between atoms: N_29  and  C_30
REMARK   15  A    between atoms: C_30  and  C_32
REMARK   16  A    between atoms: C_30  and  C_37
REMARK   17  A    between atoms: C_32  and  C_33
REMARK   18  A    between atoms: C_37  and  C_39
REMARK                            x       y       z     vdW  Elec       q    Type
REMARK                         _______ _______ _______ _____ _____    ______ ____
ROOT
ATOM      1  C   UNL     1       5.756   1.904  29.661  0.00  0.00    +0.011 C 
ATOM      2  C   UNL     1       5.257   1.031  28.525  0.00  0.00    -0.025 C 
ATOM      3  C   UNL     1       3.824   0.625  28.680  0.00  0.00    +0.011 C 
ATOM      4  C   UNL     1       5.861   1.340  27.171  0.00  0.00    +0.030 C 
ATOM      5  C   UNL     1       5.482   0.900  25.748  0.00  0.00    +0.166 C 
ATOM      6  N   UNL     1       6.203  -0.385  25.679  0.00  0.00    -0.288 N 
ATOM      7  C   UNL     1       6.550  -0.983  24.473  0.00  0.00    +0.237 C 
ATOM      8  O   UNL     1       6.478  -0.345  23.416  0.00  0.00    -0.274 OA
ATOM      9  C   UNL     1       6.073  -1.048  26.971  0.00  0.00    +0.113 C 
ATOM     10  C   UNL     1       6.286   0.094  27.916  0.00  0.00    +0.018 C 
ENDROOT
BRANCH   5  11
ATOM     11  C   UNL     1       5.831   2.047  24.756  0.00  0.00    +0.234 C 
ATOM     12  N   UNL     1       7.134   2.504  24.827  0.00  0.00    -0.304 N 
ATOM     13  H   UNL     1       7.813   1.856  25.216  0.00  0.00    +0.149 HD
ATOM     14  O   UNL     1       4.967   2.632  24.104  0.00  0.00    -0.274 OA
BRANCH  12  15
ATOM     15  C   UNL     1       7.628   3.540  23.925  0.00  0.00    +0.149 C 
BRANCH  15  16
ATOM     16  C   UNL     1       8.565   2.892  22.918  0.00  0.00    +0.237 C 
ATOM     17  O   UNL     1       8.236   2.541  21.783  0.00  0.00    -0.285 OA
BRANCH  16  18
ATOM     18  C   UNL     1      10.000   2.651  23.385  0.00  0.00    +0.279 C 
ATOM     19  N   UNL     1      10.947   3.355  22.693  0.00  0.00    -0.323 N 
ATOM     20  H   UNL     1      11.919   3.276  22.957  0.00  0.00    +0.145 HD
ATOM     21  H   UNL     1      10.670   3.987  21.951  0.00  0.00    +0.145 HD
ATOM     22  O   UNL     1      10.266   1.886  24.298  0.00  0.00    -0.267 OA
ENDBRANCH  16  18
ENDBRANCH  15  16
BRANCH  15  23
ATOM     23  C   UNL     1       8.302   4.716  24.659  0.00  0.00    +0.034 C 
BRANCH  23  24
ATOM     24  C   UNL     1       7.631   5.087  25.984  0.00  0.00    -0.009 C 
ATOM     25  C   UNL     1       6.261   5.795  25.879  0.00  0.00    +0.003 C 
ATOM     26  C   UNL     1       6.721   6.816  26.922  0.00  0.00    +0.001 C 
ATOM     27  C   UNL     1       8.168   6.376  26.665  0.00  0.00    +0.003 C 
ENDBRANCH  23  24
ENDBRANCH  15  23
ENDBRANCH  12  15
ENDBRANCH   5  11
BRANCH   7  28
ATOM     28  C   UNL     1       7.057  -2.463  24.451  0.00  0.00    +0.166 C 
BRANCH  28  29
ATOM     29  N   UNL     1       6.078  -3.210  23.665  0.00  0.00    -0.288 N 
ATOM     30  H   UNL     1       6.221  -3.358  22.677  0.00  0.00    +0.151 HD
ATOM     31  C   UNL     1       5.318  -4.130  24.329  0.00  0.00    +0.301 C 
ATOM     32  N   UNL     1       4.408  -4.758  23.531  0.00  0.00    -0.295 N 
ATOM     33  H   UNL     1       4.073  -4.176  22.769  0.00  0.00    +0.151 HD
ATOM     34  O   UNL     1       5.460  -4.348  25.527  0.00  0.00    -0.253 OA
BRANCH  32  35
ATOM     35  C   UNL     1       3.456  -5.728  24.092  0.00  0.00    +0.028 C 
ATOM     36  C   UNL     1       2.615  -5.073  25.204  0.00  0.00    +0.031 C 
ATOM     37  C   UNL     1       4.236  -6.896  24.722  0.00  0.00    +0.031 C 
ATOM     38  C   UNL     1       2.549  -6.301  22.987  0.00  0.00    +0.031 C 
ENDBRANCH  32  35
ENDBRANCH  28  29
BRANCH  28  39
ATOM     39  C   UNL     1       8.528  -2.692  23.975  0.00  0.00    -0.011 C 
ATOM     40  C   UNL     1       9.401  -1.514  24.485  0.00  0.00    +0.013 C 
ATOM     41  C   UNL     1       8.573  -2.707  22.434  0.00  0.00    +0.013 C 
ATOM     42  C   UNL     1       9.164  -3.997  24.487  0.00  0.00    +0.013 C 
ENDBRANCH  28  39
ENDBRANCH   7  28
TORSDOF 10
ENDMDL
