MODEL 1
REMARK VINA RESULT:      -7.1      0.000      0.000
REMARK  Name = 
REMARK  18 active torsions:
REMARK  status: ('A' for Active; 'I' for Inactive)
REMARK    1  A    between atoms: C_1  and  C_2
REMARK    2  A    between atoms: C_2  and  C_3
REMARK    3  A    between atoms: C_3  and  C_4
REMARK    4  A    between atoms: C_4  and  C_5
REMARK    5  A    between atoms: C_4  and  N_13
REMARK    6  A    between atoms: C_5  and  C_7
REMARK    7  A    between atoms: N_9  and  C_10
REMARK    8  A    between atoms: C_14  and  C_16
REMARK    9  A    between atoms: C_24  and  C_26
REMARK   10  A    between atoms: C_26  and  C_27
REMARK   11  A    between atoms: C_26  and  N_31
REMARK   12  A    between atoms: C_27  and  C_28
REMARK   13  A    between atoms: C_27  and  C_29
REMARK   14  A    between atoms: C_27  and  C_30
REMARK   15  A    between atoms: C_32  and  C_34
REMARK   16  A    between atoms: C_34  and  C_35
REMARK   17  A    between atoms: C_34  and  N_41
REMARK   18  A    between atoms: C_42  and  C_44
REMARK                            x       y       z     vdW  Elec       q    Type
REMARK                         _______ _______ _______ _____ _____    ______ ____
ROOT
ATOM      1  C   UNL     1       6.350   2.616  26.957  0.00  0.00    +0.165 C 
ATOM      2  N   UNL     1       6.341   1.168  27.202  0.00  0.00    -0.288 N 
ATOM      3  C   UNL     1       5.590   0.264  26.469  0.00  0.00    +0.237 C 
ATOM      4  O   UNL     1       5.065   0.631  25.416  0.00  0.00    -0.274 OA
ATOM      5  C   UNL     1       7.019   0.846  28.436  0.00  0.00    +0.112 C 
ATOM      6  C   UNL     1       7.114   2.125  29.241  0.00  0.00    +0.012 C 
ATOM      7  C   UNL     1       6.020   2.221  30.313  0.00  0.00    +0.005 C 
ATOM      8  C   UNL     1       4.981   3.185  29.765  0.00  0.00    +0.001 C 
ATOM      9  C   UNL     1       5.803   4.157  28.945  0.00  0.00    +0.006 C 
ATOM     10  C   UNL     1       6.851   3.276  28.263  0.00  0.00    +0.023 C 
ENDROOT
BRANCH   1  13
ATOM     11  N   UNL     1       6.814   4.375  25.252  0.00  0.00    -0.304 N 
ATOM     12  H   UNL     1       5.907   4.731  25.589  0.00  0.00    +0.149 HD
ATOM     13  C   UNL     1       7.262   3.245  25.863  0.00  0.00    +0.234 C 
ATOM     14  O   UNL     1       8.316   2.677  25.512  0.00  0.00    -0.274 OA
BRANCH  11  15
ATOM     15  C   UNL     1       7.175   4.755  23.871  0.00  0.00    +0.149 C 
BRANCH  15  16
ATOM     16  C   UNL     1       8.052   6.064  23.847  0.00  0.00    +0.237 C 
ATOM     17  O   UNL     1       7.716   7.088  23.246  0.00  0.00    -0.285 OA
BRANCH  16  18
ATOM     18  C   UNL     1       9.519   6.043  24.385  0.00  0.00    +0.282 C 
ATOM     19  N   UNL     1      10.528   5.938  23.401  0.00  0.00    -0.306 N 
ATOM     20  H   UNL     1      10.211   6.266  22.500  0.00  0.00    +0.149 HD
ATOM     21  O   UNL     1       9.710   6.214  25.570  0.00  0.00    -0.267 OA
BRANCH  19  22
ATOM     22  C   UNL     1      11.980   5.855  23.575  0.00  0.00    +0.073 C 
ATOM     23  C   UNL     1      12.843   5.687  22.321  0.00  0.00    +0.024 C 
ATOM     24  C   UNL     1      12.926   4.680  23.411  0.00  0.00    +0.024 C 
ENDBRANCH  19  22
ENDBRANCH  16  18
ENDBRANCH  15  16
BRANCH  15  25
ATOM     25  C   UNL     1       5.967   4.752  22.864  0.00  0.00    +0.030 C 
BRANCH  25  27
ATOM     26  C   UNL     1       6.272   2.234  22.324  0.00  0.00    +0.004 C 
ATOM     27  C   UNL     1       5.310   3.394  22.538  0.00  0.00    -0.001 C 
ENDBRANCH  25  27
ENDBRANCH  15  25
ENDBRANCH  11  15
ENDBRANCH   1  13
BRANCH   3  28
ATOM     28  C   UNL     1       5.495  -1.244  26.966  0.00  0.00    +0.164 C 
BRANCH  28  29
ATOM     29  N   UNL     1       6.139  -2.149  26.005  0.00  0.00    -0.302 N 
ATOM     30  H   UNL     1       5.876  -1.948  25.063  0.00  0.00    +0.150 HD
ATOM     31  C   UNL     1       6.784  -3.345  26.218  0.00  0.00    +0.234 C 
ATOM     32  O   UNL     1       6.782  -3.918  27.314  0.00  0.00    -0.274 OA
BRANCH  31  33
ATOM     33  C   UNL     1       7.510  -3.971  24.928  0.00  0.00    +0.162 C 
BRANCH  33  34
ATOM     34  C   UNL     1       6.807  -5.247  24.352  0.00  0.00    +0.018 C 
ATOM     35  C   UNL     1       7.487  -5.794  23.083  0.00  0.00    +0.006 C 
ATOM     36  C   UNL     1       7.097  -5.104  21.772  0.00  0.00    +0.000 C 
ATOM     37  C   UNL     1       5.637  -4.663  21.634  0.00  0.00    +0.000 C 
ATOM     38  C   UNL     1       4.909  -4.292  22.915  0.00  0.00    +0.000 C 
ATOM     39  C   UNL     1       5.287  -5.151  24.106  0.00  0.00    +0.006 C 
ENDBRANCH  33  34
BRANCH  33  40
ATOM     40  N   UNL     1       7.978  -3.060  23.856  0.00  0.00    -0.298 N 
ATOM     41  H   UNL     1       7.276  -2.445  23.474  0.00  0.00    +0.150 HD
ATOM     42  C   UNL     1       9.324  -2.707  23.763  0.00  0.00    +0.264 C 
ATOM     43  O   UNL     1      10.165  -3.410  24.308  0.00  0.00    -0.268 OA
BRANCH  42  44
ATOM     44  C   UNL     1       9.771  -1.444  23.019  0.00  0.00    +0.143 A 
ATOM     45  C   UNL     1      10.386  -0.342  23.594  0.00  0.00    +0.143 A 
ATOM     46  N   UNL     1      10.405   0.890  22.998  0.00  0.00    -0.259 NA
ATOM     47  C   UNL     1       9.781   0.977  21.805  0.00  0.00    +0.130 A 
ATOM     48  C   UNL     1       9.311  -0.138  21.160  0.00  0.00    +0.131 A 
ATOM     49  N   UNL     1       9.325  -1.362  21.735  0.00  0.00    -0.247 NA
ENDBRANCH  42  44
ENDBRANCH  33  40
ENDBRANCH  31  33
ENDBRANCH  28  29
BRANCH  28  50
ATOM     50  C   UNL     1       3.993  -1.741  27.196  0.00  0.00    -0.011 C 
ATOM     51  C   UNL     1       3.937  -2.718  28.383  0.00  0.00    +0.013 C 
ATOM     52  C   UNL     1       3.513  -2.512  25.935  0.00  0.00    +0.013 C 
ATOM     53  C   UNL     1       2.965  -0.609  27.440  0.00  0.00    +0.013 C 
ENDBRANCH  28  50
ENDBRANCH   3  28
TORSDOF 14
ENDMDL
MODEL 2
REMARK VINA RESULT:      -7.1      2.261      5.904
REMARK  Name = 
REMARK  18 active torsions:
REMARK  status: ('A' for Active; 'I' for Inactive)
REMARK    1  A    between atoms: C_1  and  C_2
REMARK    2  A    between atoms: C_2  and  C_3
REMARK    3  A    between atoms: C_3  and  C_4
REMARK    4  A    between atoms: C_4  and  C_5
REMARK    5  A    between atoms: C_4  and  N_13
REMARK    6  A    between atoms: C_5  and  C_7
REMARK    7  A    between atoms: N_9  and  C_10
REMARK    8  A    between atoms: C_14  and  C_16
REMARK    9  A    between atoms: C_24  and  C_26
REMARK   10  A    between atoms: C_26  and  C_27
REMARK   11  A    between atoms: C_26  and  N_31
REMARK   12  A    between atoms: C_27  and  C_28
REMARK   13  A    between atoms: C_27  and  C_29
REMARK   14  A    between atoms: C_27  and  C_30
REMARK   15  A    between atoms: C_32  and  C_34
REMARK   16  A    between atoms: C_34  and  C_35
REMARK   17  A    between atoms: C_34  and  N_41
REMARK   18  A    between atoms: C_42  and  C_44
REMARK                            x       y       z     vdW  Elec       q    Type
REMARK                         _______ _______ _______ _____ _____    ______ ____
ROOT
ATOM      1  C   UNL     1       6.597   3.435  23.867  0.00  0.00    +0.165 C 
ATOM      2  N   UNL     1       6.249   2.754  25.121  0.00  0.00    -0.288 N 
ATOM      3  C   UNL     1       5.052   2.092  25.336  0.00  0.00    +0.237 C 
ATOM      4  O   UNL     1       4.313   1.858  24.378  0.00  0.00    -0.274 OA
ATOM      5  C   UNL     1       7.203   3.061  26.161  0.00  0.00    +0.112 C 
ATOM      6  C   UNL     1       7.960   4.298  25.722  0.00  0.00    +0.012 C 
ATOM      7  C   UNL     1       7.414   5.576  26.373  0.00  0.00    +0.005 C 
ATOM      8  C   UNL     1       6.582   6.266  25.304  0.00  0.00    +0.001 C 
ATOM      9  C   UNL     1       7.296   5.907  24.018  0.00  0.00    +0.006 C 
ATOM     10  C   UNL     1       7.711   4.449  24.217  0.00  0.00    +0.023 C 
ENDROOT
BRANCH   1  13
ATOM     11  N   UNL     1       7.781   1.456  22.919  0.00  0.00    -0.304 N 
ATOM     12  H   UNL     1       7.766   1.161  23.908  0.00  0.00    +0.149 HD
ATOM     13  C   UNL     1       7.188   2.652  22.658  0.00  0.00    +0.234 C 
ATOM     14  O   UNL     1       7.187   3.154  21.516  0.00  0.00    -0.274 OA
BRANCH  11  15
ATOM     15  C   UNL     1       8.871   0.889  22.101  0.00  0.00    +0.149 C 
BRANCH  15  16
ATOM     16  C   UNL     1       9.077  -0.645  22.403  0.00  0.00    +0.237 C 
ATOM     17  O   UNL     1       9.171  -1.498  21.518  0.00  0.00    -0.285 OA
BRANCH  16  18
ATOM     18  C   UNL     1       8.923  -1.192  23.859  0.00  0.00    +0.282 C 
ATOM     19  N   UNL     1       9.056  -2.591  24.002  0.00  0.00    -0.306 N 
ATOM     20  H   UNL     1       9.592  -2.997  23.250  0.00  0.00    +0.149 HD
ATOM     21  O   UNL     1       8.801  -0.401  24.771  0.00  0.00    -0.267 OA
BRANCH  19  22
ATOM     22  C   UNL     1       8.929  -3.409  25.210  0.00  0.00    +0.073 C 
ATOM     23  C   UNL     1       9.642  -4.764  25.235  0.00  0.00    +0.024 C 
ATOM     24  C   UNL     1       8.173  -4.704  25.448  0.00  0.00    +0.024 C 
ENDBRANCH  19  22
ENDBRANCH  16  18
ENDBRANCH  15  16
BRANCH  15  25
ATOM     25  C   UNL     1      10.191   1.744  22.101  0.00  0.00    +0.030 C 
BRANCH  25  27
ATOM     26  C   UNL     1      11.258   3.744  23.361  0.00  0.00    +0.004 C 
ATOM     27  C   UNL     1      10.651   2.351  23.444  0.00  0.00    -0.001 C 
ENDBRANCH  25  27
ENDBRANCH  15  25
ENDBRANCH  11  15
ENDBRANCH   1  13
BRANCH   3  28
ATOM     28  C   UNL     1       4.703   1.582  26.802  0.00  0.00    +0.164 C 
BRANCH  28  29
ATOM     29  N   UNL     1       4.258   0.182  26.772  0.00  0.00    -0.302 N 
ATOM     30  H   UNL     1       3.289   0.099  26.545  0.00  0.00    +0.150 HD
ATOM     31  C   UNL     1       4.870  -0.946  27.266  0.00  0.00    +0.234 C 
ATOM     32  O   UNL     1       5.885  -0.900  27.971  0.00  0.00    -0.274 OA
BRANCH  31  33
ATOM     33  C   UNL     1       4.148  -2.333  26.896  0.00  0.00    +0.162 C 
BRANCH  33  34
ATOM     34  C   UNL     1       2.591  -2.229  26.753  0.00  0.00    +0.018 C 
ATOM     35  C   UNL     1       1.892  -1.782  28.049  0.00  0.00    +0.006 C 
ATOM     36  C   UNL     1       1.627  -2.889  29.075  0.00  0.00    +0.000 C 
ATOM     37  C   UNL     1       1.237  -4.262  28.521  0.00  0.00    +0.000 C 
ATOM     38  C   UNL     1       1.789  -4.631  27.154  0.00  0.00    +0.000 C 
ATOM     39  C   UNL     1       1.862  -3.466  26.187  0.00  0.00    +0.006 C 
ENDBRANCH  33  34
BRANCH  33  40
ATOM     40  N   UNL     1       4.748  -3.198  25.852  0.00  0.00    -0.298 N 
ATOM     41  H   UNL     1       4.535  -4.181  25.929  0.00  0.00    +0.150 HD
ATOM     42  C   UNL     1       5.107  -2.669  24.613  0.00  0.00    +0.264 C 
ATOM     43  O   UNL     1       5.276  -1.461  24.504  0.00  0.00    -0.268 OA
BRANCH  42  44
ATOM     44  C   UNL     1       5.266  -3.561  23.376  0.00  0.00    +0.143 A 
ATOM     45  C   UNL     1       4.522  -4.697  23.098  0.00  0.00    +0.143 A 
ATOM     46  N   UNL     1       4.944  -5.663  22.225  0.00  0.00    -0.259 NA
ATOM     47  C   UNL     1       6.142  -5.449  21.644  0.00  0.00    +0.130 A 
ATOM     48  C   UNL     1       6.808  -4.260  21.792  0.00  0.00    +0.131 A 
ATOM     49  N   UNL     1       6.372  -3.291  22.629  0.00  0.00    -0.247 NA
ENDBRANCH  42  44
ENDBRANCH  33  40
ENDBRANCH  31  33
ENDBRANCH  28  29
BRANCH  28  50
ATOM     50  C   UNL     1       3.573   2.454  27.522  0.00  0.00    -0.011 C 
ATOM     51  C   UNL     1       3.633   2.239  29.044  0.00  0.00    +0.013 C 
ATOM     52  C   UNL     1       2.175   1.976  27.040  0.00  0.00    +0.013 C 
ATOM     53  C   UNL     1       3.645   3.974  27.236  0.00  0.00    +0.013 C 
ENDBRANCH  28  50
ENDBRANCH   3  28
TORSDOF 14
ENDMDL
MODEL 3
REMARK VINA RESULT:      -7.0      2.921      8.916
REMARK  Name = 
REMARK  18 active torsions:
REMARK  status: ('A' for Active; 'I' for Inactive)
REMARK    1  A    between atoms: C_1  and  C_2
REMARK    2  A    between atoms: C_2  and  C_3
REMARK    3  A    between atoms: C_3  and  C_4
REMARK    4  A    between atoms: C_4  and  C_5
REMARK    5  A    between atoms: C_4  and  N_13
REMARK    6  A    between atoms: C_5  and  C_7
REMARK    7  A    between atoms: N_9  and  C_10
REMARK    8  A    between atoms: C_14  and  C_16
REMARK    9  A    between atoms: C_24  and  C_26
REMARK   10  A    between atoms: C_26  and  C_27
REMARK   11  A    between atoms: C_26  and  N_31
REMARK   12  A    between atoms: C_27  and  C_28
REMARK   13  A    between atoms: C_27  and  C_29
REMARK   14  A    between atoms: C_27  and  C_30
REMARK   15  A    between atoms: C_32  and  C_34
REMARK   16  A    between atoms: C_34  and  C_35
REMARK   17  A    between atoms: C_34  and  N_41
REMARK   18  A    between atoms: C_42  and  C_44
REMARK                            x       y       z     vdW  Elec       q    Type
REMARK                         _______ _______ _______ _____ _____    ______ ____
ROOT
ATOM      1  C   UNL     1       8.472  -0.800  23.247  0.00  0.00    +0.165 C 
ATOM      2  N   UNL     1       8.019  -0.086  24.447  0.00  0.00    -0.288 N 
ATOM      3  C   UNL     1       6.699  -0.030  24.863  0.00  0.00    +0.237 C 
ATOM      4  O   UNL     1       5.873  -0.784  24.346  0.00  0.00    -0.274 OA
ATOM      5  C   UNL     1       9.076   0.731  24.996  0.00  0.00    +0.112 C 
ATOM      6  C   UNL     1      10.120   0.899  23.911  0.00  0.00    +0.012 C 
ATOM      7  C   UNL     1       9.985   2.239  23.175  0.00  0.00    +0.005 C 
ATOM      8  C   UNL     1       9.318   1.921  21.847  0.00  0.00    +0.001 C 
ATOM      9  C   UNL     1       9.834   0.535  21.519  0.00  0.00    +0.006 C 
ATOM     10  C   UNL     1       9.840  -0.187  22.866  0.00  0.00    +0.023 C 
ENDROOT
BRANCH   1  13
ATOM     11  N   UNL     1       7.691  -3.165  23.154  0.00  0.00    -0.304 N 
ATOM     12  H   UNL     1       6.777  -2.702  23.031  0.00  0.00    +0.149 HD
ATOM     13  C   UNL     1       8.757  -2.330  23.275  0.00  0.00    +0.234 C 
ATOM     14  O   UNL     1       9.910  -2.757  23.486  0.00  0.00    -0.274 OA
BRANCH  11  15
ATOM     15  C   UNL     1       7.645  -4.522  23.737  0.00  0.00    +0.149 C 
BRANCH  15  16
ATOM     16  C   UNL     1       6.767  -5.494  22.861  0.00  0.00    +0.237 C 
ATOM     17  O   UNL     1       7.250  -6.369  22.138  0.00  0.00    -0.285 OA
BRANCH  16  18
ATOM     18  C   UNL     1       5.238  -5.229  22.676  0.00  0.00    +0.282 C 
ATOM     19  N   UNL     1       4.382  -6.263  23.115  0.00  0.00    -0.306 N 
ATOM     20  H   UNL     1       4.822  -6.845  23.813  0.00  0.00    +0.149 HD
ATOM     21  O   UNL     1       4.877  -4.143  22.271  0.00  0.00    -0.267 OA
BRANCH  19  22
ATOM     22  C   UNL     1       2.921  -6.341  23.049  0.00  0.00    +0.073 C 
ATOM     23  C   UNL     1       2.120  -5.783  24.229  0.00  0.00    +0.024 C 
ATOM     24  C   UNL     1       1.944  -7.203  23.828  0.00  0.00    +0.024 C 
ENDBRANCH  19  22
ENDBRANCH  16  18
ENDBRANCH  15  16
BRANCH  15  25
ATOM     25  C   UNL     1       7.325  -4.552  25.277  0.00  0.00    +0.030 C 
BRANCH  25  27
ATOM     26  C   UNL     1       9.793  -5.284  25.586  0.00  0.00    +0.004 C 
ATOM     27  C   UNL     1       8.489  -4.859  26.244  0.00  0.00    -0.001 C 
ENDBRANCH  25  27
ENDBRANCH  15  25
ENDBRANCH  11  15
ENDBRANCH   1  13
BRANCH   3  28
ATOM     28  C   UNL     1       6.303   0.950  26.051  0.00  0.00    +0.164 C 
BRANCH  28  29
ATOM     29  N   UNL     1       5.261   0.350  26.894  0.00  0.00    -0.302 N 
ATOM     30  H   UNL     1       4.423   0.165  26.383  0.00  0.00    +0.150 HD
ATOM     31  C   UNL     1       5.171   0.277  28.265  0.00  0.00    +0.234 C 
ATOM     32  O   UNL     1       5.949   0.875  29.017  0.00  0.00    -0.274 OA
BRANCH  31  33
ATOM     33  C   UNL     1       3.953  -0.609  28.824  0.00  0.00    +0.162 C 
BRANCH  33  34
ATOM     34  C   UNL     1       2.587  -0.355  28.098  0.00  0.00    +0.018 C 
ATOM     35  C   UNL     1       2.088   1.095  28.235  0.00  0.00    +0.006 C 
ATOM     36  C   UNL     1       1.348   1.422  29.536  0.00  0.00    +0.000 C 
ATOM     37  C   UNL     1       0.443   0.326  30.107  0.00  0.00    +0.000 C 
ATOM     38  C   UNL     1       0.843  -1.112  29.819  0.00  0.00    +0.000 C 
ATOM     39  C   UNL     1       1.431  -1.320  28.438  0.00  0.00    +0.006 C 
ENDBRANCH  33  34
BRANCH  33  40
ATOM     40  N   UNL     1       4.180  -2.048  29.099  0.00  0.00    -0.298 N 
ATOM     41  H   UNL     1       3.733  -2.405  29.930  0.00  0.00    +0.150 HD
ATOM     42  C   UNL     1       4.510  -2.925  28.066  0.00  0.00    +0.264 C 
ATOM     43  O   UNL     1       4.968  -2.474  27.024  0.00  0.00    -0.268 OA
BRANCH  42  44
ATOM     44  C   UNL     1       4.284  -4.435  28.194  0.00  0.00    +0.143 A 
ATOM     45  C   UNL     1       4.246  -5.149  29.381  0.00  0.00    +0.143 A 
ATOM     46  N   UNL     1       4.440  -6.503  29.438  0.00  0.00    -0.259 NA
ATOM     47  C   UNL     1       4.677  -7.113  28.258  0.00  0.00    +0.130 A 
ATOM     48  C   UNL     1       4.560  -6.443  27.068  0.00  0.00    +0.131 A 
ATOM     49  N   UNL     1       4.333  -5.111  27.012  0.00  0.00    -0.247 NA
ENDBRANCH  42  44
ENDBRANCH  33  40
ENDBRANCH  31  33
ENDBRANCH  28  29
BRANCH  28  50
ATOM     50  C   UNL     1       5.785   2.377  25.549  0.00  0.00    -0.011 C 
ATOM     51  C   UNL     1       6.288   3.482  26.493  0.00  0.00    +0.013 C 
ATOM     52  C   UNL     1       4.232   2.399  25.593  0.00  0.00    +0.013 C 
ATOM     53  C   UNL     1       6.192   2.742  24.101  0.00  0.00    +0.013 C 
ENDBRANCH  28  50
ENDBRANCH   3  28
TORSDOF 14
ENDMDL
MODEL 4
REMARK VINA RESULT:      -7.0      2.646      7.762
REMARK  Name = 
REMARK  18 active torsions:
REMARK  status: ('A' for Active; 'I' for Inactive)
REMARK    1  A    between atoms: C_1  and  C_2
REMARK    2  A    between atoms: C_2  and  C_3
REMARK    3  A    between atoms: C_3  and  C_4
REMARK    4  A    between atoms: C_4  and  C_5
REMARK    5  A    between atoms: C_4  and  N_13
REMARK    6  A    between atoms: C_5  and  C_7
REMARK    7  A    between atoms: N_9  and  C_10
REMARK    8  A    between atoms: C_14  and  C_16
REMARK    9  A    between atoms: C_24  and  C_26
REMARK   10  A    between atoms: C_26  and  C_27
REMARK   11  A    between atoms: C_26  and  N_31
REMARK   12  A    between atoms: C_27  and  C_28
REMARK   13  A    between atoms: C_27  and  C_29
REMARK   14  A    between atoms: C_27  and  C_30
REMARK   15  A    between atoms: C_32  and  C_34
REMARK   16  A    between atoms: C_34  and  C_35
REMARK   17  A    between atoms: C_34  and  N_41
REMARK   18  A    between atoms: C_42  and  C_44
REMARK                            x       y       z     vdW  Elec       q    Type
REMARK                         _______ _______ _______ _____ _____    ______ ____
ROOT
ATOM      1  C   UNL     1       3.655  -1.523  28.870  0.00  0.00    +0.165 C 
ATOM      2  N   UNL     1       3.828  -0.476  27.855  0.00  0.00    -0.288 N 
ATOM      3  C   UNL     1       4.997   0.246  27.679  0.00  0.00    +0.237 C 
ATOM      4  O   UNL     1       6.028  -0.133  28.238  0.00  0.00    -0.274 OA
ATOM      5  C   UNL     1       2.568  -0.141  27.233  0.00  0.00    +0.112 C 
ATOM      6  C   UNL     1       1.471  -0.664  28.137  0.00  0.00    +0.012 C 
ATOM      7  C   UNL     1       0.884   0.432  29.036  0.00  0.00    +0.005 C 
ATOM      8  C   UNL     1       1.491   0.214  30.412  0.00  0.00    +0.001 C 
ATOM      9  C   UNL     1       1.664  -1.289  30.484  0.00  0.00    +0.006 C 
ATOM     10  C   UNL     1       2.130  -1.677  29.081  0.00  0.00    +0.023 C 
ENDROOT
BRANCH   1  13
ATOM     11  N   UNL     1       3.966  -3.485  27.363  0.00  0.00    -0.304 N 
ATOM     12  H   UNL     1       3.551  -2.835  26.677  0.00  0.00    +0.149 HD
ATOM     13  C   UNL     1       4.133  -2.983  28.616  0.00  0.00    +0.234 C 
ATOM     14  O   UNL     1       4.570  -3.679  29.554  0.00  0.00    -0.274 OA
BRANCH  11  15
ATOM     15  C   UNL     1       3.776  -4.921  27.077  0.00  0.00    +0.149 C 
BRANCH  15  16
ATOM     16  C   UNL     1       4.931  -5.481  26.162  0.00  0.00    +0.237 C 
ATOM     17  O   UNL     1       5.750  -6.319  26.550  0.00  0.00    -0.285 OA
BRANCH  16  18
ATOM     18  C   UNL     1       5.246  -4.811  24.786  0.00  0.00    +0.282 C 
ATOM     19  N   UNL     1       6.133  -5.524  23.949  0.00  0.00    -0.306 N 
ATOM     20  H   UNL     1       6.146  -6.510  24.166  0.00  0.00    +0.149 HD
ATOM     21  O   UNL     1       4.653  -3.798  24.480  0.00  0.00    -0.267 OA
BRANCH  19  22
ATOM     22  C   UNL     1       6.653  -5.155  22.631  0.00  0.00    +0.073 C 
ATOM     23  C   UNL     1       5.954  -5.734  21.398  0.00  0.00    +0.024 C 
ATOM     24  C   UNL     1       7.405  -5.980  21.602  0.00  0.00    +0.024 C 
ENDBRANCH  19  22
ENDBRANCH  16  18
ENDBRANCH  15  16
BRANCH  15  25
ATOM     25  C   UNL     1       2.323  -5.300  26.610  0.00  0.00    +0.030 C 
BRANCH  25  27
ATOM     26  C   UNL     1       1.054  -4.326  24.570  0.00  0.00    +0.004 C 
ATOM     27  C   UNL     1       1.439  -4.173  26.034  0.00  0.00    -0.001 C 
ENDBRANCH  25  27
ENDBRANCH  15  25
ENDBRANCH  11  15
ENDBRANCH   1  13
BRANCH   3  28
ATOM     28  C   UNL     1       4.993   1.497  26.697  0.00  0.00    +0.164 C 
BRANCH  28  29
ATOM     29  N   UNL     1       5.877   1.258  25.549  0.00  0.00    -0.302 N 
ATOM     30  H   UNL     1       6.821   1.090  25.828  0.00  0.00    +0.150 HD
ATOM     31  C   UNL     1       5.670   1.506  24.211  0.00  0.00    +0.234 C 
ATOM     32  O   UNL     1       4.691   2.135  23.794  0.00  0.00    -0.274 OA
BRANCH  31  33
ATOM     33  C   UNL     1       6.815   0.955  23.228  0.00  0.00    +0.162 C 
BRANCH  33  34
ATOM     34  C   UNL     1       7.454   2.051  22.309  0.00  0.00    +0.018 C 
ATOM     35  C   UNL     1       8.623   1.522  21.457  0.00  0.00    +0.006 C 
ATOM     36  C   UNL     1       9.981   1.456  22.162  0.00  0.00    +0.000 C 
ATOM     37  C   UNL     1      10.302   2.588  23.144  0.00  0.00    +0.000 C 
ATOM     38  C   UNL     1       9.125   3.232  23.856  0.00  0.00    +0.000 C 
ATOM     39  C   UNL     1       7.885   3.365  22.993  0.00  0.00    +0.006 C 
ENDBRANCH  33  34
BRANCH  33  40
ATOM     40  N   UNL     1       7.828   0.014  23.763  0.00  0.00    -0.298 N 
ATOM     41  H   UNL     1       8.400   0.375  24.511  0.00  0.00    +0.150 HD
ATOM     42  C   UNL     1       7.656  -1.363  23.634  0.00  0.00    +0.264 C 
ATOM     43  O   UNL     1       6.888  -1.792  22.782  0.00  0.00    -0.268 OA
BRANCH  42  44
ATOM     44  C   UNL     1       8.382  -2.352  24.553  0.00  0.00    +0.143 A 
ATOM     45  C   UNL     1       9.351  -3.261  24.159  0.00  0.00    +0.143 A 
ATOM     46  N   UNL     1       9.676  -4.365  24.899  0.00  0.00    -0.259 NA
ATOM     47  C   UNL     1       8.991  -4.525  26.050  0.00  0.00    +0.130 A 
ATOM     48  C   UNL     1       8.148  -3.552  26.523  0.00  0.00    +0.131 A 
ATOM     49  N   UNL     1       7.854  -2.443  25.806  0.00  0.00    -0.247 NA
ENDBRANCH  42  44
ENDBRANCH  33  40
ENDBRANCH  31  33
ENDBRANCH  28  29
BRANCH  28  50
ATOM     50  C   UNL     1       5.443   2.858  27.404  0.00  0.00    -0.011 C 
ATOM     51  C   UNL     1       4.759   4.056  26.724  0.00  0.00    +0.013 C 
ATOM     52  C   UNL     1       6.976   3.039  27.233  0.00  0.00    +0.013 C 
ATOM     53  C   UNL     1       5.156   2.925  28.925  0.00  0.00    +0.013 C 
ENDBRANCH  28  50
ENDBRANCH   3  28
TORSDOF 14
ENDMDL
MODEL 5
REMARK VINA RESULT:      -6.8      2.936      6.675
REMARK  Name = 
REMARK  18 active torsions:
REMARK  status: ('A' for Active; 'I' for Inactive)
REMARK    1  A    between atoms: C_1  and  C_2
REMARK    2  A    between atoms: C_2  and  C_3
REMARK    3  A    between atoms: C_3  and  C_4
REMARK    4  A    between atoms: C_4  and  C_5
REMARK    5  A    between atoms: C_4  and  N_13
REMARK    6  A    between atoms: C_5  and  C_7
REMARK    7  A    between atoms: N_9  and  C_10
REMARK    8  A    between atoms: C_14  and  C_16
REMARK    9  A    between atoms: C_24  and  C_26
REMARK   10  A    between atoms: C_26  and  C_27
REMARK   11  A    between atoms: C_26  and  N_31
REMARK   12  A    between atoms: C_27  and  C_28
REMARK   13  A    between atoms: C_27  and  C_29
REMARK   14  A    between atoms: C_27  and  C_30
REMARK   15  A    between atoms: C_32  and  C_34
REMARK   16  A    between atoms: C_34  and  C_35
REMARK   17  A    between atoms: C_34  and  N_41
REMARK   18  A    between atoms: C_42  and  C_44
REMARK                            x       y       z     vdW  Elec       q    Type
REMARK                         _______ _______ _______ _____ _____    ______ ____
ROOT
ATOM      1  C   UNL     1       7.499   1.293  24.567  0.00  0.00    +0.165 C 
ATOM      2  N   UNL     1       7.222  -0.053  24.047  0.00  0.00    -0.288 N 
ATOM      3  C   UNL     1       6.862  -1.130  24.840  0.00  0.00    +0.237 C 
ATOM      4  O   UNL     1       6.536  -0.932  26.012  0.00  0.00    -0.274 OA
ATOM      5  C   UNL     1       7.599  -0.160  22.657  0.00  0.00    +0.112 C 
ATOM      6  C   UNL     1       8.531   0.994  22.356  0.00  0.00    +0.012 C 
ATOM      7  C   UNL     1      10.007   0.576  22.393  0.00  0.00    +0.005 C 
ATOM      8  C   UNL     1      10.552   1.082  23.719  0.00  0.00    +0.001 C 
ATOM      9  C   UNL     1       9.764   2.353  23.959  0.00  0.00    +0.006 C 
ATOM     10  C   UNL     1       8.350   2.008  23.491  0.00  0.00    +0.023 C 
ENDROOT
BRANCH   1  13
ATOM     11  N   UNL     1       6.063   3.210  23.876  0.00  0.00    -0.304 N 
ATOM     12  H   UNL     1       6.628   3.131  23.017  0.00  0.00    +0.149 HD
ATOM     13  C   UNL     1       6.349   2.303  24.849  0.00  0.00    +0.234 C 
ATOM     14  O   UNL     1       5.781   2.324  25.959  0.00  0.00    -0.274 OA
BRANCH  11  15
ATOM     15  C   UNL     1       5.497   4.547  24.146  0.00  0.00    +0.149 C 
BRANCH  15  16
ATOM     16  C   UNL     1       4.285   4.861  23.188  0.00  0.00    +0.237 C 
ATOM     17  O   UNL     1       3.925   6.008  22.913  0.00  0.00    -0.285 OA
BRANCH  16  18
ATOM     18  C   UNL     1       3.320   3.719  22.734  0.00  0.00    +0.282 C 
ATOM     19  N   UNL     1       2.959   3.733  21.368  0.00  0.00    -0.306 N 
ATOM     20  H   UNL     1       3.640   4.219  20.803  0.00  0.00    +0.149 HD
ATOM     21  O   UNL     1       3.023   2.853  23.529  0.00  0.00    -0.267 OA
BRANCH  19  22
ATOM     22  C   UNL     1       2.054   2.837  20.645  0.00  0.00    +0.073 C 
ATOM     23  C   UNL     1       1.542   3.290  19.275  0.00  0.00    +0.024 C 
ATOM     24  C   UNL     1       0.570   2.964  20.350  0.00  0.00    +0.024 C 
ENDBRANCH  19  22
ENDBRANCH  16  18
ENDBRANCH  15  16
BRANCH  15  25
ATOM     25  C   UNL     1       6.569   5.693  24.250  0.00  0.00    +0.030 C 
BRANCH  25  27
ATOM     26  C   UNL     1       7.410   6.328  21.881  0.00  0.00    +0.004 C 
ATOM     27  C   UNL     1       7.724   5.688  23.225  0.00  0.00    -0.001 C 
ENDBRANCH  25  27
ENDBRANCH  15  25
ENDBRANCH  11  15
ENDBRANCH   1  13
BRANCH   3  28
ATOM     28  C   UNL     1       6.800  -2.581  24.191  0.00  0.00    +0.164 C 
BRANCH  28  29
ATOM     29  N   UNL     1       5.590  -3.292  24.624  0.00  0.00    -0.302 N 
ATOM     30  H   UNL     1       5.647  -3.590  25.575  0.00  0.00    +0.150 HD
ATOM     31  C   UNL     1       4.570  -3.832  23.874  0.00  0.00    +0.234 C 
ATOM     32  O   UNL     1       4.619  -3.910  22.641  0.00  0.00    -0.274 OA
BRANCH  31  33
ATOM     33  C   UNL     1       3.324  -4.393  24.718  0.00  0.00    +0.162 C 
BRANCH  33  34
ATOM     34  C   UNL     1       3.296  -5.953  24.861  0.00  0.00    +0.018 C 
ATOM     35  C   UNL     1       2.381  -6.442  25.999  0.00  0.00    +0.006 C 
ATOM     36  C   UNL     1       2.996  -6.419  27.402  0.00  0.00    +0.000 C 
ATOM     37  C   UNL     1       4.480  -6.784  27.508  0.00  0.00    +0.000 C 
ATOM     38  C   UNL     1       5.353  -6.461  26.307  0.00  0.00    +0.000 C 
ATOM     39  C   UNL     1       4.661  -6.664  24.973  0.00  0.00    +0.006 C 
ENDBRANCH  33  34
BRANCH  33  40
ATOM     40  N   UNL     1       2.944  -3.710  25.978  0.00  0.00    -0.298 N 
ATOM     41  H   UNL     1       3.673  -3.648  26.673  0.00  0.00    +0.150 HD
ATOM     42  C   UNL     1       1.897  -2.791  26.000  0.00  0.00    +0.264 C 
ATOM     43  O   UNL     1       1.064  -2.813  25.101  0.00  0.00    -0.268 OA
BRANCH  42  44
ATOM     44  C   UNL     1       1.780  -1.734  27.104  0.00  0.00    +0.143 A 
ATOM     45  C   UNL     1       0.865  -1.751  28.145  0.00  0.00    +0.143 A 
ATOM     46  N   UNL     1       0.531  -0.630  28.856  0.00  0.00    -0.259 NA
ATOM     47  C   UNL     1       1.147   0.510  28.481  0.00  0.00    +0.130 A 
ATOM     48  C   UNL     1       2.164   0.505  27.562  0.00  0.00    +0.131 A 
ATOM     49  N   UNL     1       2.518  -0.611  26.885  0.00  0.00    -0.247 NA
ENDBRANCH  42  44
ENDBRANCH  33  40
ENDBRANCH  31  33
ENDBRANCH  28  29
BRANCH  28  50
ATOM     50  C   UNL     1       8.069  -3.486  24.545  0.00  0.00    -0.011 C 
ATOM     51  C   UNL     1       8.013  -4.803  23.752  0.00  0.00    +0.013 C 
ATOM     52  C   UNL     1       8.031  -3.850  26.055  0.00  0.00    +0.013 C 
ATOM     53  C   UNL     1       9.439  -2.813  24.286  0.00  0.00    +0.013 C 
ENDBRANCH  28  50
ENDBRANCH   3  28
TORSDOF 14
ENDMDL
MODEL 6
REMARK VINA RESULT:      -6.8      2.336      5.950
REMARK  Name = 
REMARK  18 active torsions:
REMARK  status: ('A' for Active; 'I' for Inactive)
REMARK    1  A    between atoms: C_1  and  C_2
REMARK    2  A    between atoms: C_2  and  C_3
REMARK    3  A    between atoms: C_3  and  C_4
REMARK    4  A    between atoms: C_4  and  C_5
REMARK    5  A    between atoms: C_4  and  N_13
REMARK    6  A    between atoms: C_5  and  C_7
REMARK    7  A    between atoms: N_9  and  C_10
REMARK    8  A    between atoms: C_14  and  C_16
REMARK    9  A    between atoms: C_24  and  C_26
REMARK   10  A    between atoms: C_26  and  C_27
REMARK   11  A    between atoms: C_26  and  N_31
REMARK   12  A    between atoms: C_27  and  C_28
REMARK   13  A    between atoms: C_27  and  C_29
REMARK   14  A    between atoms: C_27  and  C_30
REMARK   15  A    between atoms: C_32  and  C_34
REMARK   16  A    between atoms: C_34  and  C_35
REMARK   17  A    between atoms: C_34  and  N_41
REMARK   18  A    between atoms: C_42  and  C_44
REMARK                            x       y       z     vdW  Elec       q    Type
REMARK                         _______ _______ _______ _____ _____    ______ ____
ROOT
ATOM      1  C   UNL     1       6.587   3.485  23.865  0.00  0.00    +0.165 C 
ATOM      2  N   UNL     1       6.130   2.865  25.115  0.00  0.00    -0.288 N 
ATOM      3  C   UNL     1       4.853   2.366  25.310  0.00  0.00    +0.237 C 
ATOM      4  O   UNL     1       4.109   2.221  24.339  0.00  0.00    -0.274 OA
ATOM      5  C   UNL     1       7.095   3.056  26.173  0.00  0.00    +0.112 C 
ATOM      6  C   UNL     1       8.014   4.181  25.742  0.00  0.00    +0.012 C 
ATOM      7  C   UNL     1       7.626   5.525  26.373  0.00  0.00    +0.005 C 
ATOM      8  C   UNL     1       6.910   6.307  25.283  0.00  0.00    +0.001 C 
ATOM      9  C   UNL     1       7.597   5.847  24.014  0.00  0.00    +0.006 C 
ATOM     10  C   UNL     1       7.816   4.349  24.231  0.00  0.00    +0.023 C 
ENDROOT
BRANCH   1  13
ATOM     11  N   UNL     1       7.690   1.435  22.972  0.00  0.00    -0.304 N 
ATOM     12  H   UNL     1       7.732   1.200  23.975  0.00  0.00    +0.149 HD
ATOM     13  C   UNL     1       7.096   2.621  22.673  0.00  0.00    +0.234 C 
ATOM     14  O   UNL     1       7.031   3.052  21.504  0.00  0.00    -0.274 OA
BRANCH  11  15
ATOM     15  C   UNL     1       8.723   0.803  22.126  0.00  0.00    +0.149 C 
BRANCH  15  16
ATOM     16  C   UNL     1       8.789  -0.754  22.369  0.00  0.00    +0.237 C 
ATOM     17  O   UNL     1       9.832  -1.405  22.271  0.00  0.00    -0.285 OA
BRANCH  16  18
ATOM     18  C   UNL     1       7.477  -1.590  22.506  0.00  0.00    +0.282 C 
ATOM     19  N   UNL     1       7.547  -2.918  22.029  0.00  0.00    -0.306 N 
ATOM     20  H   UNL     1       8.495  -3.265  22.020  0.00  0.00    +0.149 HD
ATOM     21  O   UNL     1       6.530  -1.101  23.086  0.00  0.00    -0.267 OA
BRANCH  19  22
ATOM     22  C   UNL     1       6.495  -3.936  21.978  0.00  0.00    +0.073 C 
ATOM     23  C   UNL     1       6.459  -4.984  23.093  0.00  0.00    +0.024 C 
ATOM     24  C   UNL     1       6.576  -5.421  21.678  0.00  0.00    +0.024 C 
ENDBRANCH  19  22
ENDBRANCH  16  18
ENDBRANCH  15  16
BRANCH  15  25
ATOM     25  C   UNL     1      10.115   1.534  22.151  0.00  0.00    +0.030 C 
BRANCH  25  27
ATOM     26  C   UNL     1      11.222   3.559  23.334  0.00  0.00    +0.004 C 
ATOM     27  C   UNL     1      10.550   2.201  23.474  0.00  0.00    -0.001 C 
ENDBRANCH  25  27
ENDBRANCH  15  25
ENDBRANCH  11  15
ENDBRANCH   1  13
BRANCH   3  28
ATOM     28  C   UNL     1       4.413   1.918  26.772  0.00  0.00    +0.164 C 
BRANCH  28  29
ATOM     29  N   UNL     1       4.322   0.455  26.862  0.00  0.00    -0.302 N 
ATOM     30  H   UNL     1       3.759   0.067  26.134  0.00  0.00    +0.150 HD
ATOM     31  C   UNL     1       4.639  -0.384  27.905  0.00  0.00    +0.234 C 
ATOM     32  O   UNL     1       4.934   0.033  29.030  0.00  0.00    -0.274 OA
BRANCH  31  33
ATOM     33  C   UNL     1       4.560  -1.953  27.568  0.00  0.00    +0.162 C 
BRANCH  33  34
ATOM     34  C   UNL     1       3.605  -2.307  26.377  0.00  0.00    +0.018 C 
ATOM     35  C   UNL     1       2.119  -2.335  26.779  0.00  0.00    +0.006 C 
ATOM     36  C   UNL     1       1.632  -3.633  27.430  0.00  0.00    +0.000 C 
ATOM     37  C   UNL     1       2.222  -4.939  26.888  0.00  0.00    +0.000 C 
ATOM     38  C   UNL     1       3.632  -4.871  26.327  0.00  0.00    +0.000 C 
ATOM     39  C   UNL     1       3.935  -3.587  25.580  0.00  0.00    +0.006 C 
ENDBRANCH  33  34
BRANCH  33  40
ATOM     40  N   UNL     1       5.814  -2.744  27.532  0.00  0.00    -0.298 N 
ATOM     41  H   UNL     1       5.710  -3.728  27.728  0.00  0.00    +0.150 HD
ATOM     42  C   UNL     1       6.909  -2.304  26.790  0.00  0.00    +0.264 C 
ATOM     43  O   UNL     1       6.982  -1.122  26.477  0.00  0.00    -0.268 OA
BRANCH  42  44
ATOM     44  C   UNL     1       8.008  -3.270  26.333  0.00  0.00    +0.143 A 
ATOM     45  C   UNL     1       8.893  -3.052  25.289  0.00  0.00    +0.143 A 
ATOM     46  N   UNL     1       9.570  -4.066  24.669  0.00  0.00    -0.259 NA
ATOM     47  C   UNL     1       9.325  -5.309  25.133  0.00  0.00    +0.130 A 
ATOM     48  C   UNL     1       8.576  -5.516  26.263  0.00  0.00    +0.131 A 
ATOM     49  N   UNL     1       7.935  -4.508  26.897  0.00  0.00    -0.247 NA
ENDBRANCH  42  44
ENDBRANCH  33  40
ENDBRANCH  31  33
ENDBRANCH  28  29
BRANCH  28  50
ATOM     50  C   UNL     1       3.012   2.538  27.228  0.00  0.00    -0.011 C 
ATOM     51  C   UNL     1       1.860   1.625  26.775  0.00  0.00    +0.013 C 
ATOM     52  C   UNL     1       2.814   3.915  26.536  0.00  0.00    +0.013 C 
ATOM     53  C   UNL     1       2.876   2.785  28.751  0.00  0.00    +0.013 C 
ENDBRANCH  28  50
ENDBRANCH   3  28
TORSDOF 14
ENDMDL
MODEL 7
REMARK VINA RESULT:      -6.8      2.353      7.082
REMARK  Name = 
REMARK  18 active torsions:
REMARK  status: ('A' for Active; 'I' for Inactive)
REMARK    1  A    between atoms: C_1  and  C_2
REMARK    2  A    between atoms: C_2  and  C_3
REMARK    3  A    between atoms: C_3  and  C_4
REMARK    4  A    between atoms: C_4  and  C_5
REMARK    5  A    between atoms: C_4  and  N_13
REMARK    6  A    between atoms: C_5  and  C_7
REMARK    7  A    between atoms: N_9  and  C_10
REMARK    8  A    between atoms: C_14  and  C_16
REMARK    9  A    between atoms: C_24  and  C_26
REMARK   10  A    between atoms: C_26  and  C_27
REMARK   11  A    between atoms: C_26  and  N_31
REMARK   12  A    between atoms: C_27  and  C_28
REMARK   13  A    between atoms: C_27  and  C_29
REMARK   14  A    between atoms: C_27  and  C_30
REMARK   15  A    between atoms: C_32  and  C_34
REMARK   16  A    between atoms: C_34  and  C_35
REMARK   17  A    between atoms: C_34  and  N_41
REMARK   18  A    between atoms: C_42  and  C_44
REMARK                            x       y       z     vdW  Elec       q    Type
REMARK                         _______ _______ _______ _____ _____    ______ ____
ROOT
ATOM      1  C   UNL     1       8.073  -2.985  25.613  0.00  0.00    +0.165 C 
ATOM      2  N   UNL     1       6.738  -2.375  25.549  0.00  0.00    -0.288 N 
ATOM      3  C   UNL     1       6.359  -1.263  26.283  0.00  0.00    +0.237 C 
ATOM      4  O   UNL     1       7.223  -0.600  26.859  0.00  0.00    -0.274 OA
ATOM      5  C   UNL     1       5.819  -3.213  24.815  0.00  0.00    +0.112 C 
ATOM      6  C   UNL     1       6.430  -4.597  24.750  0.00  0.00    +0.012 C 
ATOM      7  C   UNL     1       5.848  -5.542  25.810  0.00  0.00    +0.005 C 
ATOM      8  C   UNL     1       6.894  -5.632  26.909  0.00  0.00    +0.001 C 
ATOM      9  C   UNL     1       8.203  -5.496  26.159  0.00  0.00    +0.006 C 
ATOM     10  C   UNL     1       7.915  -4.434  25.097  0.00  0.00    +0.023 C 
ENDROOT
BRANCH   1  13
ATOM     11  N   UNL     1       9.395  -1.078  24.702  0.00  0.00    -0.304 N 
ATOM     12  H   UNL     1       8.706  -0.535  25.244  0.00  0.00    +0.149 HD
ATOM     13  C   UNL     1       9.257  -2.429  24.768  0.00  0.00    +0.234 C 
ATOM     14  O   UNL     1       9.988  -3.201  24.115  0.00  0.00    -0.274 OA
BRANCH  11  15
ATOM     15  C   UNL     1      10.002  -0.373  23.554  0.00  0.00    +0.149 C 
BRANCH  15  16
ATOM     16  C   UNL     1      10.571   1.033  23.980  0.00  0.00    +0.237 C 
ATOM     17  O   UNL     1      11.776   1.255  24.123  0.00  0.00    -0.285 OA
BRANCH  16  18
ATOM     18  C   UNL     1       9.610   2.156  24.484  0.00  0.00    +0.282 C 
ATOM     19  N   UNL     1       9.840   3.443  23.948  0.00  0.00    -0.306 N 
ATOM     20  H   UNL     1      10.318   3.401  23.060  0.00  0.00    +0.149 HD
ATOM     21  O   UNL     1       8.685   1.853  25.209  0.00  0.00    -0.267 OA
BRANCH  19  22
ATOM     22  C   UNL     1       9.148   4.701  24.241  0.00  0.00    +0.073 C 
ATOM     23  C   UNL     1       8.072   5.172  23.259  0.00  0.00    +0.024 C 
ATOM     24  C   UNL     1       9.231   6.052  23.556  0.00  0.00    +0.024 C 
ENDBRANCH  19  22
ENDBRANCH  16  18
ENDBRANCH  15  16
BRANCH  15  25
ATOM     25  C   UNL     1       9.107  -0.359  22.260  0.00  0.00    +0.030 C 
BRANCH  25  27
ATOM     26  C   UNL     1       7.930   1.790  21.410  0.00  0.00    +0.004 C 
ATOM     27  C   UNL     1       9.163   0.898  21.366  0.00  0.00    -0.001 C 
ENDBRANCH  25  27
ENDBRANCH  15  25
ENDBRANCH  11  15
ENDBRANCH   1  13
BRANCH   3  28
ATOM     28  C   UNL     1       4.829  -0.829  26.294  0.00  0.00    +0.164 C 
BRANCH  28  29
ATOM     29  N   UNL     1       4.702   0.628  26.157  0.00  0.00    -0.302 N 
ATOM     30  H   UNL     1       3.991   1.002  26.750  0.00  0.00    +0.150 HD
ATOM     31  C   UNL     1       5.187   1.466  25.180  0.00  0.00    +0.234 C 
ATOM     32  O   UNL     1       5.715   1.047  24.143  0.00  0.00    -0.274 OA
BRANCH  31  33
ATOM     33  C   UNL     1       4.983   3.035  25.460  0.00  0.00    +0.162 C 
BRANCH  33  34
ATOM     34  C   UNL     1       6.149   3.700  26.269  0.00  0.00    +0.018 C 
ATOM     35  C   UNL     1       6.416   3.016  27.622  0.00  0.00    +0.006 C 
ATOM     36  C   UNL     1       5.501   3.444  28.773  0.00  0.00    +0.000 C 
ATOM     37  C   UNL     1       5.095   4.920  28.817  0.00  0.00    +0.000 C 
ATOM     38  C   UNL     1       5.003   5.645  27.485  0.00  0.00    +0.000 C 
ATOM     39  C   UNL     1       6.062   5.225  26.485  0.00  0.00    +0.006 C 
ENDBRANCH  33  34
BRANCH  33  40
ATOM     40  N   UNL     1       4.500   3.904  24.360  0.00  0.00    -0.298 N 
ATOM     41  H   UNL     1       5.216   4.420  23.871  0.00  0.00    +0.150 HD
ATOM     42  C   UNL     1       3.291   3.633  23.720  0.00  0.00    +0.264 C 
ATOM     43  O   UNL     1       2.462   2.928  24.283  0.00  0.00    -0.268 OA
BRANCH  42  44
ATOM     44  C   UNL     1       2.988   4.173  22.318  0.00  0.00    +0.143 A 
ATOM     45  C   UNL     1       2.883   5.510  21.972  0.00  0.00    +0.143 A 
ATOM     46  N   UNL     1       2.236   5.934  20.843  0.00  0.00    -0.259 NA
ATOM     47  C   UNL     1       1.695   4.966  20.075  0.00  0.00    +0.130 A 
ATOM     48  C   UNL     1       1.930   3.638  20.326  0.00  0.00    +0.131 A 
ATOM     49  N   UNL     1       2.600   3.221  21.424  0.00  0.00    -0.247 NA
ENDBRANCH  42  44
ENDBRANCH  33  40
ENDBRANCH  31  33
ENDBRANCH  28  29
BRANCH  28  50
ATOM     50  C   UNL     1       4.053  -1.279  27.616  0.00  0.00    -0.011 C 
ATOM     51  C   UNL     1       2.536  -1.276  27.363  0.00  0.00    +0.013 C 
ATOM     52  C   UNL     1       4.338  -0.255  28.749  0.00  0.00    +0.013 C 
ATOM     53  C   UNL     1       4.458  -2.670  28.165  0.00  0.00    +0.013 C 
ENDBRANCH  28  50
ENDBRANCH   3  28
TORSDOF 14
ENDMDL
MODEL 8
REMARK VINA RESULT:      -6.8      1.978      3.076
REMARK  Name = 
REMARK  18 active torsions:
REMARK  status: ('A' for Active; 'I' for Inactive)
REMARK    1  A    between atoms: C_1  and  C_2
REMARK    2  A    between atoms: C_2  and  C_3
REMARK    3  A    between atoms: C_3  and  C_4
REMARK    4  A    between atoms: C_4  and  C_5
REMARK    5  A    between atoms: C_4  and  N_13
REMARK    6  A    between atoms: C_5  and  C_7
REMARK    7  A    between atoms: N_9  and  C_10
REMARK    8  A    between atoms: C_14  and  C_16
REMARK    9  A    between atoms: C_24  and  C_26
REMARK   10  A    between atoms: C_26  and  C_27
REMARK   11  A    between atoms: C_26  and  N_31
REMARK   12  A    between atoms: C_27  and  C_28
REMARK   13  A    between atoms: C_27  and  C_29
REMARK   14  A    between atoms: C_27  and  C_30
REMARK   15  A    between atoms: C_32  and  C_34
REMARK   16  A    between atoms: C_34  and  C_35
REMARK   17  A    between atoms: C_34  and  N_41
REMARK   18  A    between atoms: C_42  and  C_44
REMARK                            x       y       z     vdW  Elec       q    Type
REMARK                         _______ _______ _______ _____ _____    ______ ____
ROOT
ATOM      1  C   UNL     1       5.208   2.933  27.338  0.00  0.00    +0.165 C 
ATOM      2  N   UNL     1       4.732   1.600  27.729  0.00  0.00    -0.288 N 
ATOM      3  C   UNL     1       4.154   0.697  26.852  0.00  0.00    +0.237 C 
ATOM      4  O   UNL     1       4.227   0.905  25.640  0.00  0.00    -0.274 OA
ATOM      5  C   UNL     1       4.728   1.450  29.165  0.00  0.00    +0.112 C 
ATOM      6  C   UNL     1       4.799   2.840  29.761  0.00  0.00    +0.012 C 
ATOM      7  C   UNL     1       3.421   3.359  30.194  0.00  0.00    +0.005 C 
ATOM      8  C   UNL     1       2.986   4.340  29.117  0.00  0.00    +0.001 C 
ATOM      9  C   UNL     1       4.292   4.949  28.650  0.00  0.00    +0.006 C 
ATOM     10  C   UNL     1       5.268   3.772  28.637  0.00  0.00    +0.023 C 
ENDROOT
BRANCH   1  13
ATOM     11  N   UNL     1       6.866   2.531  25.520  0.00  0.00    -0.304 N 
ATOM     12  H   UNL     1       6.076   2.001  25.121  0.00  0.00    +0.149 HD
ATOM     13  C   UNL     1       6.619   3.136  26.713  0.00  0.00    +0.234 C 
ATOM     14  O   UNL     1       7.504   3.760  27.332  0.00  0.00    -0.274 OA
BRANCH  11  15
ATOM     15  C   UNL     1       8.209   2.097  25.086  0.00  0.00    +0.149 C 
BRANCH  15  16
ATOM     16  C   UNL     1       8.707   2.928  23.843  0.00  0.00    +0.237 C 
ATOM     17  O   UNL     1       8.776   2.459  22.705  0.00  0.00    -0.285 OA
BRANCH  16  18
ATOM     18  C   UNL     1       9.375   4.326  24.043  0.00  0.00    +0.282 C 
ATOM     19  N   UNL     1      10.574   4.537  23.325  0.00  0.00    -0.306 N 
ATOM     20  H   UNL     1      10.638   3.939  22.515  0.00  0.00    +0.149 HD
ATOM     21  O   UNL     1       8.795   5.163  24.702  0.00  0.00    -0.267 OA
BRANCH  19  22
ATOM     22  C   UNL     1      11.453   5.709  23.324  0.00  0.00    +0.073 C 
ATOM     23  C   UNL     1      12.965   5.469  23.323  0.00  0.00    +0.024 C 
ATOM     24  C   UNL     1      12.350   6.268  24.414  0.00  0.00    +0.024 C 
ENDBRANCH  19  22
ENDBRANCH  16  18
ENDBRANCH  15  16
BRANCH  15  25
ATOM     25  C   UNL     1       8.370   0.539  24.945  0.00  0.00    +0.030 C 
BRANCH  25  27
ATOM     26  C   UNL     1       8.178  -1.230  26.831  0.00  0.00    +0.004 C 
ATOM     27  C   UNL     1       7.460  -0.357  25.813  0.00  0.00    -0.001 C 
ENDBRANCH  25  27
ENDBRANCH  15  25
ENDBRANCH  11  15
ENDBRANCH   1  13
BRANCH   3  28
ATOM     28  C   UNL     1       3.482  -0.623  27.433  0.00  0.00    +0.164 C 
BRANCH  28  29
ATOM     29  N   UNL     1       3.759  -1.773  26.561  0.00  0.00    -0.302 N 
ATOM     30  H   UNL     1       3.072  -1.876  25.844  0.00  0.00    +0.150 HD
ATOM     31  C   UNL     1       4.611  -2.836  26.751  0.00  0.00    +0.234 C 
ATOM     32  O   UNL     1       5.192  -3.042  27.822  0.00  0.00    -0.274 OA
BRANCH  31  33
ATOM     33  C   UNL     1       4.767  -3.821  25.491  0.00  0.00    +0.162 C 
BRANCH  33  34
ATOM     34  C   UNL     1       3.407  -4.335  24.906  0.00  0.00    +0.018 C 
ATOM     35  C   UNL     1       2.534  -5.059  25.947  0.00  0.00    +0.006 C 
ATOM     36  C   UNL     1       2.876  -6.531  26.192  0.00  0.00    +0.000 C 
ATOM     37  C   UNL     1       3.311  -7.349  24.972  0.00  0.00    +0.000 C 
ATOM     38  C   UNL     1       4.020  -6.595  23.860  0.00  0.00    +0.000 C 
ATOM     39  C   UNL     1       3.483  -5.197  23.628  0.00  0.00    +0.006 C 
ENDBRANCH  33  34
BRANCH  33  40
ATOM     40  N   UNL     1       5.737  -3.474  24.425  0.00  0.00    -0.298 N 
ATOM     41  H   UNL     1       5.599  -2.574  23.991  0.00  0.00    +0.150 HD
ATOM     42  C   UNL     1       7.001  -4.062  24.397  0.00  0.00    +0.264 C 
ATOM     43  O   UNL     1       7.186  -5.110  25.004  0.00  0.00    -0.268 OA
BRANCH  42  44
ATOM     44  C   UNL     1       8.171  -3.413  23.650  0.00  0.00    +0.143 A 
ATOM     45  C   UNL     1       9.454  -3.245  24.146  0.00  0.00    +0.143 A 
ATOM     46  N   UNL     1      10.334  -2.333  23.630  0.00  0.00    -0.259 NA
ATOM     47  C   UNL     1       9.878  -1.594  22.598  0.00  0.00    +0.130 A 
ATOM     48  C   UNL     1       8.673  -1.862  22.001  0.00  0.00    +0.131 A 
ATOM     49  N   UNL     1       7.818  -2.788  22.492  0.00  0.00    -0.247 NA
ENDBRANCH  42  44
ENDBRANCH  33  40
ENDBRANCH  31  33
ENDBRANCH  28  29
BRANCH  28  50
ATOM     50  C   UNL     1       1.899  -0.500  27.615  0.00  0.00    -0.011 C 
ATOM     51  C   UNL     1       1.427   0.899  27.184  0.00  0.00    +0.013 C 
ATOM     52  C   UNL     1       1.545  -0.667  29.119  0.00  0.00    +0.013 C 
ATOM     53  C   UNL     1       1.072  -1.558  26.845  0.00  0.00    +0.013 C 
ENDBRANCH  28  50
ENDBRANCH   3  28
TORSDOF 14
ENDMDL
MODEL 9
REMARK VINA RESULT:      -6.7      2.664      8.726
REMARK  Name = 
REMARK  18 active torsions:
REMARK  status: ('A' for Active; 'I' for Inactive)
REMARK    1  A    between atoms: C_1  and  C_2
REMARK    2  A    between atoms: C_2  and  C_3
REMARK    3  A    between atoms: C_3  and  C_4
REMARK    4  A    between atoms: C_4  and  C_5
REMARK    5  A    between atoms: C_4  and  N_13
REMARK    6  A    between atoms: C_5  and  C_7
REMARK    7  A    between atoms: N_9  and  C_10
REMARK    8  A    between atoms: C_14  and  C_16
REMARK    9  A    between atoms: C_24  and  C_26
REMARK   10  A    between atoms: C_26  and  C_27
REMARK   11  A    between atoms: C_26  and  N_31
REMARK   12  A    between atoms: C_27  and  C_28
REMARK   13  A    between atoms: C_27  and  C_29
REMARK   14  A    between atoms: C_27  and  C_30
REMARK   15  A    between atoms: C_32  and  C_34
REMARK   16  A    between atoms: C_34  and  C_35
REMARK   17  A    between atoms: C_34  and  N_41
REMARK   18  A    between atoms: C_42  and  C_44
REMARK                            x       y       z     vdW  Elec       q    Type
REMARK                         _______ _______ _______ _____ _____    ______ ____
ROOT
ATOM      1  C   UNL     1       6.235  -3.090  24.717  0.00  0.00    +0.165 C 
ATOM      2  N   UNL     1       7.064  -1.891  24.896  0.00  0.00    -0.288 N 
ATOM      3  C   UNL     1       7.297  -0.954  23.902  0.00  0.00    +0.237 C 
ATOM      4  O   UNL     1       6.615  -0.984  22.876  0.00  0.00    -0.274 OA
ATOM      5  C   UNL     1       7.783  -1.939  26.148  0.00  0.00    +0.112 C 
ATOM      6  C   UNL     1       7.767  -3.379  26.618  0.00  0.00    +0.012 C 
ATOM      7  C   UNL     1       9.069  -4.116  26.280  0.00  0.00    +0.005 C 
ATOM      8  C   UNL     1       8.756  -4.987  25.074  0.00  0.00    +0.001 C 
ATOM      9  C   UNL     1       7.303  -5.362  25.281  0.00  0.00    +0.006 C 
ATOM     10  C   UNL     1       6.662  -4.084  25.822  0.00  0.00    +0.023 C 
ENDROOT
BRANCH   1  13
ATOM     11  N   UNL     1       4.185  -2.348  25.926  0.00  0.00    -0.304 N 
ATOM     12  H   UNL     1       4.887  -1.904  26.538  0.00  0.00    +0.149 HD
ATOM     13  C   UNL     1       4.686  -3.031  24.862  0.00  0.00    +0.234 C 
ATOM     14  O   UNL     1       3.951  -3.662  24.076  0.00  0.00    -0.274 OA
BRANCH  11  15
ATOM     15  C   UNL     1       2.891  -2.664  26.564  0.00  0.00    +0.149 C 
BRANCH  15  16
ATOM     16  C   UNL     1       2.117  -1.352  26.972  0.00  0.00    +0.237 C 
ATOM     17  O   UNL     1       0.964  -1.112  26.607  0.00  0.00    -0.285 OA
BRANCH  16  18
ATOM     18  C   UNL     1       2.872  -0.170  27.661  0.00  0.00    +0.282 C 
ATOM     19  N   UNL     1       2.334   1.115  27.427  0.00  0.00    -0.306 N 
ATOM     20  H   UNL     1       1.357   1.075  27.180  0.00  0.00    +0.149 HD
ATOM     21  O   UNL     1       3.788  -0.422  28.415  0.00  0.00    -0.267 OA
BRANCH  19  22
ATOM     22  C   UNL     1       2.822   2.416  27.891  0.00  0.00    +0.073 C 
ATOM     23  C   UNL     1       3.242   3.441  26.834  0.00  0.00    +0.024 C 
ATOM     24  C   UNL     1       4.219   3.010  27.866  0.00  0.00    +0.024 C 
ENDBRANCH  19  22
ENDBRANCH  16  18
ENDBRANCH  15  16
BRANCH  15  25
ATOM     25  C   UNL     1       2.978  -3.756  27.693  0.00  0.00    +0.030 C 
BRANCH  25  27
ATOM     26  C   UNL     1       4.084  -4.146  30.005  0.00  0.00    +0.004 C 
ATOM     27  C   UNL     1       4.272  -3.819  28.531  0.00  0.00    -0.001 C 
ENDBRANCH  25  27
ENDBRANCH  15  25
ENDBRANCH  11  15
ENDBRANCH   1  13
BRANCH   3  28
ATOM     28  C   UNL     1       8.382   0.182  24.150  0.00  0.00    +0.164 C 
BRANCH  28  29
ATOM     29  N   UNL     1       7.869   1.491  23.723  0.00  0.00    -0.302 N 
ATOM     30  H   UNL     1       8.363   1.849  22.932  0.00  0.00    +0.150 HD
ATOM     31  C   UNL     1       7.054   2.377  24.388  0.00  0.00    +0.234 C 
ATOM     32  O   UNL     1       6.737   2.229  25.575  0.00  0.00    -0.274 OA
BRANCH  31  33
ATOM     33  C   UNL     1       6.572   3.643  23.526  0.00  0.00    +0.162 C 
BRANCH  33  34
ATOM     34  C   UNL     1       7.727   4.381  22.767  0.00  0.00    +0.018 C 
ATOM     35  C   UNL     1       8.990   4.575  23.626  0.00  0.00    +0.006 C 
ATOM     36  C   UNL     1       8.970   5.780  24.571  0.00  0.00    +0.000 C 
ATOM     37  C   UNL     1       8.289   7.050  24.052  0.00  0.00    +0.000 C 
ATOM     38  C   UNL     1       7.152   6.863  23.062  0.00  0.00    +0.000 C 
ATOM     39  C   UNL     1       7.368   5.720  22.089  0.00  0.00    +0.006 C 
ENDBRANCH  33  34
BRANCH  33  40
ATOM     40  N   UNL     1       5.347   3.523  22.698  0.00  0.00    -0.298 N 
ATOM     41  H   UNL     1       5.304   2.708  22.106  0.00  0.00    +0.150 HD
ATOM     42  C   UNL     1       4.166   4.155  23.083  0.00  0.00    +0.264 C 
ATOM     43  O   UNL     1       4.217   5.088  23.876  0.00  0.00    -0.268 OA
BRANCH  42  44
ATOM     44  C   UNL     1       2.802   3.690  22.561  0.00  0.00    +0.143 A 
ATOM     45  C   UNL     1       1.748   3.241  23.341  0.00  0.00    +0.143 A 
ATOM     46  N   UNL     1       0.727   2.479  22.840  0.00  0.00    -0.259 NA
ATOM     47  C   UNL     1       0.805   2.182  21.526  0.00  0.00    +0.130 A 
ATOM     48  C   UNL     1       1.754   2.752  20.718  0.00  0.00    +0.131 A 
ATOM     49  N   UNL     1       2.743   3.533  21.210  0.00  0.00    -0.247 NA
ENDBRANCH  42  44
ENDBRANCH  33  40
ENDBRANCH  31  33
ENDBRANCH  28  29
BRANCH  28  50
ATOM     50  C   UNL     1       9.764  -0.088  23.393  0.00  0.00    -0.011 C 
ATOM     51  C   UNL     1      10.071  -1.595  23.380  0.00  0.00    +0.013 C 
ATOM     52  C   UNL     1      10.914   0.614  24.167  0.00  0.00    +0.013 C 
ATOM     53  C   UNL     1       9.822   0.439  21.939  0.00  0.00    +0.013 C 
ENDBRANCH  28  50
ENDBRANCH   3  28
TORSDOF 14
ENDMDL
