MODEL 1
REMARK VINA RESULT:      -5.8      0.000      0.000
REMARK  Name = 
REMARK  5 active torsions:
REMARK  status: ('A' for Active; 'I' for Inactive)
REMARK    1  A    between atoms: C5M_1  and  C5_2
REMARK    2  A    between atoms: N1_4  and  C1*_10
REMARK    3  A    between atoms: C3*_13  and  O3*_19
REMARK    4  A    between atoms: C4*_14  and  C5*_17
REMARK    5  A    between atoms: C5*_17  and  O5*_18
REMARK                            x       y       z     vdW  Elec       q    Type
REMARK                         _______ _______ _______ _____ _____    ______ ____
ROOT
ATOM      1  C5M   T A   1       8.137  -3.536  23.138  0.00  0.00    +0.051 C 
ATOM      2  C5    T A   1       7.825  -4.408  24.309  0.00  0.00    +0.030 A 
ATOM      3  C4    T A   1       8.965  -4.908  25.104  0.00  0.00    +0.257 A 
ATOM      4  O4    T A   1      10.125  -4.621  24.833  0.00  0.00    -0.267 OA
ATOM      5  N3    T A   1       8.642  -5.672  26.183  0.00  0.00    -0.275 N 
ATOM      6  H3    T A   1       9.408  -5.909  26.794  0.00  0.00    +0.173 HD
ATOM      7  C2    T A   1       7.393  -5.741  26.739  0.00  0.00    +0.331 A 
ATOM      8  O2    T A   1       7.280  -6.037  27.925  0.00  0.00    -0.246 OA
ATOM      9  N1    T A   1       6.335  -5.443  25.880  0.00  0.00    -0.274 N 
ATOM     10  C6    T A   1       6.589  -4.723  24.719  0.00  0.00    +0.101 A 
ENDROOT
BRANCH   9  11
ATOM     11  C1*   T A   1       4.945  -5.521  26.376  0.00  0.00    +0.226 C 
ATOM     12  O4*   T A   1       4.097  -4.805  25.444  0.00  0.00    -0.348 OA
ATOM     13  C4*   T A   1       3.193  -5.729  24.809  0.00  0.00    +0.175 C 
ATOM     14  C3*   T A   1       3.687  -7.129  25.150  0.00  0.00    +0.150 C 
ATOM     15  C2*   T A   1       4.309  -6.908  26.504  0.00  0.00    +0.088 C 
BRANCH  14  16
ATOM     16  O3*   T A   1       4.655  -7.616  24.222  0.00  0.00    -0.389 OA
ATOM     17  H3*   T A   1       4.488  -7.203  23.354  0.00  0.00    +0.210 HD
ENDBRANCH  14  16
BRANCH  13  18
ATOM     18  C5*   T A   1       3.093  -5.451  23.311  0.00  0.00    +0.190 C 
BRANCH  18  19
ATOM     19  O5*   T A   1       2.729  -6.621  22.589  0.00  0.00    -0.392 OA
ATOM     20  H5*   T A   1       2.691  -6.369  21.645  0.00  0.00    +0.210 HD
ENDBRANCH  18  19
ENDBRANCH  13  18
ENDBRANCH   9  11
TORSDOF 4
ENDMDL
MODEL 2
REMARK VINA RESULT:      -5.7      2.205      5.176
REMARK  Name = 
REMARK  5 active torsions:
REMARK  status: ('A' for Active; 'I' for Inactive)
REMARK    1  A    between atoms: C5M_1  and  C5_2
REMARK    2  A    between atoms: N1_4  and  C1*_10
REMARK    3  A    between atoms: C3*_13  and  O3*_19
REMARK    4  A    between atoms: C4*_14  and  C5*_17
REMARK    5  A    between atoms: C5*_17  and  O5*_18
REMARK                            x       y       z     vdW  Elec       q    Type
REMARK                         _______ _______ _______ _____ _____    ______ ____
ROOT
ATOM      1  C5M   T A   1       5.774  -5.996  21.885  0.00  0.00    +0.051 C 
ATOM      2  C5    T A   1       6.105  -5.693  23.309  0.00  0.00    +0.030 A 
ATOM      3  C4    T A   1       5.304  -6.368  24.350  0.00  0.00    +0.257 A 
ATOM      4  O4    T A   1       4.406  -7.156  24.074  0.00  0.00    -0.267 OA
ATOM      5  N3    T A   1       5.655  -6.095  25.636  0.00  0.00    -0.275 N 
ATOM      6  H3    T A   1       5.193  -6.648  26.341  0.00  0.00    +0.173 HD
ATOM      7  C2    T A   1       6.839  -5.520  26.011  0.00  0.00    +0.331 A 
ATOM      8  O2    T A   1       7.281  -5.736  27.135  0.00  0.00    -0.246 OA
ATOM      9  N1    T A   1       7.458  -4.730  25.042  0.00  0.00    -0.274 N 
ATOM     10  C6    T A   1       7.107  -4.898  23.708  0.00  0.00    +0.101 A 
ENDROOT
BRANCH   9  11
ATOM     11  C1*   T A   1       8.725  -4.039  25.360  0.00  0.00    +0.226 C 
ATOM     12  O4*   T A   1       9.405  -3.756  24.112  0.00  0.00    -0.348 OA
ATOM     13  C4*   T A   1       9.477  -2.331  23.916  0.00  0.00    +0.175 C 
ATOM     14  C3*   T A   1       8.552  -1.699  24.948  0.00  0.00    +0.150 C 
ATOM     15  C2*   T A   1       8.641  -2.690  26.080  0.00  0.00    +0.088 C 
BRANCH  14  16
ATOM     16  O3*   T A   1       7.207  -1.580  24.486  0.00  0.00    -0.389 OA
ATOM     17  H3*   T A   1       7.200  -1.695  23.517  0.00  0.00    +0.210 HD
ENDBRANCH  14  16
BRANCH  13  18
ATOM     18  C5*   T A   1       9.145  -1.963  22.472  0.00  0.00    +0.190 C 
BRANCH  18  19
ATOM     19  O5*   T A   1      10.317  -1.626  21.740  0.00  0.00    -0.392 OA
ATOM     20  H5*   T A   1      11.055  -2.122  22.146  0.00  0.00    +0.210 HD
ENDBRANCH  18  19
ENDBRANCH  13  18
ENDBRANCH   9  11
TORSDOF 4
ENDMDL
MODEL 3
REMARK VINA RESULT:      -5.6      3.021      5.441
REMARK  Name = 
REMARK  5 active torsions:
REMARK  status: ('A' for Active; 'I' for Inactive)
REMARK    1  A    between atoms: C5M_1  and  C5_2
REMARK    2  A    between atoms: N1_4  and  C1*_10
REMARK    3  A    between atoms: C3*_13  and  O3*_19
REMARK    4  A    between atoms: C4*_14  and  C5*_17
REMARK    5  A    between atoms: C5*_17  and  O5*_18
REMARK                            x       y       z     vdW  Elec       q    Type
REMARK                         _______ _______ _______ _____ _____    ______ ____
ROOT
ATOM      1  C5M   T A   1       5.241  -4.308  26.969  0.00  0.00    +0.051 C 
ATOM      2  C5    T A   1       6.651  -4.270  26.480  0.00  0.00    +0.030 A 
ATOM      3  C4    T A   1       7.610  -5.206  27.101  0.00  0.00    +0.257 A 
ATOM      4  O4    T A   1       7.276  -5.996  27.976  0.00  0.00    -0.267 OA
ATOM      5  N3    T A   1       8.877  -5.167  26.607  0.00  0.00    -0.275 N 
ATOM      6  H3    T A   1       9.497  -5.888  26.942  0.00  0.00    +0.173 HD
ATOM      7  C2    T A   1       9.231  -4.579  25.423  0.00  0.00    +0.331 A 
ATOM      8  O2    T A   1      10.229  -4.978  24.830  0.00  0.00    -0.246 OA
ATOM      9  N1    T A   1       8.386  -3.561  24.981  0.00  0.00    -0.274 N 
ATOM     10  C6    T A   1       7.094  -3.487  25.486  0.00  0.00    +0.101 A 
ENDROOT
BRANCH   9  11
ATOM     11  C1*   T A   1       8.700  -2.842  23.729  0.00  0.00    +0.226 C 
ATOM     12  O4*   T A   1       7.562  -2.008  23.395  0.00  0.00    -0.348 OA
ATOM     13  C4*   T A   1       7.942  -0.620  23.478  0.00  0.00    +0.175 C 
ATOM     14  C3*   T A   1       9.300  -0.578  24.168  0.00  0.00    +0.150 C 
ATOM     15  C2*   T A   1       9.900  -1.890  23.733  0.00  0.00    +0.088 C 
BRANCH  14  16
ATOM     16  O3*   T A   1       9.196  -0.517  25.589  0.00  0.00    -0.389 OA
ATOM     17  H3*   T A   1       9.086  -1.423  25.932  0.00  0.00    +0.210 HD
ENDBRANCH  14  16
BRANCH  13  18
ATOM     18  C5*   T A   1       6.861   0.199  24.178  0.00  0.00    +0.190 C 
BRANCH  18  19
ATOM     19  O5*   T A   1       5.629  -0.509  24.234  0.00  0.00    -0.392 OA
ATOM     20  H5*   T A   1       5.834  -1.407  24.563  0.00  0.00    +0.210 HD
ENDBRANCH  18  19
ENDBRANCH  13  18
ENDBRANCH   9  11
TORSDOF 4
ENDMDL
MODEL 4
REMARK VINA RESULT:      -5.6      3.343      6.204
REMARK  Name = 
REMARK  5 active torsions:
REMARK  status: ('A' for Active; 'I' for Inactive)
REMARK    1  A    between atoms: C5M_1  and  C5_2
REMARK    2  A    between atoms: N1_4  and  C1*_10
REMARK    3  A    between atoms: C3*_13  and  O3*_19
REMARK    4  A    between atoms: C4*_14  and  C5*_17
REMARK    5  A    between atoms: C5*_17  and  O5*_18
REMARK                            x       y       z     vdW  Elec       q    Type
REMARK                         _______ _______ _______ _____ _____    ______ ____
ROOT
ATOM      1  C5M   T A   1       6.547  -4.838  21.581  0.00  0.00    +0.051 C 
ATOM      2  C5    T A   1       7.056  -4.278  22.868  0.00  0.00    +0.030 A 
ATOM      3  C4    T A   1       6.494  -4.830  24.117  0.00  0.00    +0.257 A 
ATOM      4  O4    T A   1       5.651  -5.720  24.115  0.00  0.00    -0.267 OA
ATOM      5  N3    T A   1       7.006  -4.321  25.271  0.00  0.00    -0.275 N 
ATOM      6  H3    T A   1       6.714  -4.783  26.118  0.00  0.00    +0.173 HD
ATOM      7  C2    T A   1       8.167  -3.602  25.354  0.00  0.00    +0.331 A 
ATOM      8  O2    T A   1       8.793  -3.594  26.409  0.00  0.00    -0.246 OA
ATOM      9  N1    T A   1       8.548  -2.939  24.187  0.00  0.00    -0.274 N 
ATOM     10  C6    T A   1       8.020  -3.353  22.970  0.00  0.00    +0.101 A 
ENDROOT
BRANCH   9  11
ATOM     11  C1*   T A   1       9.771  -2.109  24.184  0.00  0.00    +0.226 C 
ATOM     12  O4*   T A   1      10.108  -1.816  22.805  0.00  0.00    -0.348 OA
ATOM     13  C4*   T A   1       9.976  -0.400  22.568  0.00  0.00    +0.175 C 
ATOM     14  C3*   T A   1       9.252   0.180  23.776  0.00  0.00    +0.150 C 
ATOM     15  C2*   T A   1       9.710  -0.744  24.875  0.00  0.00    +0.088 C 
BRANCH  14  16
ATOM     16  O3*   T A   1       7.832   0.140  23.642  0.00  0.00    -0.389 OA
ATOM     17  H3*   T A   1       7.454   0.903  24.117  0.00  0.00    +0.210 HD
ENDBRANCH  14  16
BRANCH  13  18
ATOM     18  C5*   T A   1       9.279  -0.134  21.236  0.00  0.00    +0.190 C 
BRANCH  18  19
ATOM     19  O5*   T A   1       8.993   1.249  21.068  0.00  0.00    -0.392 OA
ATOM     20  H5*   T A   1       8.722   1.369  20.136  0.00  0.00    +0.210 HD
ENDBRANCH  18  19
ENDBRANCH  13  18
ENDBRANCH   9  11
TORSDOF 4
ENDMDL
MODEL 5
REMARK VINA RESULT:      -5.5      3.754      4.975
REMARK  Name = 
REMARK  5 active torsions:
REMARK  status: ('A' for Active; 'I' for Inactive)
REMARK    1  A    between atoms: C5M_1  and  C5_2
REMARK    2  A    between atoms: N1_4  and  C1*_10
REMARK    3  A    between atoms: C3*_13  and  O3*_19
REMARK    4  A    between atoms: C4*_14  and  C5*_17
REMARK    5  A    between atoms: C5*_17  and  O5*_18
REMARK                            x       y       z     vdW  Elec       q    Type
REMARK                         _______ _______ _______ _____ _____    ______ ____
ROOT
ATOM      1  C5M   T A   1       9.596   0.393  21.879  0.00  0.00    +0.051 C 
ATOM      2  C5    T A   1       9.465  -0.094  23.285  0.00  0.00    +0.030 A 
ATOM      3  C4    T A   1      10.245   0.610  24.322  0.00  0.00    +0.257 A 
ATOM      4  O4    T A   1      10.969   1.564  24.059  0.00  0.00    -0.267 OA
ATOM      5  N3    T A   1      10.075   0.162  25.595  0.00  0.00    -0.275 N 
ATOM      6  H3    T A   1      10.508   0.718  26.315  0.00  0.00    +0.173 HD
ATOM      7  C2    T A   1       9.046  -0.643  26.003  0.00  0.00    +0.331 A 
ATOM      8  O2    T A   1       8.690  -0.613  27.178  0.00  0.00    -0.246 OA
ATOM      9  N1    T A   1       8.471  -1.435  25.009  0.00  0.00    -0.274 N 
ATOM     10  C6    T A   1       8.652  -1.085  23.676  0.00  0.00    +0.101 A 
ENDROOT
BRANCH   9  11
ATOM     11  C1*   T A   1       7.373  -2.362  25.355  0.00  0.00    +0.226 C 
ATOM     12  O4*   T A   1       6.718  -2.758  24.124  0.00  0.00    -0.348 OA
ATOM     13  C4*   T A   1       6.917  -4.168  23.905  0.00  0.00    +0.175 C 
ATOM     14  C3*   T A   1       7.982  -4.619  24.896  0.00  0.00    +0.150 C 
ATOM     15  C2*   T A   1       7.742  -3.677  26.048  0.00  0.00    +0.088 C 
BRANCH  14  16
ATOM     16  O3*   T A   1       9.307  -4.469  24.389  0.00  0.00    -0.389 OA
ATOM     17  H3*   T A   1       9.834  -5.244  24.662  0.00  0.00    +0.210 HD
ENDBRANCH  14  16
BRANCH  13  18
ATOM     18  C5*   T A   1       7.264  -4.448  22.445  0.00  0.00    +0.190 C 
BRANCH  18  19
ATOM     19  O5*   T A   1       7.600  -5.816  22.245  0.00  0.00    -0.392 OA
ATOM     20  H5*   T A   1       8.560  -5.847  22.067  0.00  0.00    +0.210 HD
ENDBRANCH  18  19
ENDBRANCH  13  18
ENDBRANCH   9  11
TORSDOF 4
ENDMDL
MODEL 6
REMARK VINA RESULT:      -5.3      5.020      7.598
REMARK  Name = 
REMARK  5 active torsions:
REMARK  status: ('A' for Active; 'I' for Inactive)
REMARK    1  A    between atoms: C5M_1  and  C5_2
REMARK    2  A    between atoms: N1_4  and  C1*_10
REMARK    3  A    between atoms: C3*_13  and  O3*_19
REMARK    4  A    between atoms: C4*_14  and  C5*_17
REMARK    5  A    between atoms: C5*_17  and  O5*_18
REMARK                            x       y       z     vdW  Elec       q    Type
REMARK                         _______ _______ _______ _____ _____    ______ ____
ROOT
ATOM      1  C5M   T A   1       5.752  -2.314  24.067  0.00  0.00    +0.051 C 
ATOM      2  C5    T A   1       7.159  -1.962  23.711  0.00  0.00    +0.030 A 
ATOM      3  C4    T A   1       8.210  -2.941  24.053  0.00  0.00    +0.257 A 
ATOM      4  O4    T A   1       7.954  -4.009  24.598  0.00  0.00    -0.267 OA
ATOM      5  N3    T A   1       9.475  -2.603  23.683  0.00  0.00    -0.275 N 
ATOM      6  H3    T A   1      10.171  -3.321  23.804  0.00  0.00    +0.173 HD
ATOM      7  C2    T A   1       9.784  -1.619  22.783  0.00  0.00    +0.331 A 
ATOM      8  O2    T A   1      10.839  -1.687  22.159  0.00  0.00    -0.246 OA
ATOM      9  N1    T A   1       8.830  -0.611  22.643  0.00  0.00    -0.274 N 
ATOM     10  C6    T A   1       7.526  -0.850  23.058  0.00  0.00    +0.101 A 
ENDROOT
BRANCH   9  11
ATOM     11  C1*   T A   1       9.085   0.514  21.718  0.00  0.00    +0.226 C 
ATOM     12  O4*   T A   1       7.842   1.238  21.544  0.00  0.00    -0.348 OA
ATOM     13  C4*   T A   1       7.975   2.563  22.095  0.00  0.00    +0.175 C 
ATOM     14  C3*   T A   1       9.267   2.573  22.903  0.00  0.00    +0.150 C 
ATOM     15  C2*   T A   1      10.104   1.574  22.146  0.00  0.00    +0.088 C 
BRANCH  14  16
ATOM     16  O3*   T A   1       9.078   2.154  24.253  0.00  0.00    -0.389 OA
ATOM     17  H3*   T A   1       8.701   1.254  24.249  0.00  0.00    +0.210 HD
ENDBRANCH  14  16
BRANCH  13  18
ATOM     18  C5*   T A   1       6.735   2.946  22.898  0.00  0.00    +0.190 C 
BRANCH  18  19
ATOM     19  O5*   T A   1       5.652   2.062  22.633  0.00  0.00    -0.392 OA
ATOM     20  H5*   T A   1       5.870   1.213  23.065  0.00  0.00    +0.210 HD
ENDBRANCH  18  19
ENDBRANCH  13  18
ENDBRANCH   9  11
TORSDOF 4
ENDMDL
MODEL 7
REMARK VINA RESULT:      -5.3      4.827      7.709
REMARK  Name = 
REMARK  5 active torsions:
REMARK  status: ('A' for Active; 'I' for Inactive)
REMARK    1  A    between atoms: C5M_1  and  C5_2
REMARK    2  A    between atoms: N1_4  and  C1*_10
REMARK    3  A    between atoms: C3*_13  and  O3*_19
REMARK    4  A    between atoms: C4*_14  and  C5*_17
REMARK    5  A    between atoms: C5*_17  and  O5*_18
REMARK                            x       y       z     vdW  Elec       q    Type
REMARK                         _______ _______ _______ _____ _____    ______ ____
ROOT
ATOM      1  C5M   T A   1       6.979  -2.582  26.020  0.00  0.00    +0.051 C 
ATOM      2  C5    T A   1       8.027  -2.167  25.040  0.00  0.00    +0.030 A 
ATOM      3  C4    T A   1       9.130  -3.116  24.786  0.00  0.00    +0.257 A 
ATOM      4  O4    T A   1       9.193  -4.207  25.340  0.00  0.00    -0.267 OA
ATOM      5  N3    T A   1      10.048  -2.720  23.863  0.00  0.00    -0.275 N 
ATOM      6  H3    T A   1      10.729  -3.416  23.599  0.00  0.00    +0.173 HD
ATOM      7  C2    T A   1       9.861  -1.701  22.969  0.00  0.00    +0.331 A 
ATOM      8  O2    T A   1      10.479  -1.712  21.909  0.00  0.00    -0.246 OA
ATOM      9  N1    T A   1       8.942  -0.725  23.354  0.00  0.00    -0.274 N 
ATOM     10  C6    T A   1       8.010  -1.025  24.340  0.00  0.00    +0.101 A 
ENDROOT
BRANCH   9  11
ATOM     11  C1*   T A   1       8.692   0.434  22.471  0.00  0.00    +0.226 C 
ATOM     12  O4*   T A   1       7.874   1.382  23.201  0.00  0.00    -0.348 OA
ATOM     13  C4*   T A   1       8.624   2.591  23.427  0.00  0.00    +0.175 C 
ATOM     14  C3*   T A   1      10.072   2.280  23.071  0.00  0.00    +0.150 C 
ATOM     15  C2*   T A   1       9.902   1.241  21.993  0.00  0.00    +0.088 C 
BRANCH  14  16
ATOM     16  O3*   T A   1      10.811   1.751  24.171  0.00  0.00    -0.389 OA
ATOM     17  H3*   T A   1      11.032   2.482  24.777  0.00  0.00    +0.210 HD
ENDBRANCH  14  16
BRANCH  13  18
ATOM     18  C5*   T A   1       8.428   3.095  24.854  0.00  0.00    +0.190 C 
BRANCH  18  19
ATOM     19  O5*   T A   1       8.342   2.016  25.778  0.00  0.00    -0.392 OA
ATOM     20  H5*   T A   1       8.005   2.389  26.616  0.00  0.00    +0.210 HD
ENDBRANCH  18  19
ENDBRANCH  13  18
ENDBRANCH   9  11
TORSDOF 4
ENDMDL
MODEL 8
REMARK VINA RESULT:      -5.2      2.303      3.870
REMARK  Name = 
REMARK  5 active torsions:
REMARK  status: ('A' for Active; 'I' for Inactive)
REMARK    1  A    between atoms: C5M_1  and  C5_2
REMARK    2  A    between atoms: N1_4  and  C1*_10
REMARK    3  A    between atoms: C3*_13  and  O3*_19
REMARK    4  A    between atoms: C4*_14  and  C5*_17
REMARK    5  A    between atoms: C5*_17  and  O5*_18
REMARK                            x       y       z     vdW  Elec       q    Type
REMARK                         _______ _______ _______ _____ _____    ______ ____
ROOT
ATOM      1  C5M   T A   1       5.279  -4.091  27.917  0.00  0.00    +0.051 C 
ATOM      2  C5    T A   1       6.371  -4.299  26.919  0.00  0.00    +0.030 A 
ATOM      3  C4    T A   1       7.298  -5.424  27.154  0.00  0.00    +0.257 A 
ATOM      4  O4    T A   1       7.186  -6.172  28.119  0.00  0.00    -0.267 OA
ATOM      5  N3    T A   1       8.259  -5.605  26.207  0.00  0.00    -0.275 N 
ATOM      6  H3    T A   1       8.811  -6.442  26.302  0.00  0.00    +0.173 HD
ATOM      7  C2    T A   1       8.232  -5.046  24.958  0.00  0.00    +0.331 A 
ATOM      8  O2    T A   1       8.828  -5.602  24.040  0.00  0.00    -0.246 OA
ATOM      9  N1    T A   1       7.492  -3.870  24.841  0.00  0.00    -0.274 N 
ATOM     10  C6    T A   1       6.534  -3.575  25.804  0.00  0.00    +0.101 A 
ENDROOT
BRANCH   9  11
ATOM     11  C1*   T A   1       7.428  -3.172  23.540  0.00  0.00    +0.226 C 
ATOM     12  O4*   T A   1       7.590  -4.162  22.493  0.00  0.00    -0.348 OA
ATOM     13  C4*   T A   1       6.374  -4.253  21.725  0.00  0.00    +0.175 C 
ATOM     14  C3*   T A   1       5.308  -3.490  22.501  0.00  0.00    +0.150 C 
ATOM     15  C2*   T A   1       6.133  -2.433  23.188  0.00  0.00    +0.088 C 
BRANCH  14  16
ATOM     16  O3*   T A   1       4.630  -4.303  23.457  0.00  0.00    -0.389 OA
ATOM     17  H3*   T A   1       3.833  -3.829  23.760  0.00  0.00    +0.210 HD
ENDBRANCH  14  16
BRANCH  13  18
ATOM     18  C5*   T A   1       6.016  -5.710  21.443  0.00  0.00    +0.190 C 
BRANCH  18  19
ATOM     19  O5*   T A   1       6.188  -6.520  22.600  0.00  0.00    -0.392 OA
ATOM     20  H5*   T A   1       5.293  -6.769  22.906  0.00  0.00    +0.210 HD
ENDBRANCH  18  19
ENDBRANCH  13  18
ENDBRANCH   9  11
TORSDOF 4
ENDMDL
MODEL 9
REMARK VINA RESULT:      -5.2      6.089      8.099
REMARK  Name = 
REMARK  5 active torsions:
REMARK  status: ('A' for Active; 'I' for Inactive)
REMARK    1  A    between atoms: C5M_1  and  C5_2
REMARK    2  A    between atoms: N1_4  and  C1*_10
REMARK    3  A    between atoms: C3*_13  and  O3*_19
REMARK    4  A    between atoms: C4*_14  and  C5*_17
REMARK    5  A    between atoms: C5*_17  and  O5*_18
REMARK                            x       y       z     vdW  Elec       q    Type
REMARK                         _______ _______ _______ _____ _____    ______ ____
ROOT
ATOM      1  C5M   T A   1       5.290   2.849  22.624  0.00  0.00    +0.051 C 
ATOM      2  C5    T A   1       6.763   2.623  22.716  0.00  0.00    +0.030 A 
ATOM      3  C4    T A   1       7.645   3.767  22.409  0.00  0.00    +0.257 A 
ATOM      4  O4    T A   1       7.202   4.867  22.098  0.00  0.00    -0.267 OA
ATOM      5  N3    T A   1       8.980   3.535  22.536  0.00  0.00    -0.275 N 
ATOM      6  H3    T A   1       9.574   4.345  22.448  0.00  0.00    +0.173 HD
ATOM      7  C2    T A   1       9.522   2.468  23.200  0.00  0.00    +0.331 A 
ATOM      8  O2    T A   1      10.650   2.568  23.675  0.00  0.00    -0.246 OA
ATOM      9  N1    T A   1       8.708   1.340  23.291  0.00  0.00    -0.274 N 
ATOM     10  C6    T A   1       7.337   1.477  23.107  0.00  0.00    +0.101 A 
ENDROOT
BRANCH   9  11
ATOM     11  C1*   T A   1       9.215   0.124  23.961  0.00  0.00    +0.226 C 
ATOM     12  O4*   T A   1       8.142  -0.851  23.988  0.00  0.00    -0.348 OA
ATOM     13  C4*   T A   1       8.502  -1.985  23.174  0.00  0.00    +0.175 C 
ATOM     14  C3*   T A   1       9.734  -1.576  22.375  0.00  0.00    +0.150 C 
ATOM     15  C2*   T A   1      10.397  -0.606  23.318  0.00  0.00    +0.088 C 
BRANCH  14  16
ATOM     16  O3*   T A   1       9.407  -0.938  21.142  0.00  0.00    -0.389 OA
ATOM     17  H3*   T A   1       9.562   0.020  21.237  0.00  0.00    +0.210 HD
ENDBRANCH  14  16
BRANCH  13  18
ATOM     18  C5*   T A   1       7.323  -2.434  22.315  0.00  0.00    +0.190 C 
BRANCH  18  19
ATOM     19  O5*   T A   1       6.120  -1.783  22.704  0.00  0.00    -0.392 OA
ATOM     20  H5*   T A   1       5.580  -2.447  23.177  0.00  0.00    +0.210 HD
ENDBRANCH  18  19
ENDBRANCH  13  18
ENDBRANCH   9  11
TORSDOF 4
ENDMDL
