MODEL 1
REMARK VINA RESULT:      -6.0      0.000      0.000
REMARK  Name = 
REMARK  5 active torsions:
REMARK  status: ('A' for Active; 'I' for Inactive)
REMARK    1  A    between atoms: C5M_1  and  C5_2
REMARK    2  A    between atoms: N1_4  and  C1*_10
REMARK    3  A    between atoms: C3*_13  and  O3*_20
REMARK    4  A    between atoms: C4*_15  and  C5*_18
REMARK    5  A    between atoms: C5*_18  and  O5*_19
REMARK                            x       y       z     vdW  Elec       q    Type
REMARK                         _______ _______ _______ _____ _____    ______ ____
ROOT
ATOM      1  C5M   T A   1       7.793  -5.630  23.394  0.00  0.00    +0.019 C 
ATOM      2  C5    T A   1       8.102  -4.401  24.246  0.00  0.00    +0.090 C 
ATOM      3  C4    T A   1       9.218  -4.721  25.215  0.00  0.00    +0.225 C 
ATOM      4  O4    T A   1      10.401  -4.727  24.874  0.00  0.00    -0.275 OA
ATOM      5  N3    T A   1       8.842  -5.113  26.475  0.00  0.00    -0.240 N 
ATOM      6  H3    T A   1       9.585  -5.445  27.072  0.00  0.00    +0.159 HD
ATOM      7  C2    T A   1       7.568  -5.391  26.892  0.00  0.00    +0.310 C 
ATOM      8  O2    T A   1       7.368  -6.033  27.919  0.00  0.00    -0.252 OA
ATOM      9  N1    T A   1       6.564  -4.954  26.049  0.00  0.00    -0.259 N 
ATOM     10  C6    T A   1       6.904  -3.936  25.063  0.00  0.00    +0.124 C 
ENDROOT
BRANCH   9  11
ATOM     11  C1*   T A   1       5.184  -5.274  26.393  0.00  0.00    +0.212 C 
ATOM     12  O4*   T A   1       4.280  -4.573  25.525  0.00  0.00    -0.350 OA
ATOM     13  C4*   T A   1       3.691  -5.515  24.603  0.00  0.00    +0.174 C 
ATOM     14  C3*   T A   1       4.471  -6.813  24.755  0.00  0.00    +0.150 C 
ATOM     15  C2*   T A   1       4.880  -6.758  26.208  0.00  0.00    +0.086 C 
BRANCH  14  16
ATOM     16  O3*   T A   1       3.710  -7.958  24.416  0.00  0.00    -0.389 OA
ATOM     17  H3*   T A   1       2.945  -8.022  25.014  0.00  0.00    +0.210 HD
ENDBRANCH  14  16
BRANCH  13  18
ATOM     18  C5*   T A   1       3.736  -4.977  23.167  0.00  0.00    +0.190 C 
BRANCH  18  19
ATOM     19  O5*   T A   1       4.373  -5.892  22.276  0.00  0.00    -0.392 OA
ATOM     20  H5*   T A   1       4.622  -6.681  22.785  0.00  0.00    +0.210 HD
ENDBRANCH  18  19
ENDBRANCH  13  18
ENDBRANCH   9  11
TORSDOF 4
ENDMDL
MODEL 2
REMARK VINA RESULT:      -5.8      3.948      6.475
REMARK  Name = 
REMARK  5 active torsions:
REMARK  status: ('A' for Active; 'I' for Inactive)
REMARK    1  A    between atoms: C5M_1  and  C5_2
REMARK    2  A    between atoms: N1_4  and  C1*_10
REMARK    3  A    between atoms: C3*_13  and  O3*_20
REMARK    4  A    between atoms: C4*_15  and  C5*_18
REMARK    5  A    between atoms: C5*_18  and  O5*_19
REMARK                            x       y       z     vdW  Elec       q    Type
REMARK                         _______ _______ _______ _____ _____    ______ ____
ROOT
ATOM      1  C5M   T A   1       5.952  -1.648  24.109  0.00  0.00    +0.019 C 
ATOM      2  C5    T A   1       6.205  -2.569  22.916  0.00  0.00    +0.090 C 
ATOM      3  C4    T A   1       6.024  -4.009  23.338  0.00  0.00    +0.225 C 
ATOM      4  O4    T A   1       4.911  -4.526  23.445  0.00  0.00    -0.275 OA
ATOM      5  N3    T A   1       7.159  -4.688  23.703  0.00  0.00    -0.240 N 
ATOM      6  H3    T A   1       7.014  -5.604  24.102  0.00  0.00    +0.159 HD
ATOM      7  C2    T A   1       8.407  -4.151  23.872  0.00  0.00    +0.310 C 
ATOM      8  O2    T A   1       9.272  -4.754  24.500  0.00  0.00    -0.252 OA
ATOM      9  N1    T A   1       8.579  -2.885  23.344  0.00  0.00    -0.259 N 
ATOM     10  C6    T A   1       7.613  -2.428  22.354  0.00  0.00    +0.124 C 
ENDROOT
BRANCH   9  11
ATOM     11  C1*   T A   1       9.861  -2.222  23.544  0.00  0.00    +0.212 C 
ATOM     12  O4*   T A   1      10.236  -1.499  22.362  0.00  0.00    -0.350 OA
ATOM     13  C4*   T A   1      10.088  -0.085  22.610  0.00  0.00    +0.174 C 
ATOM     14  C3*   T A   1       9.340   0.046  23.929  0.00  0.00    +0.150 C 
ATOM     15  C2*   T A   1       9.800  -1.190  24.667  0.00  0.00    +0.086 C 
BRANCH  14  16
ATOM     16  O3*   T A   1       9.620   1.257  24.606  0.00  0.00    -0.389 OA
ATOM     17  H3*   T A   1       8.803   1.780  24.676  0.00  0.00    +0.210 HD
ENDBRANCH  14  16
BRANCH  13  18
ATOM     18  C5*   T A   1       9.346   0.599  21.454  0.00  0.00    +0.190 C 
BRANCH  18  19
ATOM     19  O5*   T A   1       9.563   2.009  21.442  0.00  0.00    -0.392 OA
ATOM     20  H5*   T A   1       9.271   2.349  20.580  0.00  0.00    +0.210 HD
ENDBRANCH  18  19
ENDBRANCH  13  18
ENDBRANCH   9  11
TORSDOF 4
ENDMDL
MODEL 3
REMARK VINA RESULT:      -5.6      2.228      4.676
REMARK  Name = 
REMARK  5 active torsions:
REMARK  status: ('A' for Active; 'I' for Inactive)
REMARK    1  A    between atoms: C5M_1  and  C5_2
REMARK    2  A    between atoms: N1_4  and  C1*_10
REMARK    3  A    between atoms: C3*_13  and  O3*_20
REMARK    4  A    between atoms: C4*_15  and  C5*_18
REMARK    5  A    between atoms: C5*_18  and  O5*_19
REMARK                            x       y       z     vdW  Elec       q    Type
REMARK                         _______ _______ _______ _____ _____    ______ ____
ROOT
ATOM      1  C5M   T A   1       6.091  -3.229  22.118  0.00  0.00    +0.019 C 
ATOM      2  C5    T A   1       6.910  -4.513  22.002  0.00  0.00    +0.090 C 
ATOM      3  C4    T A   1       6.090  -5.580  21.313  0.00  0.00    +0.225 C 
ATOM      4  O4    T A   1       5.950  -5.611  20.090  0.00  0.00    -0.275 OA
ATOM      5  N3    T A   1       5.416  -6.454  22.127  0.00  0.00    -0.240 N 
ATOM      6  H3    T A   1       4.773  -7.080  21.663  0.00  0.00    +0.159 HD
ATOM      7  C2    T A   1       5.287  -6.364  23.487  0.00  0.00    +0.310 C 
ATOM      8  O2    T A   1       4.415  -6.993  24.079  0.00  0.00    -0.252 OA
ATOM      9  N1    T A   1       6.155  -5.482  24.102  0.00  0.00    -0.259 N 
ATOM     10  C6    T A   1       7.334  -5.063  23.358  0.00  0.00    +0.124 C 
ENDROOT
BRANCH   9  11
ATOM     11  C1*   T A   1       6.031  -5.282  25.541  0.00  0.00    +0.212 C 
ATOM     12  O4*   T A   1       7.216  -5.739  26.210  0.00  0.00    -0.350 OA
ATOM     13  C4*   T A   1       7.967  -4.596  26.670  0.00  0.00    +0.174 C 
ATOM     14  C3*   T A   1       7.331  -3.374  26.021  0.00  0.00    +0.150 C 
ATOM     15  C2*   T A   1       5.888  -3.805  25.900  0.00  0.00    +0.086 C 
BRANCH  14  16
ATOM     16  O3*   T A   1       7.515  -2.189  26.776  0.00  0.00    -0.389 OA
ATOM     17  H3*   T A   1       7.494  -2.409  27.724  0.00  0.00    +0.210 HD
ENDBRANCH  14  16
BRANCH  13  18
ATOM     18  C5*   T A   1       9.451  -4.735  26.310  0.00  0.00    +0.190 C 
BRANCH  18  19
ATOM     19  O5*   T A   1       9.723  -5.963  25.634  0.00  0.00    -0.392 OA
ATOM     20  H5*   T A   1      10.061  -6.596  26.289  0.00  0.00    +0.210 HD
ENDBRANCH  18  19
ENDBRANCH  13  18
ENDBRANCH   9  11
TORSDOF 4
ENDMDL
MODEL 4
REMARK VINA RESULT:      -5.5      4.976      6.625
REMARK  Name = 
REMARK  5 active torsions:
REMARK  status: ('A' for Active; 'I' for Inactive)
REMARK    1  A    between atoms: C5M_1  and  C5_2
REMARK    2  A    between atoms: N1_4  and  C1*_10
REMARK    3  A    between atoms: C3*_13  and  O3*_20
REMARK    4  A    between atoms: C4*_15  and  C5*_18
REMARK    5  A    between atoms: C5*_18  and  O5*_19
REMARK                            x       y       z     vdW  Elec       q    Type
REMARK                         _______ _______ _______ _____ _____    ______ ____
ROOT
ATOM      1  C5M   T A   1       8.752  -2.269  22.511  0.00  0.00    +0.019 C 
ATOM      2  C5    T A   1       9.766  -2.323  23.652  0.00  0.00    +0.090 C 
ATOM      3  C4    T A   1       9.356  -3.385  24.647  0.00  0.00    +0.225 C 
ATOM      4  O4    T A   1       9.575  -4.582  24.456  0.00  0.00    -0.275 OA
ATOM      5  N3    T A   1       8.629  -2.962  25.730  0.00  0.00    -0.240 N 
ATOM      6  H3    T A   1       8.254  -3.691  26.320  0.00  0.00    +0.159 HD
ATOM      7  C2    T A   1       8.108  -1.710  25.920  0.00  0.00    +0.310 C 
ATOM      8  O2    T A   1       7.217  -1.518  26.742  0.00  0.00    -0.252 OA
ATOM      9  N1    T A   1       8.613  -0.731  25.086  0.00  0.00    -0.259 N 
ATOM     10  C6    T A   1       9.871  -1.004  24.406  0.00  0.00    +0.124 C 
ENDROOT
BRANCH   9  11
ATOM     11  C1*   T A   1       8.056   0.613  25.184  0.00  0.00    +0.212 C 
ATOM     12  O4*   T A   1       9.068   1.591  24.900  0.00  0.00    -0.350 OA
ATOM     13  C4*   T A   1       8.810   2.172  23.604  0.00  0.00    +0.174 C 
ATOM     14  C3*   T A   1       7.729   1.317  22.956  0.00  0.00    +0.150 C 
ATOM     15  C2*   T A   1       6.947   0.846  24.160  0.00  0.00    +0.086 C 
BRANCH  14  16
ATOM     16  O3*   T A   1       6.952   2.031  22.011  0.00  0.00    -0.389 OA
ATOM     17  H3*   T A   1       7.353   2.905  21.864  0.00  0.00    +0.210 HD
ENDBRANCH  14  16
BRANCH  13  18
ATOM     18  C5*   T A   1      10.091   2.220  22.761  0.00  0.00    +0.190 C 
BRANCH  18  19
ATOM     19  O5*   T A   1       9.819   2.052  21.370  0.00  0.00    -0.392 OA
ATOM     20  H5*   T A   1       9.847   1.101  21.173  0.00  0.00    +0.210 HD
ENDBRANCH  18  19
ENDBRANCH  13  18
ENDBRANCH   9  11
TORSDOF 4
ENDMDL
MODEL 5
REMARK VINA RESULT:      -5.5      3.590      4.663
REMARK  Name = 
REMARK  5 active torsions:
REMARK  status: ('A' for Active; 'I' for Inactive)
REMARK    1  A    between atoms: C5M_1  and  C5_2
REMARK    2  A    between atoms: N1_4  and  C1*_10
REMARK    3  A    between atoms: C3*_13  and  O3*_20
REMARK    4  A    between atoms: C4*_15  and  C5*_18
REMARK    5  A    between atoms: C5*_18  and  O5*_19
REMARK                            x       y       z     vdW  Elec       q    Type
REMARK                         _______ _______ _______ _____ _____    ______ ____
ROOT
ATOM      1  C5M   T A   1      10.231  -1.571  22.889  0.00  0.00    +0.019 C 
ATOM      2  C5    T A   1       9.131  -0.549  23.172  0.00  0.00    +0.090 C 
ATOM      3  C4    T A   1       9.671   0.543  24.068  0.00  0.00    +0.225 C 
ATOM      4  O4    T A   1      10.358   1.468  23.633  0.00  0.00    -0.275 OA
ATOM      5  N3    T A   1       9.449   0.397  25.413  0.00  0.00    -0.240 N 
ATOM      6  H3    T A   1       9.919   1.060  26.012  0.00  0.00    +0.159 HD
ATOM      7  C2    T A   1       8.928  -0.707  26.036  0.00  0.00    +0.310 C 
ATOM      8  O2    T A   1       9.065  -0.870  27.245  0.00  0.00    -0.252 OA
ATOM      9  N1    T A   1       8.312  -1.617  25.199  0.00  0.00    -0.259 N 
ATOM     10  C6    T A   1       7.925  -1.162  23.871  0.00  0.00    +0.124 C 
ENDROOT
BRANCH   9  11
ATOM     11  C1*   T A   1       7.795  -2.849  25.781  0.00  0.00    +0.212 C 
ATOM     12  O4*   T A   1       6.883  -3.484  24.871  0.00  0.00    -0.350 OA
ATOM     13  C4*   T A   1       7.513  -4.658  24.317  0.00  0.00    +0.174 C 
ATOM     14  C3*   T A   1       8.980  -4.590  24.719  0.00  0.00    +0.150 C 
ATOM     15  C2*   T A   1       8.903  -3.866  26.043  0.00  0.00    +0.086 C 
BRANCH  14  16
ATOM     16  O3*   T A   1       9.591  -5.865  24.796  0.00  0.00    -0.389 OA
ATOM     17  H3*   T A   1       9.126  -6.478  24.201  0.00  0.00    +0.210 HD
ENDBRANCH  14  16
BRANCH  13  18
ATOM     18  C5*   T A   1       7.332  -4.709  22.795  0.00  0.00    +0.190 C 
BRANCH  18  19
ATOM     19  O5*   T A   1       7.600  -6.009  22.270  0.00  0.00    -0.392 OA
ATOM     20  H5*   T A   1       7.041  -6.644  22.746  0.00  0.00    +0.210 HD
ENDBRANCH  18  19
ENDBRANCH  13  18
ENDBRANCH   9  11
TORSDOF 4
ENDMDL
MODEL 6
REMARK VINA RESULT:      -5.5      2.691      5.071
REMARK  Name = 
REMARK  5 active torsions:
REMARK  status: ('A' for Active; 'I' for Inactive)
REMARK    1  A    between atoms: C5M_1  and  C5_2
REMARK    2  A    between atoms: N1_4  and  C1*_10
REMARK    3  A    between atoms: C3*_13  and  O3*_20
REMARK    4  A    between atoms: C4*_15  and  C5*_18
REMARK    5  A    between atoms: C5*_18  and  O5*_19
REMARK                            x       y       z     vdW  Elec       q    Type
REMARK                         _______ _______ _______ _____ _____    ______ ____
ROOT
ATOM      1  C5M   T A   1       6.652  -3.096  26.958  0.00  0.00    +0.019 C 
ATOM      2  C5    T A   1       6.466  -4.479  26.338  0.00  0.00    +0.090 C 
ATOM      3  C4    T A   1       7.395  -5.466  27.008  0.00  0.00    +0.225 C 
ATOM      4  O4    T A   1       7.137  -5.970  28.102  0.00  0.00    -0.275 OA
ATOM      5  N3    T A   1       8.597  -5.694  26.388  0.00  0.00    -0.240 N 
ATOM      6  H3    T A   1       9.259  -6.254  26.905  0.00  0.00    +0.159 HD
ATOM      7  C2    T A   1       9.101  -5.007  25.316  0.00  0.00    +0.310 C 
ATOM      8  O2    T A   1      10.296  -5.062  25.039  0.00  0.00    -0.252 OA
ATOM      9  N1    T A   1       8.187  -4.225  24.637  0.00  0.00    -0.259 N 
ATOM     10  C6    T A   1       6.772  -4.500  24.846  0.00  0.00    +0.124 C 
ENDROOT
BRANCH   9  11
ATOM     11  C1*   T A   1       8.665  -3.412  23.526  0.00  0.00    +0.212 C 
ATOM     12  O4*   T A   1       7.584  -2.650  22.966  0.00  0.00    -0.350 OA
ATOM     13  C4*   T A   1       7.747  -1.264  23.333  0.00  0.00    +0.174 C 
ATOM     14  C3*   T A   1       8.847  -1.223  24.385  0.00  0.00    +0.150 C 
ATOM     15  C2*   T A   1       9.710  -2.392  23.974  0.00  0.00    +0.086 C 
BRANCH  14  16
ATOM     16  O3*   T A   1       9.535   0.015  24.418  0.00  0.00    -0.389 OA
ATOM     17  H3*   T A   1       9.490   0.428  23.537  0.00  0.00    +0.210 HD
ENDBRANCH  14  16
BRANCH  13  18
ATOM     18  C5*   T A   1       6.428  -0.676  23.852  0.00  0.00    +0.190 C 
BRANCH  18  19
ATOM     19  O5*   T A   1       6.619   0.096  25.038  0.00  0.00    -0.392 OA
ATOM     20  H5*   T A   1       6.960   0.966  24.775  0.00  0.00    +0.210 HD
ENDBRANCH  18  19
ENDBRANCH  13  18
ENDBRANCH   9  11
TORSDOF 4
ENDMDL
MODEL 7
REMARK VINA RESULT:      -5.5      2.749      5.457
REMARK  Name = 
REMARK  5 active torsions:
REMARK  status: ('A' for Active; 'I' for Inactive)
REMARK    1  A    between atoms: C5M_1  and  C5_2
REMARK    2  A    between atoms: N1_4  and  C1*_10
REMARK    3  A    between atoms: C3*_13  and  O3*_20
REMARK    4  A    between atoms: C4*_15  and  C5*_18
REMARK    5  A    between atoms: C5*_18  and  O5*_19
REMARK                            x       y       z     vdW  Elec       q    Type
REMARK                         _______ _______ _______ _____ _____    ______ ____
ROOT
ATOM      1  C5M   T A   1       5.769  -2.748  22.580  0.00  0.00    +0.019 C 
ATOM      2  C5    T A   1       6.237  -4.173  22.288  0.00  0.00    +0.090 C 
ATOM      3  C4    T A   1       5.334  -5.159  22.994  0.00  0.00    +0.225 C 
ATOM      4  O4    T A   1       4.231  -5.476  22.547  0.00  0.00    -0.275 OA
ATOM      5  N3    T A   1       5.756  -5.605  24.221  0.00  0.00    -0.240 N 
ATOM      6  H3    T A   1       5.091  -6.161  24.739  0.00  0.00    +0.159 HD
ATOM      7  C2    T A   1       6.826  -5.133  24.933  0.00  0.00    +0.310 C 
ATOM      8  O2    T A   1       6.932  -5.362  26.134  0.00  0.00    -0.252 OA
ATOM      9  N1    T A   1       7.711  -4.351  24.215  0.00  0.00    -0.259 N 
ATOM     10  C6    T A   1       7.661  -4.432  22.762  0.00  0.00    +0.124 C 
ENDROOT
BRANCH   9  11
ATOM     11  C1*   T A   1       8.838  -3.758  24.923  0.00  0.00    +0.212 C 
ATOM     12  O4*   T A   1       9.879  -3.410  23.997  0.00  0.00    -0.350 OA
ATOM     13  C4*   T A   1       9.920  -1.974  23.854  0.00  0.00    +0.174 C 
ATOM     14  C3*   T A   1       8.669  -1.437  24.536  0.00  0.00    +0.150 C 
ATOM     15  C2*   T A   1       8.450  -2.459  25.627  0.00  0.00    +0.086 C 
BRANCH  14  16
ATOM     16  O3*   T A   1       8.824  -0.113  25.013  0.00  0.00    -0.389 OA
ATOM     17  H3*   T A   1       9.526  -0.097  25.687  0.00  0.00    +0.210 HD
ENDBRANCH  14  16
BRANCH  13  18
ATOM     18  C5*   T A   1       9.989  -1.573  22.375  0.00  0.00    +0.190 C 
BRANCH  18  19
ATOM     19  O5*   T A   1      10.044  -0.156  22.210  0.00  0.00    -0.392 OA
ATOM     20  H5*   T A   1       9.590   0.065  21.380  0.00  0.00    +0.210 HD
ENDBRANCH  18  19
ENDBRANCH  13  18
ENDBRANCH   9  11
TORSDOF 4
ENDMDL
MODEL 8
REMARK VINA RESULT:      -5.4      5.860      7.774
REMARK  Name = 
REMARK  5 active torsions:
REMARK  status: ('A' for Active; 'I' for Inactive)
REMARK    1  A    between atoms: C5M_1  and  C5_2
REMARK    2  A    between atoms: N1_4  and  C1*_10
REMARK    3  A    between atoms: C3*_13  and  O3*_20
REMARK    4  A    between atoms: C4*_15  and  C5*_18
REMARK    5  A    between atoms: C5*_18  and  O5*_19
REMARK                            x       y       z     vdW  Elec       q    Type
REMARK                         _______ _______ _______ _____ _____    ______ ____
ROOT
ATOM      1  C5M   T A   1       8.485   0.137  25.633  0.00  0.00    +0.019 C 
ATOM      2  C5    T A   1       7.800  -0.976  24.842  0.00  0.00    +0.090 C 
ATOM      3  C4    T A   1       8.624  -2.240  24.926  0.00  0.00    +0.225 C 
ATOM      4  O4    T A   1       8.592  -2.980  25.910  0.00  0.00    -0.275 OA
ATOM      5  N3    T A   1       9.497  -2.471  23.893  0.00  0.00    -0.240 N 
ATOM      6  H3    T A   1      10.130  -3.248  24.018  0.00  0.00    +0.159 HD
ATOM      7  C2    T A   1       9.807  -1.602  22.882  0.00  0.00    +0.310 C 
ATOM      8  O2    T A   1      10.816  -1.762  22.201  0.00  0.00    -0.252 OA
ATOM      9  N1    T A   1       8.945  -0.531  22.742  0.00  0.00    -0.259 N 
ATOM     10  C6    T A   1       7.634  -0.632  23.368  0.00  0.00    +0.124 C 
ENDROOT
BRANCH   9  11
ATOM     11  C1*   T A   1       9.250   0.473  21.730  0.00  0.00    +0.212 C 
ATOM     12  O4*   T A   1       8.050   1.153  21.329  0.00  0.00    -0.350 OA
ATOM     13  C4*   T A   1       8.064   2.490  21.872  0.00  0.00    +0.174 C 
ATOM     14  C3*   T A   1       9.214   2.539  22.868  0.00  0.00    +0.150 C 
ATOM     15  C2*   T A   1      10.187   1.554  22.263  0.00  0.00    +0.086 C 
BRANCH  14  16
ATOM     16  O3*   T A   1       9.745   3.841  23.036  0.00  0.00    -0.389 OA
ATOM     17  H3*   T A   1      10.625   3.882  22.622  0.00  0.00    +0.210 HD
ENDBRANCH  14  16
BRANCH  13  18
ATOM     18  C5*   T A   1       6.718   2.830  22.525  0.00  0.00    +0.190 C 
BRANCH  18  19
ATOM     19  O5*   T A   1       6.060   3.907  21.859  0.00  0.00    -0.392 OA
ATOM     20  H5*   T A   1       6.241   3.826  20.908  0.00  0.00    +0.210 HD
ENDBRANCH  18  19
ENDBRANCH  13  18
ENDBRANCH   9  11
TORSDOF 4
ENDMDL
MODEL 9
REMARK VINA RESULT:      -5.3      4.564      6.453
REMARK  Name = 
REMARK  5 active torsions:
REMARK  status: ('A' for Active; 'I' for Inactive)
REMARK    1  A    between atoms: C5M_1  and  C5_2
REMARK    2  A    between atoms: N1_4  and  C1*_10
REMARK    3  A    between atoms: C3*_13  and  O3*_20
REMARK    4  A    between atoms: C4*_15  and  C5*_18
REMARK    5  A    between atoms: C5*_18  and  O5*_19
REMARK                            x       y       z     vdW  Elec       q    Type
REMARK                         _______ _______ _______ _____ _____    ______ ____
ROOT
ATOM      1  C5M   T A   1       7.860   0.396  25.439  0.00  0.00    +0.019 C 
ATOM      2  C5    T A   1       9.334   0.741  25.235  0.00  0.00    +0.090 C 
ATOM      3  C4    T A   1       9.461   1.849  24.214  0.00  0.00    +0.225 C 
ATOM      4  O4    T A   1       9.270   3.031  24.503  0.00  0.00    -0.275 OA
ATOM      5  N3    T A   1       9.695   1.465  22.919  0.00  0.00    -0.240 N 
ATOM      6  H3    T A   1       9.652   2.199  22.227  0.00  0.00    +0.159 HD
ATOM      7  C2    T A   1       9.670   0.184  22.434  0.00  0.00    +0.310 C 
ATOM      8  O2    T A   1       9.570  -0.032  21.230  0.00  0.00    -0.252 OA
ATOM      9  N1    T A   1       9.701  -0.809  23.395  0.00  0.00    -0.259 N 
ATOM     10  C6    T A   1      10.150  -0.443  24.732  0.00  0.00    +0.124 C 
ENDROOT
BRANCH   9  11
ATOM     11  C1*   T A   1       9.609  -2.196  22.958  0.00  0.00    +0.212 C 
ATOM     12  O4*   T A   1      10.046  -3.077  24.005  0.00  0.00    -0.350 OA
ATOM     13  C4*   T A   1       8.898  -3.751  24.562  0.00  0.00    +0.174 C 
ATOM     14  C3*   T A   1       7.670  -3.051  23.995  0.00  0.00    +0.150 C 
ATOM     15  C2*   T A   1       8.170  -2.600  22.642  0.00  0.00    +0.086 C 
BRANCH  14  16
ATOM     16  O3*   T A   1       6.533  -3.893  23.935  0.00  0.00    -0.389 OA
ATOM     17  H3*   T A   1       6.286  -4.029  23.003  0.00  0.00    +0.210 HD
ENDBRANCH  14  16
BRANCH  13  18
ATOM     18  C5*   T A   1       8.931  -3.710  26.095  0.00  0.00    +0.190 C 
BRANCH  18  19
ATOM     19  O5*   T A   1       9.013  -5.018  26.661  0.00  0.00    -0.392 OA
ATOM     20  H5*   T A   1       9.360  -4.931  27.564  0.00  0.00    +0.210 HD
ENDBRANCH  18  19
ENDBRANCH  13  18
ENDBRANCH   9  11
TORSDOF 4
ENDMDL
