MODEL 1
REMARK VINA RESULT:      -7.9      0.000      0.000
REMARK  Name = 
REMARK  12 active torsions:
REMARK  status: ('A' for Active; 'I' for Inactive)
REMARK    1  A    between atoms: C_1  and  C_2
REMARK    2  A    between atoms: C_2  and  C_3
REMARK    3  A    between atoms: C_2  and  C_4
REMARK    4  A    between atoms: C_4  and  C_5
REMARK    5  A    between atoms: C_4  and  N_7
REMARK    6  A    between atoms: C_5  and  O_6
REMARK    7  A    between atoms: C_9  and  C_29
REMARK    8  A    between atoms: C_15  and  O_27
REMARK    9  A    between atoms: C_16  and  C_18
REMARK   10  A    between atoms: C_18  and  C_19
REMARK   11  A    between atoms: O_27  and  C_28
REMARK   12  A    between atoms: C_29  and  O_31
REMARK                            x       y       z     vdW  Elec       q    Type
REMARK                         _______ _______ _______ _____ _____    ______ ____
ROOT
ATOM      1  N   UNL     1       7.535  -3.644  23.348  0.00  0.00    -0.323 N 
ATOM      2  C   UNL     1       8.408  -2.557  23.416  0.00  0.00    +0.044 A 
ATOM      3  C   UNL     1       8.689  -1.701  22.341  0.00  0.00    +0.069 A 
ATOM      4  C   UNL     1       9.493  -0.539  22.460  0.00  0.00    +0.125 A 
ATOM      5  C   UNL     1      10.081  -0.212  23.690  0.00  0.00    -0.001 A 
ATOM      6  C   UNL     1       9.882  -1.104  24.755  0.00  0.00    +0.020 A 
ATOM      7  C   UNL     1       9.025  -2.208  24.631  0.00  0.00    +0.040 A 
ATOM      8  C   UNL     1       8.637  -2.916  25.874  0.00  0.00    +0.180 C 
ATOM      9  O   UNL     1       9.145  -2.612  26.955  0.00  0.00    -0.291 OA
ATOM     10  C   UNL     1       7.502  -3.891  25.792  0.00  0.00    +0.185 C 
ATOM     11  C   UNL     1       7.622  -4.614  24.462  0.00  0.00    +0.128 C 
ENDROOT
BRANCH   4  12
ATOM     12  O   UNL     1       9.452   0.234  21.329  0.00  0.00    -0.495 OA
ATOM     13  C   UNL     1       8.430   1.214  21.223  0.00  0.00    +0.277 C 
ENDBRANCH   4  12
BRANCH  10  14
ATOM     14  C   UNL     1       7.440  -4.886  26.918  0.00  0.00    +0.317 C 
ATOM     15  O   UNL     1       6.642  -4.804  27.842  0.00  0.00    -0.250 OA
BRANCH  14  16
ATOM     16  O   UNL     1       8.393  -5.849  26.910  0.00  0.00    -0.480 OA
ATOM     17  H   UNL     1       8.642  -6.169  27.812  0.00  0.00    +0.295 HD
ENDBRANCH  14  16
ENDBRANCH  10  14
BRANCH   1  18
ATOM     18  C   UNL     1       6.737  -4.025  22.138  0.00  0.00    +0.101 C 
BRANCH  18  20
ATOM     19  C   UNL     1       4.954  -5.749  22.776  0.00  0.00    +0.009 C 
ATOM     20  C   UNL     1       6.336  -5.528  22.146  0.00  0.00    +0.005 C 
ATOM     21  C   UNL     1       6.327  -6.124  20.734  0.00  0.00    +0.009 C 
ENDBRANCH  18  20
BRANCH  18  22
ATOM     22  C   UNL     1       5.505  -3.080  22.043  0.00  0.00    +0.178 C 
BRANCH  22  23
ATOM     23  O   UNL     1       5.289  -2.416  23.290  0.00  0.00    -0.393 OA
ATOM     24  H   UNL     1       5.770  -2.948  23.953  0.00  0.00    +0.209 HD
ENDBRANCH  22  23
ENDBRANCH  18  22
ENDBRANCH   1  18
BRANCH   5  25
ATOM     25  C   UNL     1      10.739   1.109  24.038  0.00  0.00    +0.077 C 
BRANCH  25  26
ATOM     26  C   UNL     1       9.859   2.311  24.286  0.00  0.00    -0.006 A 
ATOM     27  C   UNL     1       8.633   2.254  24.962  0.00  0.00    +0.007 A 
ATOM     28  C   UNL     1       7.907   3.426  25.210  0.00  0.00    +0.002 A 
ATOM     29  C   UNL     1       8.380   4.660  24.759  0.00  0.00    +0.023 A 
ATOM     30  C   UNL     1       9.562   4.719  24.027  0.00  0.00    +0.076 A 
ATOM     31 CL   UNL     1      10.129   6.237  23.447  0.00  0.00    -0.081 Cl
ATOM     32  C   UNL     1      10.284   3.552  23.784  0.00  0.00    +0.145 A 
ATOM     33  F   UNL     1      11.425   3.609  23.079  0.00  0.00    -0.204 F 
ENDBRANCH  25  26
ENDBRANCH   5  25
TORSDOF 9
ENDMDL
MODEL 2
REMARK VINA RESULT:      -7.4      2.874      5.230
REMARK  Name = 
REMARK  12 active torsions:
REMARK  status: ('A' for Active; 'I' for Inactive)
REMARK    1  A    between atoms: C_1  and  C_2
REMARK    2  A    between atoms: C_2  and  C_3
REMARK    3  A    between atoms: C_2  and  C_4
REMARK    4  A    between atoms: C_4  and  C_5
REMARK    5  A    between atoms: C_4  and  N_7
REMARK    6  A    between atoms: C_5  and  O_6
REMARK    7  A    between atoms: C_9  and  C_29
REMARK    8  A    between atoms: C_15  and  O_27
REMARK    9  A    between atoms: C_16  and  C_18
REMARK   10  A    between atoms: C_18  and  C_19
REMARK   11  A    between atoms: O_27  and  C_28
REMARK   12  A    between atoms: C_29  and  O_31
REMARK                            x       y       z     vdW  Elec       q    Type
REMARK                         _______ _______ _______ _____ _____    ______ ____
ROOT
ATOM      1  N   UNL     1       5.246  -4.666  26.860  0.00  0.00    -0.323 N 
ATOM      2  C   UNL     1       6.246  -3.993  26.155  0.00  0.00    +0.044 A 
ATOM      3  C   UNL     1       7.101  -3.036  26.719  0.00  0.00    +0.069 A 
ATOM      4  C   UNL     1       8.181  -2.444  26.015  0.00  0.00    +0.125 A 
ATOM      5  C   UNL     1       8.418  -2.784  24.675  0.00  0.00    -0.001 A 
ATOM      6  C   UNL     1       7.519  -3.675  24.069  0.00  0.00    +0.020 A 
ATOM      7  C   UNL     1       6.503  -4.300  24.807  0.00  0.00    +0.040 A 
ATOM      8  C   UNL     1       5.800  -5.441  24.173  0.00  0.00    +0.180 C 
ATOM      9  O   UNL     1       6.026  -5.745  23.001  0.00  0.00    -0.291 OA
ATOM     10  C   UNL     1       4.936  -6.297  25.049  0.00  0.00    +0.185 C 
ATOM     11  C   UNL     1       4.242  -5.377  26.038  0.00  0.00    +0.128 C 
ENDROOT
BRANCH   4  12
ATOM     12  O   UNL     1       8.985  -1.698  26.835  0.00  0.00    -0.495 OA
ATOM     13  C   UNL     1       8.517  -0.428  27.261  0.00  0.00    +0.277 C 
ENDBRANCH   4  12
BRANCH  10  14
ATOM     14  C   UNL     1       3.920  -7.130  24.316  0.00  0.00    +0.317 C 
ATOM     15  O   UNL     1       3.506  -8.203  24.734  0.00  0.00    -0.250 OA
BRANCH  14  16
ATOM     16  O   UNL     1       3.546  -6.670  23.098  0.00  0.00    -0.480 OA
ATOM     17  H   UNL     1       4.286  -6.631  22.444  0.00  0.00    +0.295 HD
ENDBRANCH  14  16
ENDBRANCH  10  14
BRANCH   1  18
ATOM     18  C   UNL     1       4.973  -4.500  28.324  0.00  0.00    +0.101 C 
BRANCH  18  20
ATOM     19  C   UNL     1       2.996  -5.043  29.860  0.00  0.00    +0.009 C 
ATOM     20  C   UNL     1       3.464  -4.268  28.619  0.00  0.00    +0.005 C 
ATOM     21  C   UNL     1       3.145  -2.782  28.826  0.00  0.00    +0.009 C 
ENDBRANCH  18  20
BRANCH  18  22
ATOM     22  C   UNL     1       5.543  -5.739  29.075  0.00  0.00    +0.178 C 
BRANCH  22  23
ATOM     23  O   UNL     1       6.782  -6.149  28.490  0.00  0.00    -0.393 OA
ATOM     24  H   UNL     1       7.122  -6.855  29.071  0.00  0.00    +0.209 HD
ENDBRANCH  22  23
ENDBRANCH  18  22
ENDBRANCH   1  18
BRANCH   5  25
ATOM     25  C   UNL     1       9.663  -2.444  23.879  0.00  0.00    +0.077 C 
BRANCH  25  26
ATOM     26  C   UNL     1       9.676  -1.169  23.070  0.00  0.00    -0.006 A 
ATOM     27  C   UNL     1       9.191  -1.071  21.760  0.00  0.00    +0.007 A 
ATOM     28  C   UNL     1       9.179   0.164  21.100  0.00  0.00    +0.002 A 
ATOM     29  C   UNL     1       9.679   1.307  21.729  0.00  0.00    +0.023 A 
ATOM     30  C   UNL     1      10.226   1.208  23.004  0.00  0.00    +0.076 A 
ATOM     31 CL   UNL     1      10.869   2.610  23.767  0.00  0.00    -0.081 Cl
ATOM     32  C   UNL     1      10.235  -0.022  23.659  0.00  0.00    +0.145 A 
ATOM     33  F   UNL     1      10.761  -0.118  24.891  0.00  0.00    -0.204 F 
ENDBRANCH  25  26
ENDBRANCH   5  25
TORSDOF 9
ENDMDL
MODEL 3
REMARK VINA RESULT:      -7.2      3.583      7.925
REMARK  Name = 
REMARK  12 active torsions:
REMARK  status: ('A' for Active; 'I' for Inactive)
REMARK    1  A    between atoms: C_1  and  C_2
REMARK    2  A    between atoms: C_2  and  C_3
REMARK    3  A    between atoms: C_2  and  C_4
REMARK    4  A    between atoms: C_4  and  C_5
REMARK    5  A    between atoms: C_4  and  N_7
REMARK    6  A    between atoms: C_5  and  O_6
REMARK    7  A    between atoms: C_9  and  C_29
REMARK    8  A    between atoms: C_15  and  O_27
REMARK    9  A    between atoms: C_16  and  C_18
REMARK   10  A    between atoms: C_18  and  C_19
REMARK   11  A    between atoms: O_27  and  C_28
REMARK   12  A    between atoms: C_29  and  O_31
REMARK                            x       y       z     vdW  Elec       q    Type
REMARK                         _______ _______ _______ _____ _____    ______ ____
ROOT
ATOM      1  N   UNL     1       7.532   1.424  25.459  0.00  0.00    -0.323 N 
ATOM      2  C   UNL     1       7.713   0.057  25.675  0.00  0.00    +0.044 A 
ATOM      3  C   UNL     1       6.888  -0.730  26.492  0.00  0.00    +0.069 A 
ATOM      4  C   UNL     1       7.023  -2.136  26.612  0.00  0.00    +0.125 A 
ATOM      5  C   UNL     1       8.040  -2.808  25.919  0.00  0.00    -0.001 A 
ATOM      6  C   UNL     1       8.928  -2.026  25.165  0.00  0.00    +0.020 A 
ATOM      7  C   UNL     1       8.731  -0.646  25.005  0.00  0.00    +0.040 A 
ATOM      8  C   UNL     1       9.526   0.043  23.961  0.00  0.00    +0.180 C 
ATOM      9  O   UNL     1      10.406  -0.558  23.343  0.00  0.00    -0.291 OA
ATOM     10  C   UNL     1       9.114   1.433  23.580  0.00  0.00    +0.185 C 
ATOM     11  C   UNL     1       8.675   2.140  24.850  0.00  0.00    +0.128 C 
ENDROOT
BRANCH   4  12
ATOM     12  O   UNL     1       5.982  -2.697  27.304  0.00  0.00    -0.495 OA
ATOM     13  C   UNL     1       4.660  -2.427  26.863  0.00  0.00    +0.277 C 
ENDBRANCH   4  12
BRANCH  10  14
ATOM     14  C   UNL     1      10.175   2.237  22.879  0.00  0.00    +0.317 C 
ATOM     15  O   UNL     1      10.892   3.046  23.454  0.00  0.00    -0.250 OA
BRANCH  14  16
ATOM     16  O   UNL     1      10.238   2.089  21.535  0.00  0.00    -0.480 OA
ATOM     17  H   UNL     1       9.571   2.628  21.043  0.00  0.00    +0.295 HD
ENDBRANCH  14  16
ENDBRANCH  10  14
BRANCH   1  18
ATOM     18  C   UNL     1       6.409   2.238  26.027  0.00  0.00    +0.101 C 
BRANCH  18  20
ATOM     19  C   UNL     1       6.110   4.703  26.657  0.00  0.00    +0.009 C 
ATOM     20  C   UNL     1       6.921   3.421  26.897  0.00  0.00    +0.005 C 
ATOM     21  C   UNL     1       6.873   3.090  28.394  0.00  0.00    +0.009 C 
ENDBRANCH  18  20
BRANCH  18  22
ATOM     22  C   UNL     1       5.501   2.710  24.854  0.00  0.00    +0.178 C 
BRANCH  22  23
ATOM     23  O   UNL     1       4.919   1.585  24.191  0.00  0.00    -0.393 OA
ATOM     24  H   UNL     1       5.073   0.826  24.786  0.00  0.00    +0.209 HD
ENDBRANCH  22  23
ENDBRANCH  18  22
ENDBRANCH   1  18
BRANCH   5  25
ATOM     25  C   UNL     1       8.152  -4.309  25.739  0.00  0.00    +0.077 C 
BRANCH  25  26
ATOM     26  C   UNL     1       7.044  -5.033  25.012  0.00  0.00    -0.006 A 
ATOM     27  C   UNL     1       5.987  -5.689  25.655  0.00  0.00    +0.007 A 
ATOM     28  C   UNL     1       4.962  -6.282  24.907  0.00  0.00    +0.002 A 
ATOM     29  C   UNL     1       4.998  -6.254  23.511  0.00  0.00    +0.023 A 
ATOM     30  C   UNL     1       6.079  -5.666  22.861  0.00  0.00    +0.076 A 
ATOM     31 CL   UNL     1       6.137  -5.658  21.141  0.00  0.00    -0.081 Cl
ATOM     32  C   UNL     1       7.096  -5.074  23.608  0.00  0.00    +0.145 A 
ATOM     33  F   UNL     1       8.138  -4.505  22.982  0.00  0.00    -0.204 F 
ENDBRANCH  25  26
ENDBRANCH   5  25
TORSDOF 9
ENDMDL
MODEL 4
REMARK VINA RESULT:      -7.2      2.093      4.138
REMARK  Name = 
REMARK  12 active torsions:
REMARK  status: ('A' for Active; 'I' for Inactive)
REMARK    1  A    between atoms: C_1  and  C_2
REMARK    2  A    between atoms: C_2  and  C_3
REMARK    3  A    between atoms: C_2  and  C_4
REMARK    4  A    between atoms: C_4  and  C_5
REMARK    5  A    between atoms: C_4  and  N_7
REMARK    6  A    between atoms: C_5  and  O_6
REMARK    7  A    between atoms: C_9  and  C_29
REMARK    8  A    between atoms: C_15  and  O_27
REMARK    9  A    between atoms: C_16  and  C_18
REMARK   10  A    between atoms: C_18  and  C_19
REMARK   11  A    between atoms: O_27  and  C_28
REMARK   12  A    between atoms: C_29  and  O_31
REMARK                            x       y       z     vdW  Elec       q    Type
REMARK                         _______ _______ _______ _____ _____    ______ ____
ROOT
ATOM      1  N   UNL     1       6.635  -3.879  25.163  0.00  0.00    -0.323 N 
ATOM      2  C   UNL     1       6.935  -2.654  24.564  0.00  0.00    +0.044 A 
ATOM      3  C   UNL     1       7.679  -1.636  25.178  0.00  0.00    +0.069 A 
ATOM      4  C   UNL     1       8.067  -0.445  24.514  0.00  0.00    +0.125 A 
ATOM      5  C   UNL     1       7.679  -0.222  23.185  0.00  0.00    -0.001 A 
ATOM      6  C   UNL     1       6.862  -1.191  22.582  0.00  0.00    +0.020 A 
ATOM      7  C   UNL     1       6.551  -2.392  23.236  0.00  0.00    +0.040 A 
ATOM      8  C   UNL     1       5.946  -3.476  22.426  0.00  0.00    +0.180 C 
ATOM      9  O   UNL     1       5.625  -3.279  21.254  0.00  0.00    -0.291 OA
ATOM     10  C   UNL     1       5.891  -4.846  23.032  0.00  0.00    +0.185 C 
ATOM     11  C   UNL     1       5.576  -4.677  24.507  0.00  0.00    +0.128 C 
ENDROOT
BRANCH   4  12
ATOM     12  O   UNL     1       8.951   0.295  25.254  0.00  0.00    -0.495 OA
ATOM     13  C   UNL     1      10.339   0.067  25.067  0.00  0.00    +0.277 C 
ENDBRANCH   4  12
BRANCH  10  14
ATOM     14  C   UNL     1       4.898  -5.780  22.394  0.00  0.00    +0.317 C 
ATOM     15  O   UNL     1       3.819  -6.057  22.899  0.00  0.00    -0.250 OA
BRANCH  14  16
ATOM     16  O   UNL     1       5.305  -6.385  21.253  0.00  0.00    -0.480 OA
ATOM     17  H   UNL     1       4.765  -6.145  20.461  0.00  0.00    +0.295 HD
ENDBRANCH  14  16
ENDBRANCH  10  14
BRANCH   1  18
ATOM     18  C   UNL     1       7.100  -4.301  26.523  0.00  0.00    +0.101 C 
BRANCH  18  20
ATOM     19  C   UNL     1       6.500  -5.997  28.347  0.00  0.00    +0.009 C 
ATOM     20  C   UNL     1       5.961  -4.952  27.360  0.00  0.00    +0.005 C 
ATOM     21  C   UNL     1       5.163  -3.906  28.147  0.00  0.00    +0.009 C 
ENDBRANCH  18  20
BRANCH  18  22
ATOM     22  C   UNL     1       8.327  -5.244  26.354  0.00  0.00    +0.178 C 
BRANCH  22  23
ATOM     23  O   UNL     1       9.453  -4.729  27.069  0.00  0.00    -0.393 OA
ATOM     24  H   UNL     1       9.076  -4.203  27.800  0.00  0.00    +0.209 HD
ENDBRANCH  22  23
ENDBRANCH  18  22
ENDBRANCH   1  18
BRANCH   5  25
ATOM     25  C   UNL     1       8.222   0.858  22.269  0.00  0.00    +0.077 C 
BRANCH  25  26
ATOM     26  C   UNL     1       7.831   2.292  22.535  0.00  0.00    -0.006 A 
ATOM     27  C   UNL     1       6.558   2.815  22.275  0.00  0.00    +0.007 A 
ATOM     28  C   UNL     1       6.256   4.141  22.611  0.00  0.00    +0.002 A 
ATOM     29  C   UNL     1       7.228   4.966  23.180  0.00  0.00    +0.023 A 
ATOM     30  C   UNL     1       8.516   4.478  23.379  0.00  0.00    +0.076 A 
ATOM     31 CL   UNL     1       9.721   5.504  24.054  0.00  0.00    -0.081 Cl
ATOM     32  C   UNL     1       8.813   3.158  23.046  0.00  0.00    +0.145 A 
ATOM     33  F   UNL     1      10.055   2.685  23.240  0.00  0.00    -0.204 F 
ENDBRANCH  25  26
ENDBRANCH   5  25
TORSDOF 9
ENDMDL
MODEL 5
REMARK VINA RESULT:      -6.8      1.844      2.549
REMARK  Name = 
REMARK  12 active torsions:
REMARK  status: ('A' for Active; 'I' for Inactive)
REMARK    1  A    between atoms: C_1  and  C_2
REMARK    2  A    between atoms: C_2  and  C_3
REMARK    3  A    between atoms: C_2  and  C_4
REMARK    4  A    between atoms: C_4  and  C_5
REMARK    5  A    between atoms: C_4  and  N_7
REMARK    6  A    between atoms: C_5  and  O_6
REMARK    7  A    between atoms: C_9  and  C_29
REMARK    8  A    between atoms: C_15  and  O_27
REMARK    9  A    between atoms: C_16  and  C_18
REMARK   10  A    between atoms: C_18  and  C_19
REMARK   11  A    between atoms: O_27  and  C_28
REMARK   12  A    between atoms: C_29  and  O_31
REMARK                            x       y       z     vdW  Elec       q    Type
REMARK                         _______ _______ _______ _____ _____    ______ ____
ROOT
ATOM      1  N   UNL     1       5.844  -4.844  24.090  0.00  0.00    -0.323 N 
ATOM      2  C   UNL     1       6.809  -3.887  24.411  0.00  0.00    +0.044 A 
ATOM      3  C   UNL     1       7.363  -2.985  23.491  0.00  0.00    +0.069 A 
ATOM      4  C   UNL     1       8.258  -1.948  23.857  0.00  0.00    +0.125 A 
ATOM      5  C   UNL     1       8.659  -1.804  25.193  0.00  0.00    -0.001 A 
ATOM      6  C   UNL     1       8.183  -2.751  26.113  0.00  0.00    +0.020 A 
ATOM      7  C   UNL     1       7.243  -3.723  25.739  0.00  0.00    +0.040 A 
ATOM      8  C   UNL     1       6.571  -4.478  26.823  0.00  0.00    +0.180 C 
ATOM      9  O   UNL     1       6.916  -4.334  27.996  0.00  0.00    -0.291 OA
ATOM     10  C   UNL     1       5.366  -5.292  26.457  0.00  0.00    +0.185 C 
ATOM     11  C   UNL     1       5.631  -5.909  25.096  0.00  0.00    +0.128 C 
ENDROOT
BRANCH   4  12
ATOM     12  O   UNL     1       8.498  -1.083  22.822  0.00  0.00    -0.495 OA
ATOM     13  C   UNL     1       9.558  -1.384  21.928  0.00  0.00    +0.277 C 
ENDBRANCH   4  12
BRANCH  10  14
ATOM     14  C   UNL     1       5.001  -6.362  27.449  0.00  0.00    +0.317 C 
ATOM     15  O   UNL     1       3.848  -6.610  27.774  0.00  0.00    -0.250 OA
BRANCH  14  16
ATOM     16  O   UNL     1       6.040  -6.991  28.049  0.00  0.00    -0.480 OA
ATOM     17  H   UNL     1       5.957  -7.046  29.033  0.00  0.00    +0.295 HD
ENDBRANCH  14  16
ENDBRANCH  10  14
BRANCH   1  18
ATOM     18  C   UNL     1       5.230  -5.017  22.735  0.00  0.00    +0.101 C 
BRANCH  18  20
ATOM     19  C   UNL     1       6.038  -5.683  20.397  0.00  0.00    +0.009 C 
ATOM     20  C   UNL     1       5.978  -6.079  21.880  0.00  0.00    +0.005 C 
ATOM     21  C   UNL     1       7.410  -6.308  22.379  0.00  0.00    +0.009 C 
ENDBRANCH  18  20
BRANCH  18  22
ATOM     22  C   UNL     1       3.722  -5.355  22.918  0.00  0.00    +0.178 C 
BRANCH  22  23
ATOM     23  O   UNL     1       3.483  -6.735  22.629  0.00  0.00    -0.393 OA
ATOM     24  H   UNL     1       2.965  -6.740  21.802  0.00  0.00    +0.209 HD
ENDBRANCH  22  23
ENDBRANCH  18  22
ENDBRANCH   1  18
BRANCH   5  25
ATOM     25  C   UNL     1       9.390  -0.612  25.778  0.00  0.00    +0.077 C 
BRANCH  25  26
ATOM     26  C   UNL     1       9.088   0.761  25.227  0.00  0.00    -0.006 A 
ATOM     27  C   UNL     1       7.841   1.389  25.335  0.00  0.00    +0.007 A 
ATOM     28  C   UNL     1       7.660   2.692  24.855  0.00  0.00    +0.002 A 
ATOM     29  C   UNL     1       8.712   3.370  24.236  0.00  0.00    +0.023 A 
ATOM     30  C   UNL     1       9.936   2.731  24.061  0.00  0.00    +0.076 A 
ATOM     31 CL   UNL     1      11.223   3.556  23.272  0.00  0.00    -0.081 Cl
ATOM     32  C   UNL     1      10.114   1.435  24.542  0.00  0.00    +0.145 A 
ATOM     33  F   UNL     1      11.295   0.819  24.376  0.00  0.00    -0.204 F 
ENDBRANCH  25  26
ENDBRANCH   5  25
TORSDOF 9
ENDMDL
MODEL 6
REMARK VINA RESULT:      -6.8      2.401      4.494
REMARK  Name = 
REMARK  12 active torsions:
REMARK  status: ('A' for Active; 'I' for Inactive)
REMARK    1  A    between atoms: C_1  and  C_2
REMARK    2  A    between atoms: C_2  and  C_3
REMARK    3  A    between atoms: C_2  and  C_4
REMARK    4  A    between atoms: C_4  and  C_5
REMARK    5  A    between atoms: C_4  and  N_7
REMARK    6  A    between atoms: C_5  and  O_6
REMARK    7  A    between atoms: C_9  and  C_29
REMARK    8  A    between atoms: C_15  and  O_27
REMARK    9  A    between atoms: C_16  and  C_18
REMARK   10  A    between atoms: C_18  and  C_19
REMARK   11  A    between atoms: O_27  and  C_28
REMARK   12  A    between atoms: C_29  and  O_31
REMARK                            x       y       z     vdW  Elec       q    Type
REMARK                         _______ _______ _______ _____ _____    ______ ____
ROOT
ATOM      1  N   UNL     1       6.483  -3.908  25.635  0.00  0.00    -0.323 N 
ATOM      2  C   UNL     1       6.459  -2.580  25.204  0.00  0.00    +0.044 A 
ATOM      3  C   UNL     1       6.699  -1.476  26.035  0.00  0.00    +0.069 A 
ATOM      4  C   UNL     1       6.780  -0.143  25.558  0.00  0.00    +0.125 A 
ATOM      5  C   UNL     1       6.584   0.129  24.196  0.00  0.00    -0.001 A 
ATOM      6  C   UNL     1       6.258  -0.952  23.364  0.00  0.00    +0.020 A 
ATOM      7  C   UNL     1       6.254  -2.270  23.848  0.00  0.00    +0.040 A 
ATOM      8  C   UNL     1       6.200  -3.364  22.851  0.00  0.00    +0.180 C 
ATOM      9  O   UNL     1       6.046  -3.117  21.654  0.00  0.00    -0.291 OA
ATOM     10  C   UNL     1       6.497  -4.754  23.329  0.00  0.00    +0.185 C 
ATOM     11  C   UNL     1       5.885  -4.898  24.711  0.00  0.00    +0.128 C 
ENDROOT
BRANCH   4  12
ATOM     12  O   UNL     1       7.219   0.725  26.522  0.00  0.00    -0.495 OA
ATOM     13  C   UNL     1       6.842   0.480  27.868  0.00  0.00    +0.277 C 
ENDBRANCH   4  12
BRANCH  10  14
ATOM     14  C   UNL     1       6.003  -5.852  22.427  0.00  0.00    +0.317 C 
ATOM     15  O   UNL     1       6.749  -6.633  21.852  0.00  0.00    -0.250 OA
BRANCH  14  16
ATOM     16  O   UNL     1       4.667  -5.878  22.204  0.00  0.00    -0.480 OA
ATOM     17  H   UNL     1       4.417  -6.281  21.336  0.00  0.00    +0.295 HD
ENDBRANCH  14  16
ENDBRANCH  10  14
BRANCH   1  18
ATOM     18  C   UNL     1       6.811  -4.349  27.029  0.00  0.00    +0.101 C 
BRANCH  18  20
ATOM     19  C   UNL     1       5.959  -5.847  28.924  0.00  0.00    +0.009 C 
ATOM     20  C   UNL     1       5.566  -4.899  27.781  0.00  0.00    +0.005 C 
ATOM     21  C   UNL     1       4.704  -3.772  28.360  0.00  0.00    +0.009 C 
ENDBRANCH  18  20
BRANCH  18  22
ATOM     22  C   UNL     1       7.971  -5.384  26.957  0.00  0.00    +0.178 C 
BRANCH  22  23
ATOM     23  O   UNL     1       9.235  -4.721  27.032  0.00  0.00    -0.393 OA
ATOM     24  H   UNL     1       9.326  -4.242  26.186  0.00  0.00    +0.209 HD
ENDBRANCH  22  23
ENDBRANCH  18  22
ENDBRANCH   1  18
BRANCH   5  25
ATOM     25  C   UNL     1       6.890   1.441  23.499  0.00  0.00    +0.077 C 
BRANCH  25  26
ATOM     26  C   UNL     1       8.301   1.976  23.555  0.00  0.00    -0.006 A 
ATOM     27  C   UNL     1       9.444   1.168  23.515  0.00  0.00    +0.007 A 
ATOM     28  C   UNL     1      10.720   1.747  23.506  0.00  0.00    +0.002 A 
ATOM     29  C   UNL     1      10.868   3.134  23.567  0.00  0.00    +0.023 A 
ATOM     30  C   UNL     1       9.741   3.943  23.677  0.00  0.00    +0.076 A 
ATOM     31 CL   UNL     1       9.925   5.651  23.782  0.00  0.00    -0.081 Cl
ATOM     32  C   UNL     1       8.473   3.365  23.684  0.00  0.00    +0.145 A 
ATOM     33  F   UNL     1       7.385   4.145  23.788  0.00  0.00    -0.204 F 
ENDBRANCH  25  26
ENDBRANCH   5  25
TORSDOF 9
ENDMDL
MODEL 7
REMARK VINA RESULT:      -6.7      2.145      2.961
REMARK  Name = 
REMARK  12 active torsions:
REMARK  status: ('A' for Active; 'I' for Inactive)
REMARK    1  A    between atoms: C_1  and  C_2
REMARK    2  A    between atoms: C_2  and  C_3
REMARK    3  A    between atoms: C_2  and  C_4
REMARK    4  A    between atoms: C_4  and  C_5
REMARK    5  A    between atoms: C_4  and  N_7
REMARK    6  A    between atoms: C_5  and  O_6
REMARK    7  A    between atoms: C_9  and  C_29
REMARK    8  A    between atoms: C_15  and  O_27
REMARK    9  A    between atoms: C_16  and  C_18
REMARK   10  A    between atoms: C_18  and  C_19
REMARK   11  A    between atoms: O_27  and  C_28
REMARK   12  A    between atoms: C_29  and  O_31
REMARK                            x       y       z     vdW  Elec       q    Type
REMARK                         _______ _______ _______ _____ _____    ______ ____
ROOT
ATOM      1  N   UNL     1       7.168  -3.494  25.490  0.00  0.00    -0.323 N 
ATOM      2  C   UNL     1       7.892  -2.312  25.316  0.00  0.00    +0.044 A 
ATOM      3  C   UNL     1       8.930  -2.151  24.386  0.00  0.00    +0.069 A 
ATOM      4  C   UNL     1       9.578  -0.913  24.147  0.00  0.00    +0.125 A 
ATOM      5  C   UNL     1       9.212   0.225  24.880  0.00  0.00    -0.001 A 
ATOM      6  C   UNL     1       8.236   0.064  25.875  0.00  0.00    +0.020 A 
ATOM      7  C   UNL     1       7.560  -1.155  26.043  0.00  0.00    +0.040 A 
ATOM      8  C   UNL     1       6.349  -1.153  26.896  0.00  0.00    +0.180 C 
ATOM      9  O   UNL     1       6.023  -0.144  27.524  0.00  0.00    -0.291 OA
ATOM     10  C   UNL     1       5.460  -2.359  26.841  0.00  0.00    +0.185 C 
ATOM     11  C   UNL     1       6.356  -3.579  26.724  0.00  0.00    +0.128 C 
ENDROOT
BRANCH   4  12
ATOM     12  O   UNL     1      10.410  -0.967  23.060  0.00  0.00    -0.495 OA
ATOM     13  C   UNL     1       9.832  -0.877  21.767  0.00  0.00    +0.277 C 
ENDBRANCH   4  12
BRANCH  10  14
ATOM     14  C   UNL     1       4.528  -2.512  28.012  0.00  0.00    +0.317 C 
ATOM     15  O   UNL     1       4.533  -3.489  28.749  0.00  0.00    -0.250 OA
BRANCH  14  16
ATOM     16  O   UNL     1       3.598  -1.538  28.159  0.00  0.00    -0.480 OA
ATOM     17  H   UNL     1       2.929  -1.729  28.861  0.00  0.00    +0.295 HD
ENDBRANCH  14  16
ENDBRANCH  10  14
BRANCH   1  18
ATOM     18  C   UNL     1       7.362  -4.741  24.683  0.00  0.00    +0.101 C 
BRANCH  18  20
ATOM     19  C   UNL     1       7.330  -5.782  22.342  0.00  0.00    +0.009 C 
ATOM     20  C   UNL     1       7.069  -4.516  23.172  0.00  0.00    +0.005 C 
ATOM     21  C   UNL     1       5.622  -4.069  22.932  0.00  0.00    +0.009 C 
ENDBRANCH  18  20
BRANCH  18  22
ATOM     22  C   UNL     1       8.802  -5.273  24.937  0.00  0.00    +0.178 C 
BRANCH  22  23
ATOM     23  O   UNL     1       8.869  -5.944  26.198  0.00  0.00    -0.393 OA
ATOM     24  H   UNL     1       8.203  -5.505  26.760  0.00  0.00    +0.209 HD
ENDBRANCH  22  23
ENDBRANCH  18  22
ENDBRANCH   1  18
BRANCH   5  25
ATOM     25  C   UNL     1       9.618   1.652  24.568  0.00  0.00    +0.077 C 
BRANCH  25  26
ATOM     26  C   UNL     1       8.708   2.489  23.701  0.00  0.00    -0.006 A 
ATOM     27  C   UNL     1       7.678   1.960  22.913  0.00  0.00    +0.007 A 
ATOM     28  C   UNL     1       6.834   2.811  22.188  0.00  0.00    +0.002 A 
ATOM     29  C   UNL     1       7.028   4.193  22.217  0.00  0.00    +0.023 A 
ATOM     30  C   UNL     1       8.091   4.725  22.941  0.00  0.00    +0.076 A 
ATOM     31 CL   UNL     1       8.347   6.426  22.953  0.00  0.00    -0.081 Cl
ATOM     32  C   UNL     1       8.927   3.876  23.664  0.00  0.00    +0.145 A 
ATOM     33  F   UNL     1       9.951   4.389  24.365  0.00  0.00    -0.204 F 
ENDBRANCH  25  26
ENDBRANCH   5  25
TORSDOF 9
ENDMDL
MODEL 8
REMARK VINA RESULT:      -6.7      4.522      8.065
REMARK  Name = 
REMARK  12 active torsions:
REMARK  status: ('A' for Active; 'I' for Inactive)
REMARK    1  A    between atoms: C_1  and  C_2
REMARK    2  A    between atoms: C_2  and  C_3
REMARK    3  A    between atoms: C_2  and  C_4
REMARK    4  A    between atoms: C_4  and  C_5
REMARK    5  A    between atoms: C_4  and  N_7
REMARK    6  A    between atoms: C_5  and  O_6
REMARK    7  A    between atoms: C_9  and  C_29
REMARK    8  A    between atoms: C_15  and  O_27
REMARK    9  A    between atoms: C_16  and  C_18
REMARK   10  A    between atoms: C_18  and  C_19
REMARK   11  A    between atoms: O_27  and  C_28
REMARK   12  A    between atoms: C_29  and  O_31
REMARK                            x       y       z     vdW  Elec       q    Type
REMARK                         _______ _______ _______ _____ _____    ______ ____
ROOT
ATOM      1  N   UNL     1       7.867  -0.369  24.148  0.00  0.00    -0.323 N 
ATOM      2  C   UNL     1       7.448  -1.682  24.375  0.00  0.00    +0.044 A 
ATOM      3  C   UNL     1       8.234  -2.816  24.124  0.00  0.00    +0.069 A 
ATOM      4  C   UNL     1       7.833  -4.133  24.464  0.00  0.00    +0.125 A 
ATOM      5  C   UNL     1       6.580  -4.357  25.053  0.00  0.00    -0.001 A 
ATOM      6  C   UNL     1       5.745  -3.243  25.232  0.00  0.00    +0.020 A 
ATOM      7  C   UNL     1       6.193  -1.943  24.953  0.00  0.00    +0.040 A 
ATOM      8  C   UNL     1       5.370  -0.815  25.449  0.00  0.00    +0.180 C 
ATOM      9  O   UNL     1       4.279  -1.020  25.982  0.00  0.00    -0.291 OA
ATOM     10  C   UNL     1       5.982   0.553  25.424  0.00  0.00    +0.185 C 
ATOM     11  C   UNL     1       6.803   0.659  24.151  0.00  0.00    +0.128 C 
ENDROOT
BRANCH   4  12
ATOM     12  O   UNL     1       8.848  -5.039  24.306  0.00  0.00    -0.495 OA
ATOM     13  C   UNL     1       9.817  -5.148  25.337  0.00  0.00    +0.277 C 
ENDBRANCH   4  12
BRANCH  10  14
ATOM     14  C   UNL     1       4.998   1.688  25.501  0.00  0.00    +0.317 C 
ATOM     15  O   UNL     1       4.887   2.414  26.479  0.00  0.00    -0.250 OA
BRANCH  14  16
ATOM     16  O   UNL     1       4.156   1.813  24.446  0.00  0.00    -0.480 OA
ATOM     17  H   UNL     1       3.426   1.146  24.439  0.00  0.00    +0.295 HD
ENDBRANCH  14  16
ENDBRANCH  10  14
BRANCH   1  18
ATOM     18  C   UNL     1       9.226   0.020  23.651  0.00  0.00    +0.101 C 
BRANCH  18  20
ATOM     19  C   UNL     1      10.233   1.839  22.154  0.00  0.00    +0.009 C 
ATOM     20  C   UNL     1       9.166   0.741  22.274  0.00  0.00    +0.005 C 
ATOM     21  C   UNL     1       9.343  -0.238  21.108  0.00  0.00    +0.009 C 
ENDBRANCH  18  20
BRANCH  18  22
ATOM     22  C   UNL     1       9.923   0.881  24.745  0.00  0.00    +0.178 C 
BRANCH  22  23
ATOM     23  O   UNL     1       9.776   0.268  26.028  0.00  0.00    -0.393 OA
ATOM     24  H   UNL     1       9.889   0.991  26.674  0.00  0.00    +0.209 HD
ENDBRANCH  22  23
ENDBRANCH  18  22
ENDBRANCH   1  18
BRANCH   5  25
ATOM     25  C   UNL     1       6.121  -5.648  25.701  0.00  0.00    +0.077 C 
BRANCH  25  26
ATOM     26  C   UNL     1       4.647  -5.980  25.684  0.00  0.00    -0.006 A 
ATOM     27  C   UNL     1       3.822  -5.925  26.814  0.00  0.00    +0.007 A 
ATOM     28  C   UNL     1       2.450  -6.185  26.701  0.00  0.00    +0.002 A 
ATOM     29  C   UNL     1       1.895  -6.532  25.468  0.00  0.00    +0.023 A 
ATOM     30  C   UNL     1       2.717  -6.657  24.352  0.00  0.00    +0.076 A 
ATOM     31 CL   UNL     1       2.037  -7.113  22.839  0.00  0.00    -0.081 Cl
ATOM     32  C   UNL     1       4.081  -6.395  24.467  0.00  0.00    +0.145 A 
ATOM     33  F   UNL     1       4.875  -6.514  23.390  0.00  0.00    -0.204 F 
ENDBRANCH  25  26
ENDBRANCH   5  25
TORSDOF 9
ENDMDL
MODEL 9
REMARK VINA RESULT:      -6.7      4.562      7.912
REMARK  Name = 
REMARK  12 active torsions:
REMARK  status: ('A' for Active; 'I' for Inactive)
REMARK    1  A    between atoms: C_1  and  C_2
REMARK    2  A    between atoms: C_2  and  C_3
REMARK    3  A    between atoms: C_2  and  C_4
REMARK    4  A    between atoms: C_4  and  C_5
REMARK    5  A    between atoms: C_4  and  N_7
REMARK    6  A    between atoms: C_5  and  O_6
REMARK    7  A    between atoms: C_9  and  C_29
REMARK    8  A    between atoms: C_15  and  O_27
REMARK    9  A    between atoms: C_16  and  C_18
REMARK   10  A    between atoms: C_18  and  C_19
REMARK   11  A    between atoms: O_27  and  C_28
REMARK   12  A    between atoms: C_29  and  O_31
REMARK                            x       y       z     vdW  Elec       q    Type
REMARK                         _______ _______ _______ _____ _____    ______ ____
ROOT
ATOM      1  N   UNL     1       7.557  -0.510  23.702  0.00  0.00    -0.323 N 
ATOM      2  C   UNL     1       6.594  -1.516  23.605  0.00  0.00    +0.044 A 
ATOM      3  C   UNL     1       6.372  -2.288  22.455  0.00  0.00    +0.069 A 
ATOM      4  C   UNL     1       5.466  -3.378  22.411  0.00  0.00    +0.125 A 
ATOM      5  C   UNL     1       4.712  -3.713  23.544  0.00  0.00    -0.001 A 
ATOM      6  C   UNL     1       4.857  -2.898  24.678  0.00  0.00    +0.020 A 
ATOM      7  C   UNL     1       5.811  -1.870  24.719  0.00  0.00    +0.040 A 
ATOM      8  C   UNL     1       6.107  -1.264  26.039  0.00  0.00    +0.180 C 
ATOM      9  O   UNL     1       5.453  -1.576  27.034  0.00  0.00    -0.291 OA
ATOM     10  C   UNL     1       7.321  -0.391  26.144  0.00  0.00    +0.185 C 
ATOM     11  C   UNL     1       7.420   0.407  24.856  0.00  0.00    +0.128 C 
ENDROOT
BRANCH   4  12
ATOM     12  O   UNL     1       5.576  -4.093  21.248  0.00  0.00    -0.495 OA
ATOM     13  C   UNL     1       6.436  -5.222  21.232  0.00  0.00    +0.277 C 
ENDBRANCH   4  12
BRANCH  10  14
ATOM     14  C   UNL     1       7.333   0.536  27.329  0.00  0.00    +0.317 C 
ATOM     15  O   UNL     1       6.589   1.502  27.431  0.00  0.00    -0.250 OA
BRANCH  14  16
ATOM     16  O   UNL     1       8.291   0.299  28.257  0.00  0.00    -0.480 OA
ATOM     17  H   UNL     1       8.158  -0.542  28.759  0.00  0.00    +0.295 HD
ENDBRANCH  14  16
ENDBRANCH  10  14
BRANCH   1  18
ATOM     18  C   UNL     1       8.519  -0.140  22.615  0.00  0.00    +0.101 C 
BRANCH  18  20
ATOM     19  C   UNL     1      10.133   1.765  22.043  0.00  0.00    +0.009 C 
ATOM     20  C   UNL     1       8.713   1.398  22.498  0.00  0.00    +0.005 C 
ATOM     21  C   UNL     1       7.713   2.027  21.520  0.00  0.00    +0.009 C 
ENDBRANCH  18  20
BRANCH  18  22
ATOM     22  C   UNL     1       9.859  -0.892  22.868  0.00  0.00    +0.178 C 
BRANCH  22  23
ATOM     23  O   UNL     1      10.167  -1.744  21.762  0.00  0.00    -0.393 OA
ATOM     24  H   UNL     1       9.769  -1.310  20.983  0.00  0.00    +0.209 HD
ENDBRANCH  22  23
ENDBRANCH  18  22
ENDBRANCH   1  18
BRANCH   5  25
ATOM     25  C   UNL     1       3.911  -4.986  23.735  0.00  0.00    +0.077 C 
BRANCH  25  26
ATOM     26  C   UNL     1       3.880  -5.621  25.105  0.00  0.00    -0.006 A 
ATOM     27  C   UNL     1       4.967  -6.292  25.678  0.00  0.00    +0.007 A 
ATOM     28  C   UNL     1       4.879  -6.797  26.982  0.00  0.00    +0.002 A 
ATOM     29  C   UNL     1       3.697  -6.666  27.713  0.00  0.00    +0.023 A 
ATOM     30  C   UNL     1       2.588  -6.062  27.128  0.00  0.00    +0.076 A 
ATOM     31 CL   UNL     1       1.122  -5.926  28.020  0.00  0.00    -0.081 Cl
ATOM     32  C   UNL     1       2.679  -5.558  25.832  0.00  0.00    +0.145 A 
ATOM     33  F   UNL     1       1.610  -4.974  25.267  0.00  0.00    -0.204 F 
ENDBRANCH  25  26
ENDBRANCH   5  25
TORSDOF 9
ENDMDL
