MODEL 1
REMARK VINA RESULT:      -7.4      0.000      0.000
REMARK  Name = 
REMARK  12 active torsions:
REMARK  status: ('A' for Active; 'I' for Inactive)
REMARK    1  A    between atoms: C_1  and  C_2
REMARK    2  A    between atoms: C_2  and  C_3
REMARK    3  A    between atoms: C_2  and  C_4
REMARK    4  A    between atoms: C_4  and  C_5
REMARK    5  A    between atoms: C_4  and  N_7
REMARK    6  A    between atoms: C_5  and  O_6
REMARK    7  A    between atoms: C_9  and  C_29
REMARK    8  A    between atoms: C_15  and  O_27
REMARK    9  A    between atoms: C_16  and  C_18
REMARK   10  A    between atoms: C_18  and  C_19
REMARK   11  A    between atoms: O_27  and  C_28
REMARK   12  A    between atoms: C_29  and  O_31
REMARK                            x       y       z     vdW  Elec       q    Type
REMARK                         _______ _______ _______ _____ _____    ______ ____
ROOT
ATOM      1  N   UNL     1       7.672  -4.077  24.687  0.00  0.00    -0.340 N 
ATOM      2  C   UNL     1       8.126  -2.971  23.920  0.00  0.00    +0.057 A 
ATOM      3  C   UNL     1       9.155  -2.093  24.300  0.00  0.00    +0.072 A 
ATOM      4  C   UNL     1       9.533  -0.964  23.534  0.00  0.00    +0.126 A 
ATOM      5  C   UNL     1       8.895  -0.702  22.318  0.00  0.00    -0.001 A 
ATOM      6  C   UNL     1       7.910  -1.608  21.890  0.00  0.00    +0.021 A 
ATOM      7  C   UNL     1       7.527  -2.702  22.677  0.00  0.00    +0.046 A 
ATOM      8  C   UNL     1       6.443  -3.569  22.167  0.00  0.00    +0.203 A 
ATOM      9  O   UNL     1       5.921  -3.378  21.069  0.00  0.00    -0.286 OA
ATOM     10  C   UNL     1       5.981  -4.676  23.017  0.00  0.00    +0.122 A 
ATOM     11  C   UNL     1       6.620  -4.848  24.184  0.00  0.00    +0.105 A 
ENDROOT
BRANCH   4  12
ATOM     12  O   UNL     1      10.608  -0.307  24.069  0.00  0.00    -0.495 OA
ATOM     13  C   UNL     1      10.443   0.393  25.293  0.00  0.00    +0.277 C 
ENDBRANCH   4  12
BRANCH  10  14
ATOM     14  C   UNL     1       4.864  -5.572  22.652  0.00  0.00    +0.342 C 
ATOM     15  O   UNL     1       3.813  -5.618  23.271  0.00  0.00    -0.245 OA
BRANCH  14  16
ATOM     16  O   UNL     1       5.093  -6.340  21.566  0.00  0.00    -0.477 OA
ATOM     17  H   UNL     1       4.274  -6.707  21.147  0.00  0.00    +0.295 HD
ENDBRANCH  14  16
ENDBRANCH  10  14
BRANCH   1  18
ATOM     18  C   UNL     1       8.275  -4.370  26.036  0.00  0.00    +0.115 C 
BRANCH  18  20
ATOM     19  C   UNL     1       6.191  -3.152  26.891  0.00  0.00    +0.009 C 
ATOM     20  C   UNL     1       7.221  -4.253  27.178  0.00  0.00    +0.008 C 
ATOM     21  C   UNL     1       6.467  -5.574  27.390  0.00  0.00    +0.009 C 
ENDBRANCH  18  20
BRANCH  18  22
ATOM     22  C   UNL     1       8.975  -5.752  25.987  0.00  0.00    +0.181 C 
BRANCH  22  23
ATOM     23  O   UNL     1      10.192  -5.676  25.242  0.00  0.00    -0.393 OA
ATOM     24  H   UNL     1      10.743  -6.421  25.548  0.00  0.00    +0.209 HD
ENDBRANCH  22  23
ENDBRANCH  18  22
ENDBRANCH   1  18
BRANCH   5  25
ATOM     25  C   UNL     1       9.126   0.505  21.433  0.00  0.00    +0.077 C 
BRANCH  25  26
ATOM     26  C   UNL     1       8.518   1.791  21.962  0.00  0.00    -0.006 A 
ATOM     27  C   UNL     1       7.160   2.117  21.796  0.00  0.00    +0.007 A 
ATOM     28  C   UNL     1       6.629   3.292  22.333  0.00  0.00    +0.002 A 
ATOM     29  C   UNL     1       7.451   4.176  23.022  0.00  0.00    +0.023 A 
ATOM     30  C   UNL     1       8.810   3.892  23.159  0.00  0.00    +0.076 A 
ATOM     31 CL   UNL     1       9.820   4.999  24.006  0.00  0.00    -0.081 Cl
ATOM     32  C   UNL     1       9.337   2.713  22.626  0.00  0.00    +0.145 A 
ATOM     33  F   UNL     1      10.643   2.440  22.768  0.00  0.00    -0.204 F 
ENDBRANCH  25  26
ENDBRANCH   5  25
TORSDOF 9
ENDMDL
MODEL 2
REMARK VINA RESULT:      -7.3      2.278      3.393
REMARK  Name = 
REMARK  12 active torsions:
REMARK  status: ('A' for Active; 'I' for Inactive)
REMARK    1  A    between atoms: C_1  and  C_2
REMARK    2  A    between atoms: C_2  and  C_3
REMARK    3  A    between atoms: C_2  and  C_4
REMARK    4  A    between atoms: C_4  and  C_5
REMARK    5  A    between atoms: C_4  and  N_7
REMARK    6  A    between atoms: C_5  and  O_6
REMARK    7  A    between atoms: C_9  and  C_29
REMARK    8  A    between atoms: C_15  and  O_27
REMARK    9  A    between atoms: C_16  and  C_18
REMARK   10  A    between atoms: C_18  and  C_19
REMARK   11  A    between atoms: O_27  and  C_28
REMARK   12  A    between atoms: C_29  and  O_31
REMARK                            x       y       z     vdW  Elec       q    Type
REMARK                         _______ _______ _______ _____ _____    ______ ____
ROOT
ATOM      1  N   UNL     1       5.293  -4.284  26.448  0.00  0.00    -0.340 N 
ATOM      2  C   UNL     1       6.513  -3.812  25.894  0.00  0.00    +0.057 A 
ATOM      3  C   UNL     1       7.330  -2.822  26.465  0.00  0.00    +0.072 A 
ATOM      4  C   UNL     1       8.506  -2.335  25.847  0.00  0.00    +0.126 A 
ATOM      5  C   UNL     1       8.924  -2.871  24.625  0.00  0.00    -0.001 A 
ATOM      6  C   UNL     1       8.155  -3.910  24.073  0.00  0.00    +0.021 A 
ATOM      7  C   UNL     1       6.976  -4.356  24.684  0.00  0.00    +0.046 A 
ATOM      8  C   UNL     1       6.206  -5.417  23.998  0.00  0.00    +0.203 A 
ATOM      9  O   UNL     1       6.602  -5.934  22.954  0.00  0.00    -0.286 OA
ATOM     10  C   UNL     1       4.930  -5.841  24.589  0.00  0.00    +0.122 A 
ATOM     11  C   UNL     1       4.579  -5.261  25.748  0.00  0.00    +0.105 A 
ENDROOT
BRANCH   4  12
ATOM     12  O   UNL     1       9.171  -1.430  26.631  0.00  0.00    -0.495 OA
ATOM     13  C   UNL     1       8.441  -0.360  27.210  0.00  0.00    +0.277 C 
ENDBRANCH   4  12
BRANCH  10  14
ATOM     14  C   UNL     1       4.037  -6.843  23.970  0.00  0.00    +0.342 C 
ATOM     15  O   UNL     1       3.680  -7.863  24.538  0.00  0.00    -0.245 OA
BRANCH  14  16
ATOM     16  O   UNL     1       3.637  -6.539  22.717  0.00  0.00    -0.477 OA
ATOM     17  H   UNL     1       3.552  -7.321  22.117  0.00  0.00    +0.295 HD
ENDBRANCH  14  16
ENDBRANCH  10  14
BRANCH   1  18
ATOM     18  C   UNL     1       4.758  -3.698  27.727  0.00  0.00    +0.115 C 
BRANCH  18  20
ATOM     19  C   UNL     1       2.640  -2.790  28.845  0.00  0.00    +0.009 C 
ATOM     20  C   UNL     1       3.375  -3.012  27.516  0.00  0.00    +0.008 C 
ATOM     21  C   UNL     1       3.517  -1.654  26.812  0.00  0.00    +0.009 C 
ENDBRANCH  18  20
BRANCH  18  22
ATOM     22  C   UNL     1       4.735  -4.799  28.817  0.00  0.00    +0.181 C 
BRANCH  22  23
ATOM     23  O   UNL     1       6.063  -5.204  29.155  0.00  0.00    -0.393 OA
ATOM     24  H   UNL     1       6.563  -4.382  29.319  0.00  0.00    +0.209 HD
ENDBRANCH  22  23
ENDBRANCH  18  22
ENDBRANCH   1  18
BRANCH   5  25
ATOM     25  C   UNL     1      10.105  -2.400  23.803  0.00  0.00    +0.077 C 
BRANCH  25  26
ATOM     26  C   UNL     1       9.867  -1.098  23.060  0.00  0.00    -0.006 A 
ATOM     27  C   UNL     1       9.203  -1.038  21.821  0.00  0.00    +0.007 A 
ATOM     28  C   UNL     1       8.967   0.183  21.187  0.00  0.00    +0.002 A 
ATOM     29  C   UNL     1       9.415   1.366  21.766  0.00  0.00    +0.023 A 
ATOM     30  C   UNL     1      10.115   1.322  22.972  0.00  0.00    +0.076 A 
ATOM     31 CL   UNL     1      10.672   2.792  23.675  0.00  0.00    -0.081 Cl
ATOM     32  C   UNL     1      10.343   0.100  23.607  0.00  0.00    +0.145 A 
ATOM     33  F   UNL     1      11.009   0.064  24.771  0.00  0.00    -0.204 F 
ENDBRANCH  25  26
ENDBRANCH   5  25
TORSDOF 9
ENDMDL
MODEL 3
REMARK VINA RESULT:      -7.3      1.987      2.699
REMARK  Name = 
REMARK  12 active torsions:
REMARK  status: ('A' for Active; 'I' for Inactive)
REMARK    1  A    between atoms: C_1  and  C_2
REMARK    2  A    between atoms: C_2  and  C_3
REMARK    3  A    between atoms: C_2  and  C_4
REMARK    4  A    between atoms: C_4  and  C_5
REMARK    5  A    between atoms: C_4  and  N_7
REMARK    6  A    between atoms: C_5  and  O_6
REMARK    7  A    between atoms: C_9  and  C_29
REMARK    8  A    between atoms: C_15  and  O_27
REMARK    9  A    between atoms: C_16  and  C_18
REMARK   10  A    between atoms: C_18  and  C_19
REMARK   11  A    between atoms: O_27  and  C_28
REMARK   12  A    between atoms: C_29  and  O_31
REMARK                            x       y       z     vdW  Elec       q    Type
REMARK                         _______ _______ _______ _____ _____    ______ ____
ROOT
ATOM      1  N   UNL     1       5.886  -4.650  25.910  0.00  0.00    -0.340 N 
ATOM      2  C   UNL     1       6.709  -3.930  25.004  0.00  0.00    +0.057 A 
ATOM      3  C   UNL     1       7.691  -2.995  25.374  0.00  0.00    +0.072 A 
ATOM      4  C   UNL     1       8.446  -2.251  24.436  0.00  0.00    +0.126 A 
ATOM      5  C   UNL     1       8.255  -2.459  23.066  0.00  0.00    -0.001 A 
ATOM      6  C   UNL     1       7.324  -3.439  22.679  0.00  0.00    +0.021 A 
ATOM      7  C   UNL     1       6.564  -4.142  23.622  0.00  0.00    +0.046 A 
ATOM      8  C   UNL     1       5.571  -5.115  23.116  0.00  0.00    +0.203 A 
ATOM      9  O   UNL     1       5.443  -5.345  21.914  0.00  0.00    -0.286 OA
ATOM     10  C   UNL     1       4.715  -5.805  24.092  0.00  0.00    +0.122 A 
ATOM     11  C   UNL     1       4.935  -5.532  25.387  0.00  0.00    +0.105 A 
ENDROOT
BRANCH   4  12
ATOM     12  O   UNL     1       9.392  -1.463  25.034  0.00  0.00    -0.495 OA
ATOM     13  C   UNL     1       8.965  -0.388  25.857  0.00  0.00    +0.277 C 
ENDBRANCH   4  12
BRANCH  10  14
ATOM     14  C   UNL     1       3.643  -6.749  23.711  0.00  0.00    +0.342 C 
ATOM     15  O   UNL     1       3.377  -7.752  24.353  0.00  0.00    -0.245 OA
BRANCH  14  16
ATOM     16  O   UNL     1       2.969  -6.411  22.592  0.00  0.00    -0.477 OA
ATOM     17  H   UNL     1       3.532  -6.019  21.880  0.00  0.00    +0.295 HD
ENDBRANCH  14  16
ENDBRANCH  10  14
BRANCH   1  18
ATOM     18  C   UNL     1       5.999  -4.421  27.394  0.00  0.00    +0.115 C 
BRANCH  18  20
ATOM     19  C   UNL     1       4.515  -4.401  29.480  0.00  0.00    +0.009 C 
ATOM     20  C   UNL     1       4.643  -3.967  28.014  0.00  0.00    +0.008 C 
ATOM     21  C   UNL     1       4.472  -2.442  27.946  0.00  0.00    +0.009 C 
ENDBRANCH  18  20
BRANCH  18  22
ATOM     22  C   UNL     1       6.582  -5.693  28.059  0.00  0.00    +0.181 C 
BRANCH  22  23
ATOM     23  O   UNL     1       7.894  -5.967  27.563  0.00  0.00    -0.393 OA
ATOM     24  H   UNL     1       8.052  -5.325  26.846  0.00  0.00    +0.209 HD
ENDBRANCH  22  23
ENDBRANCH  18  22
ENDBRANCH   1  18
BRANCH   5  25
ATOM     25  C   UNL     1       8.919  -1.686  21.946  0.00  0.00    +0.077 C 
BRANCH  25  26
ATOM     26  C   UNL     1       8.898  -0.179  22.132  0.00  0.00    -0.006 A 
ATOM     27  C   UNL     1      10.059   0.612  22.078  0.00  0.00    +0.007 A 
ATOM     28  C   UNL     1       9.994   2.001  22.213  0.00  0.00    +0.002 A 
ATOM     29  C   UNL     1       8.769   2.621  22.434  0.00  0.00    +0.023 A 
ATOM     30  C   UNL     1       7.612   1.849  22.535  0.00  0.00    +0.076 A 
ATOM     31 CL   UNL     1       6.102   2.627  22.817  0.00  0.00    -0.081 Cl
ATOM     32  C   UNL     1       7.679   0.461  22.392  0.00  0.00    +0.145 A 
ATOM     33  F   UNL     1       6.563  -0.277  22.483  0.00  0.00    -0.204 F 
ENDBRANCH  25  26
ENDBRANCH   5  25
TORSDOF 9
ENDMDL
MODEL 4
REMARK VINA RESULT:      -6.7      3.841      7.858
REMARK  Name = 
REMARK  12 active torsions:
REMARK  status: ('A' for Active; 'I' for Inactive)
REMARK    1  A    between atoms: C_1  and  C_2
REMARK    2  A    between atoms: C_2  and  C_3
REMARK    3  A    between atoms: C_2  and  C_4
REMARK    4  A    between atoms: C_4  and  C_5
REMARK    5  A    between atoms: C_4  and  N_7
REMARK    6  A    between atoms: C_5  and  O_6
REMARK    7  A    between atoms: C_9  and  C_29
REMARK    8  A    between atoms: C_15  and  O_27
REMARK    9  A    between atoms: C_16  and  C_18
REMARK   10  A    between atoms: C_18  and  C_19
REMARK   11  A    between atoms: O_27  and  C_28
REMARK   12  A    between atoms: C_29  and  O_31
REMARK                            x       y       z     vdW  Elec       q    Type
REMARK                         _______ _______ _______ _____ _____    ______ ____
ROOT
ATOM      1  N   UNL     1       7.418   1.712  25.173  0.00  0.00    -0.340 N 
ATOM      2  C   UNL     1       7.436   0.299  25.318  0.00  0.00    +0.057 A 
ATOM      3  C   UNL     1       6.527  -0.445  26.088  0.00  0.00    +0.072 A 
ATOM      4  C   UNL     1       6.619  -1.847  26.257  0.00  0.00    +0.126 A 
ATOM      5  C   UNL     1       7.631  -2.562  25.610  0.00  0.00    -0.001 A 
ATOM      6  C   UNL     1       8.509  -1.842  24.780  0.00  0.00    +0.021 A 
ATOM      7  C   UNL     1       8.421  -0.450  24.651  0.00  0.00    +0.046 A 
ATOM      8  C   UNL     1       9.423   0.226  23.799  0.00  0.00    +0.203 A 
ATOM      9  O   UNL     1      10.278  -0.405  23.178  0.00  0.00    -0.286 OA
ATOM     10  C   UNL     1       9.388   1.693  23.714  0.00  0.00    +0.122 A 
ATOM     11  C   UNL     1       8.406   2.312  24.387  0.00  0.00    +0.105 A 
ENDROOT
BRANCH   4  12
ATOM     12  O   UNL     1       5.578  -2.355  26.987  0.00  0.00    -0.495 OA
ATOM     13  C   UNL     1       4.276  -2.342  26.421  0.00  0.00    +0.277 C 
ENDBRANCH   4  12
BRANCH  10  14
ATOM     14  C   UNL     1      10.371   2.489  22.950  0.00  0.00    +0.342 C 
ATOM     15  O   UNL     1      11.158   3.262  23.474  0.00  0.00    -0.245 OA
BRANCH  14  16
ATOM     16  O   UNL     1      10.339   2.290  21.616  0.00  0.00    -0.477 OA
ATOM     17  H   UNL     1       9.524   1.831  21.292  0.00  0.00    +0.295 HD
ENDBRANCH  14  16
ENDBRANCH  10  14
BRANCH   1  18
ATOM     18  C   UNL     1       6.392   2.541  25.899  0.00  0.00    +0.115 C 
BRANCH  18  20
ATOM     19  C   UNL     1       6.571   5.070  26.265  0.00  0.00    +0.009 C 
ATOM     20  C   UNL     1       7.053   3.687  26.724  0.00  0.00    +0.008 C 
ATOM     21  C   UNL     1       6.758   3.548  28.224  0.00  0.00    +0.009 C 
ENDBRANCH  18  20
BRANCH  18  22
ATOM     22  C   UNL     1       5.339   3.048  24.881  0.00  0.00    +0.181 C 
BRANCH  22  23
ATOM     23  O   UNL     1       4.574   1.959  24.361  0.00  0.00    -0.393 OA
ATOM     24  H   UNL     1       4.547   2.085  23.394  0.00  0.00    +0.209 HD
ENDBRANCH  22  23
ENDBRANCH  18  22
ENDBRANCH   1  18
BRANCH   5  25
ATOM     25  C   UNL     1       7.912  -4.043  25.758  0.00  0.00    +0.077 C 
BRANCH  25  26
ATOM     26  C   UNL     1       6.893  -4.941  25.081  0.00  0.00    -0.006 A 
ATOM     27  C   UNL     1       5.903  -5.643  25.792  0.00  0.00    +0.007 A 
ATOM     28  C   UNL     1       4.958  -6.428  25.129  0.00  0.00    +0.002 A 
ATOM     29  C   UNL     1       5.001  -6.548  23.744  0.00  0.00    +0.023 A 
ATOM     30  C   UNL     1       6.003  -5.896  23.025  0.00  0.00    +0.076 A 
ATOM     31 CL   UNL     1       6.052  -6.060  21.312  0.00  0.00    -0.081 Cl
ATOM     32  C   UNL     1       6.943  -5.105  23.691  0.00  0.00    +0.145 A 
ATOM     33  F   UNL     1       7.899  -4.473  22.994  0.00  0.00    -0.204 F 
ENDBRANCH  25  26
ENDBRANCH   5  25
TORSDOF 9
ENDMDL
MODEL 5
REMARK VINA RESULT:      -6.6      4.135      8.013
REMARK  Name = 
REMARK  12 active torsions:
REMARK  status: ('A' for Active; 'I' for Inactive)
REMARK    1  A    between atoms: C_1  and  C_2
REMARK    2  A    between atoms: C_2  and  C_3
REMARK    3  A    between atoms: C_2  and  C_4
REMARK    4  A    between atoms: C_4  and  C_5
REMARK    5  A    between atoms: C_4  and  N_7
REMARK    6  A    between atoms: C_5  and  O_6
REMARK    7  A    between atoms: C_9  and  C_29
REMARK    8  A    between atoms: C_15  and  O_27
REMARK    9  A    between atoms: C_16  and  C_18
REMARK   10  A    between atoms: C_18  and  C_19
REMARK   11  A    between atoms: O_27  and  C_28
REMARK   12  A    between atoms: C_29  and  O_31
REMARK                            x       y       z     vdW  Elec       q    Type
REMARK                         _______ _______ _______ _____ _____    ______ ____
ROOT
ATOM      1  N   UNL     1       8.252   2.129  24.998  0.00  0.00    -0.340 N 
ATOM      2  C   UNL     1       8.408   0.739  25.245  0.00  0.00    +0.057 A 
ATOM      3  C   UNL     1       9.023  -0.172  24.370  0.00  0.00    +0.072 A 
ATOM      4  C   UNL     1       9.100  -1.562  24.627  0.00  0.00    +0.126 A 
ATOM      5  C   UNL     1       8.580  -2.081  25.817  0.00  0.00    -0.001 A 
ATOM      6  C   UNL     1       8.021  -1.174  26.734  0.00  0.00    +0.021 A 
ATOM      7  C   UNL     1       7.925   0.194  26.447  0.00  0.00    +0.046 A 
ATOM      8  C   UNL     1       7.272   1.062  27.451  0.00  0.00    +0.203 A 
ATOM      9  O   UNL     1       6.868   0.620  28.526  0.00  0.00    -0.286 OA
ATOM     10  C   UNL     1       7.098   2.486  27.131  0.00  0.00    +0.122 A 
ATOM     11  C   UNL     1       7.595   2.905  25.958  0.00  0.00    +0.105 A 
ENDROOT
BRANCH   4  12
ATOM     12  O   UNL     1       9.812  -2.231  23.668  0.00  0.00    -0.495 OA
ATOM     13  C   UNL     1      10.201  -1.534  22.494  0.00  0.00    +0.277 C 
ENDBRANCH   4  12
BRANCH  10  14
ATOM     14  C   UNL     1       6.405   3.442  28.020  0.00  0.00    +0.342 C 
ATOM     15  O   UNL     1       5.296   3.895  27.780  0.00  0.00    -0.245 OA
BRANCH  14  16
ATOM     16  O   UNL     1       7.093   3.776  29.131  0.00  0.00    -0.477 OA
ATOM     17  H   UNL     1       7.840   4.405  28.974  0.00  0.00    +0.295 HD
ENDBRANCH  14  16
ENDBRANCH  10  14
BRANCH   1  18
ATOM     18  C   UNL     1       8.733   2.734  23.706  0.00  0.00    +0.115 C 
BRANCH  18  20
ATOM     19  C   UNL     1       7.258   4.163  22.175  0.00  0.00    +0.009 C 
ATOM     20  C   UNL     1       7.616   2.738  22.619  0.00  0.00    +0.008 C 
ATOM     21  C   UNL     1       8.032   1.938  21.376  0.00  0.00    +0.009 C 
ENDBRANCH  18  20
BRANCH  18  22
ATOM     22  C   UNL     1       9.314   4.141  23.992  0.00  0.00    +0.181 C 
BRANCH  22  23
ATOM     23  O   UNL     1      10.570   4.313  23.334  0.00  0.00    -0.393 OA
ATOM     24  H   UNL     1      11.210   4.552  24.030  0.00  0.00    +0.209 HD
ENDBRANCH  22  23
ENDBRANCH  18  22
ENDBRANCH   1  18
BRANCH   5  25
ATOM     25  C   UNL     1       8.510  -3.546  26.195  0.00  0.00    +0.077 C 
BRANCH  25  26
ATOM     26  C   UNL     1       7.277  -4.264  25.676  0.00  0.00    -0.006 A 
ATOM     27  C   UNL     1       6.082  -4.356  26.413  0.00  0.00    +0.007 A 
ATOM     28  C   UNL     1       4.956  -4.991  25.885  0.00  0.00    +0.002 A 
ATOM     29  C   UNL     1       5.012  -5.570  24.622  0.00  0.00    +0.023 A 
ATOM     30  C   UNL     1       6.201  -5.528  23.894  0.00  0.00    +0.076 A 
ATOM     31 CL   UNL     1       6.261  -6.256  22.335  0.00  0.00    -0.081 Cl
ATOM     32  C   UNL     1       7.324  -4.886  24.422  0.00  0.00    +0.145 A 
ATOM     33  F   UNL     1       8.463  -4.841  23.715  0.00  0.00    -0.204 F 
ENDBRANCH  25  26
ENDBRANCH   5  25
TORSDOF 9
ENDMDL
MODEL 6
REMARK VINA RESULT:      -6.6      2.168      2.709
REMARK  Name = 
REMARK  12 active torsions:
REMARK  status: ('A' for Active; 'I' for Inactive)
REMARK    1  A    between atoms: C_1  and  C_2
REMARK    2  A    between atoms: C_2  and  C_3
REMARK    3  A    between atoms: C_2  and  C_4
REMARK    4  A    between atoms: C_4  and  C_5
REMARK    5  A    between atoms: C_4  and  N_7
REMARK    6  A    between atoms: C_5  and  O_6
REMARK    7  A    between atoms: C_9  and  C_29
REMARK    8  A    between atoms: C_15  and  O_27
REMARK    9  A    between atoms: C_16  and  C_18
REMARK   10  A    between atoms: C_18  and  C_19
REMARK   11  A    between atoms: O_27  and  C_28
REMARK   12  A    between atoms: C_29  and  O_31
REMARK                            x       y       z     vdW  Elec       q    Type
REMARK                         _______ _______ _______ _____ _____    ______ ____
ROOT
ATOM      1  N   UNL     1       6.538  -3.985  25.441  0.00  0.00    -0.340 N 
ATOM      2  C   UNL     1       7.293  -2.782  25.400  0.00  0.00    +0.057 A 
ATOM      3  C   UNL     1       7.523  -1.935  26.497  0.00  0.00    +0.072 A 
ATOM      4  C   UNL     1       8.227  -0.712  26.398  0.00  0.00    +0.126 A 
ATOM      5  C   UNL     1       8.765  -0.315  25.170  0.00  0.00    -0.001 A 
ATOM      6  C   UNL     1       8.602  -1.183  24.076  0.00  0.00    +0.021 A 
ATOM      7  C   UNL     1       7.874  -2.374  24.187  0.00  0.00    +0.046 A 
ATOM      8  C   UNL     1       7.711  -3.195  22.967  0.00  0.00    +0.203 A 
ATOM      9  O   UNL     1       8.234  -2.881  21.899  0.00  0.00    -0.286 OA
ATOM     10  C   UNL     1       6.887  -4.409  23.051  0.00  0.00    +0.122 A 
ATOM     11  C   UNL     1       6.378  -4.711  24.256  0.00  0.00    +0.105 A 
ENDROOT
BRANCH   4  12
ATOM     12  O   UNL     1       8.389  -0.103  27.613  0.00  0.00    -0.495 OA
ATOM     13  C   UNL     1       7.282   0.572  28.193  0.00  0.00    +0.277 C 
ENDBRANCH   4  12
BRANCH  10  14
ATOM     14  C   UNL     1       6.594  -5.278  21.892  0.00  0.00    +0.342 C 
ATOM     15  O   UNL     1       6.936  -6.448  21.830  0.00  0.00    -0.245 OA
BRANCH  14  16
ATOM     16  O   UNL     1       5.907  -4.676  20.899  0.00  0.00    -0.477 OA
ATOM     17  H   UNL     1       5.631  -3.747  21.100  0.00  0.00    +0.295 HD
ENDBRANCH  14  16
ENDBRANCH  10  14
BRANCH   1  18
ATOM     18  C   UNL     1       5.879  -4.430  26.720  0.00  0.00    +0.115 C 
BRANCH  18  20
ATOM     19  C   UNL     1       3.665  -5.154  27.784  0.00  0.00    +0.009 C 
ATOM     20  C   UNL     1       4.326  -4.439  26.597  0.00  0.00    +0.008 C 
ATOM     21  C   UNL     1       3.756  -3.015  26.516  0.00  0.00    +0.009 C 
ENDBRANCH  18  20
BRANCH  18  22
ATOM     22  C   UNL     1       6.468  -5.800  27.141  0.00  0.00    +0.181 C 
BRANCH  22  23
ATOM     23  O   UNL     1       7.862  -5.683  27.433  0.00  0.00    -0.393 OA
ATOM     24  H   UNL     1       8.169  -4.882  26.969  0.00  0.00    +0.209 HD
ENDBRANCH  22  23
ENDBRANCH  18  22
ENDBRANCH   1  18
BRANCH   5  25
ATOM     25  C   UNL     1       9.465   0.997  24.886  0.00  0.00    +0.077 C 
BRANCH  25  26
ATOM     26  C   UNL     1       8.638   1.984  24.083  0.00  0.00    -0.006 A 
ATOM     27  C   UNL     1       8.586   1.969  22.677  0.00  0.00    +0.007 A 
ATOM     28  C   UNL     1       7.781   2.868  21.975  0.00  0.00    +0.002 A 
ATOM     29  C   UNL     1       7.033   3.817  22.663  0.00  0.00    +0.023 A 
ATOM     30  C   UNL     1       7.106   3.877  24.055  0.00  0.00    +0.076 A 
ATOM     31 CL   UNL     1       6.183   5.062  24.896  0.00  0.00    -0.081 Cl
ATOM     32  C   UNL     1       7.907   2.972  24.755  0.00  0.00    +0.145 A 
ATOM     33  F   UNL     1       7.967   3.028  26.094  0.00  0.00    -0.204 F 
ENDBRANCH  25  26
ENDBRANCH   5  25
TORSDOF 9
ENDMDL
MODEL 7
REMARK VINA RESULT:      -6.5      3.044      5.037
REMARK  Name = 
REMARK  12 active torsions:
REMARK  status: ('A' for Active; 'I' for Inactive)
REMARK    1  A    between atoms: C_1  and  C_2
REMARK    2  A    between atoms: C_2  and  C_3
REMARK    3  A    between atoms: C_2  and  C_4
REMARK    4  A    between atoms: C_4  and  C_5
REMARK    5  A    between atoms: C_4  and  N_7
REMARK    6  A    between atoms: C_5  and  O_6
REMARK    7  A    between atoms: C_9  and  C_29
REMARK    8  A    between atoms: C_15  and  O_27
REMARK    9  A    between atoms: C_16  and  C_18
REMARK   10  A    between atoms: C_18  and  C_19
REMARK   11  A    between atoms: O_27  and  C_28
REMARK   12  A    between atoms: C_29  and  O_31
REMARK                            x       y       z     vdW  Elec       q    Type
REMARK                         _______ _______ _______ _____ _____    ______ ____
ROOT
ATOM      1  N   UNL     1       3.911  -4.444  25.176  0.00  0.00    -0.340 N 
ATOM      2  C   UNL     1       5.243  -4.092  24.832  0.00  0.00    +0.057 A 
ATOM      3  C   UNL     1       6.127  -4.898  24.096  0.00  0.00    +0.072 A 
ATOM      4  C   UNL     1       7.469  -4.535  23.829  0.00  0.00    +0.126 A 
ATOM      5  C   UNL     1       7.960  -3.304  24.274  0.00  0.00    -0.001 A 
ATOM      6  C   UNL     1       7.068  -2.455  24.954  0.00  0.00    +0.021 A 
ATOM      7  C   UNL     1       5.754  -2.846  25.237  0.00  0.00    +0.046 A 
ATOM      8  C   UNL     1       4.908  -1.907  26.005  0.00  0.00    +0.203 A 
ATOM      9  O   UNL     1       5.315  -0.797  26.346  0.00  0.00    -0.286 OA
ATOM     10  C   UNL     1       3.551  -2.335  26.373  0.00  0.00    +0.122 A 
ATOM     11  C   UNL     1       3.160  -3.542  25.936  0.00  0.00    +0.105 A 
ENDROOT
BRANCH   4  12
ATOM     12  O   UNL     1       8.107  -5.446  23.030  0.00  0.00    -0.495 OA
ATOM     13  C   UNL     1       7.364  -6.104  22.015  0.00  0.00    +0.277 C 
ENDBRANCH   4  12
BRANCH  10  14
ATOM     14  C   UNL     1       2.632  -1.518  27.192  0.00  0.00    +0.342 C 
ATOM     15  O   UNL     1       2.153  -1.903  28.247  0.00  0.00    -0.245 OA
BRANCH  14  16
ATOM     16  O   UNL     1       2.364  -0.296  26.685  0.00  0.00    -0.477 OA
ATOM     17  H   UNL     1       2.877   0.439  27.102  0.00  0.00    +0.295 HD
ENDBRANCH  14  16
ENDBRANCH  10  14
BRANCH   1  18
ATOM     18  C   UNL     1       3.349  -5.785  24.782  0.00  0.00    +0.115 C 
BRANCH  18  20
ATOM     19  C   UNL     1       2.034  -7.838  25.565  0.00  0.00    +0.009 C 
ATOM     20  C   UNL     1       2.643  -6.490  25.978  0.00  0.00    +0.008 C 
ATOM     21  C   UNL     1       3.612  -6.737  27.143  0.00  0.00    +0.009 C 
ENDBRANCH  18  20
BRANCH  18  22
ATOM     22  C   UNL     1       2.431  -5.604  23.548  0.00  0.00    +0.181 C 
BRANCH  22  23
ATOM     23  O   UNL     1       2.855  -6.445  22.474  0.00  0.00    -0.393 OA
ATOM     24  H   UNL     1       3.455  -5.904  21.927  0.00  0.00    +0.209 HD
ENDBRANCH  22  23
ENDBRANCH  18  22
ENDBRANCH   1  18
BRANCH   5  25
ATOM     25  C   UNL     1       9.386  -2.813  24.143  0.00  0.00    +0.077 C 
BRANCH  25  26
ATOM     26  C   UNL     1       9.536  -1.551  23.314  0.00  0.00    -0.006 A 
ATOM     27  C   UNL     1       9.234  -1.500  21.940  0.00  0.00    +0.007 A 
ATOM     28  C   UNL     1       9.346  -0.309  21.220  0.00  0.00    +0.002 A 
ATOM     29  C   UNL     1       9.789   0.848  21.852  0.00  0.00    +0.023 A 
ATOM     30  C   UNL     1      10.136   0.807  23.203  0.00  0.00    +0.076 A 
ATOM     31 CL   UNL     1      10.692   2.243  23.972  0.00  0.00    -0.081 Cl
ATOM     32  C   UNL     1      10.016  -0.384  23.922  0.00  0.00    +0.145 A 
ATOM     33  F   UNL     1      10.343  -0.416  25.223  0.00  0.00    -0.204 F 
ENDBRANCH  25  26
ENDBRANCH   5  25
TORSDOF 9
ENDMDL
MODEL 8
REMARK VINA RESULT:      -6.5      4.536      7.827
REMARK  Name = 
REMARK  12 active torsions:
REMARK  status: ('A' for Active; 'I' for Inactive)
REMARK    1  A    between atoms: C_1  and  C_2
REMARK    2  A    between atoms: C_2  and  C_3
REMARK    3  A    between atoms: C_2  and  C_4
REMARK    4  A    between atoms: C_4  and  C_5
REMARK    5  A    between atoms: C_4  and  N_7
REMARK    6  A    between atoms: C_5  and  O_6
REMARK    7  A    between atoms: C_9  and  C_29
REMARK    8  A    between atoms: C_15  and  O_27
REMARK    9  A    between atoms: C_16  and  C_18
REMARK   10  A    between atoms: C_18  and  C_19
REMARK   11  A    between atoms: O_27  and  C_28
REMARK   12  A    between atoms: C_29  and  O_31
REMARK                            x       y       z     vdW  Elec       q    Type
REMARK                         _______ _______ _______ _____ _____    ______ ____
ROOT
ATOM      1  N   UNL     1       7.891  -0.271  24.319  0.00  0.00    -0.340 N 
ATOM      2  C   UNL     1       7.617  -1.620  24.668  0.00  0.00    +0.057 A 
ATOM      3  C   UNL     1       8.494  -2.700  24.467  0.00  0.00    +0.072 A 
ATOM      4  C   UNL     1       8.155  -4.040  24.771  0.00  0.00    +0.126 A 
ATOM      5  C   UNL     1       6.909  -4.334  25.334  0.00  0.00    -0.001 A 
ATOM      6  C   UNL     1       6.046  -3.257  25.603  0.00  0.00    +0.021 A 
ATOM      7  C   UNL     1       6.386  -1.941  25.265  0.00  0.00    +0.046 A 
ATOM      8  C   UNL     1       5.390  -0.883  25.539  0.00  0.00    +0.203 A 
ATOM      9  O   UNL     1       4.317  -1.128  26.089  0.00  0.00    -0.286 OA
ATOM     10  C   UNL     1       5.703   0.491  25.121  0.00  0.00    +0.122 A 
ATOM     11  C   UNL     1       6.906   0.692  24.560  0.00  0.00    +0.105 A 
ENDROOT
BRANCH   4  12
ATOM     12  O   UNL     1       9.198  -4.902  24.562  0.00  0.00    -0.495 OA
ATOM     13  C   UNL     1      10.078  -5.184  25.640  0.00  0.00    +0.277 C 
ENDBRANCH   4  12
BRANCH  10  14
ATOM     14  C   UNL     1       4.768   1.624  25.278  0.00  0.00    +0.342 C 
ATOM     15  O   UNL     1       4.339   2.274  24.337  0.00  0.00    -0.245 OA
BRANCH  14  16
ATOM     16  O   UNL     1       4.413   1.887  26.553  0.00  0.00    -0.477 OA
ATOM     17  H   UNL     1       4.339   1.086  27.128  0.00  0.00    +0.295 HD
ENDBRANCH  14  16
ENDBRANCH  10  14
BRANCH   1  18
ATOM     18  C   UNL     1       9.189   0.097  23.650  0.00  0.00    +0.115 C 
BRANCH  18  20
ATOM     19  C   UNL     1       9.826   1.820  21.866  0.00  0.00    +0.009 C 
ATOM     20  C   UNL     1       8.967   0.590  22.188  0.00  0.00    +0.008 C 
ATOM     21  C   UNL     1       9.295  -0.507  21.165  0.00  0.00    +0.009 C 
ENDBRANCH  18  20
BRANCH  18  22
ATOM     22  C   UNL     1       9.941   1.123  24.535  0.00  0.00    +0.181 C 
BRANCH  22  23
ATOM     23  O   UNL     1      10.538   0.478  25.660  0.00  0.00    -0.393 OA
ATOM     24  H   UNL     1      10.218   0.956  26.448  0.00  0.00    +0.209 HD
ENDBRANCH  22  23
ENDBRANCH  18  22
ENDBRANCH   1  18
BRANCH   5  25
ATOM     25  C   UNL     1       6.370  -5.717  25.633  0.00  0.00    +0.077 C 
BRANCH  25  26
ATOM     26  C   UNL     1       5.067  -6.044  24.927  0.00  0.00    -0.006 A 
ATOM     27  C   UNL     1       4.794  -5.642  23.607  0.00  0.00    +0.007 A 
ATOM     28  C   UNL     1       3.599  -5.997  22.977  0.00  0.00    +0.002 A 
ATOM     29  C   UNL     1       2.643  -6.736  23.665  0.00  0.00    +0.023 A 
ATOM     30  C   UNL     1       2.877  -7.105  24.990  0.00  0.00    +0.076 A 
ATOM     31 CL   UNL     1       1.682  -8.013  25.834  0.00  0.00    -0.081 Cl
ATOM     32  C   UNL     1       4.076  -6.755  25.615  0.00  0.00    +0.145 A 
ATOM     33  F   UNL     1       4.299  -7.119  26.886  0.00  0.00    -0.204 F 
ENDBRANCH  25  26
ENDBRANCH   5  25
TORSDOF 9
ENDMDL
MODEL 9
REMARK VINA RESULT:      -6.4      4.442      8.004
REMARK  Name = 
REMARK  12 active torsions:
REMARK  status: ('A' for Active; 'I' for Inactive)
REMARK    1  A    between atoms: C_1  and  C_2
REMARK    2  A    between atoms: C_2  and  C_3
REMARK    3  A    between atoms: C_2  and  C_4
REMARK    4  A    between atoms: C_4  and  C_5
REMARK    5  A    between atoms: C_4  and  N_7
REMARK    6  A    between atoms: C_5  and  O_6
REMARK    7  A    between atoms: C_9  and  C_29
REMARK    8  A    between atoms: C_15  and  O_27
REMARK    9  A    between atoms: C_16  and  C_18
REMARK   10  A    between atoms: C_18  and  C_19
REMARK   11  A    between atoms: O_27  and  C_28
REMARK   12  A    between atoms: C_29  and  O_31
REMARK                            x       y       z     vdW  Elec       q    Type
REMARK                         _______ _______ _______ _____ _____    ______ ____
ROOT
ATOM      1  N   UNL     1       7.839  -0.243  24.339  0.00  0.00    -0.340 N 
ATOM      2  C   UNL     1       7.502  -1.596  24.607  0.00  0.00    +0.057 A 
ATOM      3  C   UNL     1       8.344  -2.698  24.382  0.00  0.00    +0.072 A 
ATOM      4  C   UNL     1       7.946  -4.037  24.603  0.00  0.00    +0.126 A 
ATOM      5  C   UNL     1       6.669  -4.311  25.105  0.00  0.00    -0.001 A 
ATOM      6  C   UNL     1       5.838  -3.216  25.400  0.00  0.00    +0.021 A 
ATOM      7  C   UNL     1       6.239  -1.899  25.144  0.00  0.00    +0.046 A 
ATOM      8  C   UNL     1       5.273  -0.818  25.437  0.00  0.00    +0.203 A 
ATOM      9  O   UNL     1       4.172  -1.049  25.936  0.00  0.00    -0.286 OA
ATOM     10  C   UNL     1       5.653   0.562  25.103  0.00  0.00    +0.122 A 
ATOM     11  C   UNL     1       6.882   0.744  24.596  0.00  0.00    +0.105 A 
ENDROOT
BRANCH   4  12
ATOM     12  O   UNL     1       8.963  -4.928  24.386  0.00  0.00    -0.495 OA
ATOM     13  C   UNL     1       9.836  -5.244  25.460  0.00  0.00    +0.277 C 
ENDBRANCH   4  12
BRANCH  10  14
ATOM     14  C   UNL     1       4.755   1.722  25.285  0.00  0.00    +0.342 C 
ATOM     15  O   UNL     1       4.249   2.330  24.355  0.00  0.00    -0.245 OA
BRANCH  14  16
ATOM     16  O   UNL     1       4.527   2.058  26.572  0.00  0.00    -0.477 OA
ATOM     17  H   UNL     1       4.022   1.380  27.087  0.00  0.00    +0.295 HD
ENDBRANCH  14  16
ENDBRANCH  10  14
BRANCH   1  18
ATOM     18  C   UNL     1       9.173   0.108  23.736  0.00  0.00    +0.115 C 
BRANCH  18  20
ATOM     19  C   UNL     1       9.935   1.763  21.936  0.00  0.00    +0.009 C 
ATOM     20  C   UNL     1       9.036   0.559  22.251  0.00  0.00    +0.008 C 
ATOM     21  C   UNL     1       9.394  -0.575  21.279  0.00  0.00    +0.009 C 
ENDBRANCH  18  20
BRANCH  18  22
ATOM     22  C   UNL     1       9.873   1.159  24.634  0.00  0.00    +0.181 C 
BRANCH  22  23
ATOM     23  O   UNL     1      10.923   0.557  25.393  0.00  0.00    -0.393 OA
ATOM     24  H   UNL     1      11.209   1.229  26.040  0.00  0.00    +0.209 HD
ENDBRANCH  22  23
ENDBRANCH  18  22
ENDBRANCH   1  18
BRANCH   5  25
ATOM     25  C   UNL     1       6.069  -5.685  25.313  0.00  0.00    +0.077 C 
BRANCH  25  26
ATOM     26  C   UNL     1       5.640  -5.967  26.741  0.00  0.00    -0.006 A 
ATOM     27  C   UNL     1       6.498  -5.799  27.843  0.00  0.00    +0.007 A 
ATOM     28  C   UNL     1       6.054  -6.031  29.147  0.00  0.00    +0.002 A 
ATOM     29  C   UNL     1       4.751  -6.462  29.371  0.00  0.00    +0.023 A 
ATOM     30  C   UNL     1       3.899  -6.678  28.289  0.00  0.00    +0.076 A 
ATOM     31 CL   UNL     1       2.291  -7.221  28.579  0.00  0.00    -0.081 Cl
ATOM     32  C   UNL     1       4.344  -6.439  26.986  0.00  0.00    +0.145 A 
ATOM     33  F   UNL     1       3.517  -6.640  25.949  0.00  0.00    -0.204 F 
ENDBRANCH  25  26
ENDBRANCH   5  25
TORSDOF 9
ENDMDL
