MODEL 1
REMARK VINA RESULT:      -6.4      0.000      0.000
REMARK  Name = 
REMARK  3 active torsions:
REMARK  status: ('A' for Active; 'I' for Inactive)
REMARK    1  A    between atoms: C_3  and  N_10
REMARK    2  A    between atoms: C_6  and  C_8
REMARK    3  A    between atoms: C_8  and  O_9
REMARK                            x       y       z     vdW  Elec       q    Type
REMARK                         _______ _______ _______ _____ _____    ______ ____
ROOT
ATOM      1  N   UNL     1       9.518  -1.196  23.838  0.00  0.00    -0.288 N 
ATOM      2  C   UNL     1       9.451  -0.141  22.969  0.00  0.00    +0.169 A 
ATOM      3  N   UNL     1       8.913  -0.143  21.724  0.00  0.00    -0.218 NA
ATOM      4  C   UNL     1       9.033   1.008  21.129  0.00  0.00    +0.201 A 
ATOM      5  N   UNL     1       9.631   2.132  21.670  0.00  0.00    -0.312 N 
ATOM      6  H   UNL     1       9.687   2.995  21.149  0.00  0.00    +0.170 HD
ATOM      7  C   UNL     1      10.181   2.173  22.943  0.00  0.00    +0.279 A 
ATOM      8  O   UNL     1      10.691   3.192  23.395  0.00  0.00    -0.265 OA
ATOM      9  C   UNL     1      10.063   0.905  23.629  0.00  0.00    +0.172 A 
ATOM     10  N   UNL     1      10.480   0.529  24.882  0.00  0.00    -0.229 NA
ATOM     11  C   UNL     1      10.142  -0.742  24.974  0.00  0.00    +0.203 A 
ENDROOT
BRANCH   1  15
ATOM     12  C   UNL     1       7.596  -4.284  24.204  0.00  0.00    +0.038 C 
ATOM     13  C   UNL     1       8.988  -4.584  24.740  0.00  0.00    +0.146 C 
ATOM     14  O   UNL     1       9.840  -3.485  24.338  0.00  0.00    -0.351 OA
ATOM     15  C   UNL     1       9.035  -2.537  23.598  0.00  0.00    +0.222 C 
ATOM     16  C   UNL     1       7.608  -2.781  24.053  0.00  0.00    +0.057 C 
BRANCH  13  17
ATOM     17  C   UNL     1       9.022  -4.699  26.267  0.00  0.00    +0.187 C 
BRANCH  17  18
ATOM     18  O   UNL     1       8.351  -5.883  26.691  0.00  0.00    -0.392 OA
ATOM     19  H   UNL     1       7.507  -5.593  27.083  0.00  0.00    +0.210 HD
ENDBRANCH  17  18
ENDBRANCH  13  17
ENDBRANCH   1  15
TORSDOF 3
ENDMDL
MODEL 2
REMARK VINA RESULT:      -6.2      2.494      6.474
REMARK  Name = 
REMARK  3 active torsions:
REMARK  status: ('A' for Active; 'I' for Inactive)
REMARK    1  A    between atoms: C_3  and  N_10
REMARK    2  A    between atoms: C_6  and  C_8
REMARK    3  A    between atoms: C_8  and  O_9
REMARK                            x       y       z     vdW  Elec       q    Type
REMARK                         _______ _______ _______ _____ _____    ______ ____
ROOT
ATOM      1  N   UNL     1       8.454  -3.048  23.665  0.00  0.00    -0.288 N 
ATOM      2  C   UNL     1       8.200  -3.872  24.728  0.00  0.00    +0.169 A 
ATOM      3  N   UNL     1       8.960  -4.025  25.841  0.00  0.00    -0.218 NA
ATOM      4  C   UNL     1       8.471  -4.911  26.658  0.00  0.00    +0.201 A 
ATOM      5  N   UNL     1       7.308  -5.634  26.456  0.00  0.00    -0.312 N 
ATOM      6  H   UNL     1       6.987  -6.306  27.137  0.00  0.00    +0.170 HD
ATOM      7  C   UNL     1       6.501  -5.494  25.336  0.00  0.00    +0.279 A 
ATOM      8  O   UNL     1       5.470  -6.143  25.197  0.00  0.00    -0.265 OA
ATOM      9  C   UNL     1       7.023  -4.516  24.407  0.00  0.00    +0.172 A 
ATOM     10  N   UNL     1       6.537  -4.094  23.194  0.00  0.00    -0.229 NA
ATOM     11  C   UNL     1       7.425  -3.216  22.772  0.00  0.00    +0.203 A 
ENDROOT
BRANCH   1  15
ATOM     12  C   UNL     1      10.497  -0.017  23.615  0.00  0.00    +0.038 C 
ATOM     13  C   UNL     1      10.212  -0.361  22.160  0.00  0.00    +0.146 C 
ATOM     14  O   UNL     1       9.665  -1.701  22.144  0.00  0.00    -0.351 OA
ATOM     15  C   UNL     1       9.598  -2.178  23.509  0.00  0.00    +0.222 C 
ATOM     16  C   UNL     1       9.557  -0.928  24.369  0.00  0.00    +0.057 C 
BRANCH  13  17
ATOM     17  C   UNL     1       9.199   0.590  21.514  0.00  0.00    +0.187 C 
BRANCH  17  18
ATOM     18  O   UNL     1       9.740   1.906  21.427  0.00  0.00    -0.392 OA
ATOM     19  H   UNL     1       9.321   2.323  20.651  0.00  0.00    +0.210 HD
ENDBRANCH  17  18
ENDBRANCH  13  17
ENDBRANCH   1  15
TORSDOF 3
ENDMDL
MODEL 3
REMARK VINA RESULT:      -6.2      3.325      6.496
REMARK  Name = 
REMARK  3 active torsions:
REMARK  status: ('A' for Active; 'I' for Inactive)
REMARK    1  A    between atoms: C_3  and  N_10
REMARK    2  A    between atoms: C_6  and  C_8
REMARK    3  A    between atoms: C_8  and  O_9
REMARK                            x       y       z     vdW  Elec       q    Type
REMARK                         _______ _______ _______ _____ _____    ______ ____
ROOT
ATOM      1  N   UNL     1       7.342  -2.811  23.048  0.00  0.00    -0.288 N 
ATOM      2  C   UNL     1       6.878  -4.036  22.650  0.00  0.00    +0.169 A 
ATOM      3  N   UNL     1       7.587  -5.018  22.041  0.00  0.00    -0.218 NA
ATOM      4  C   UNL     1       6.855  -6.055  21.755  0.00  0.00    +0.201 A 
ATOM      5  N   UNL     1       5.504  -6.184  22.028  0.00  0.00    -0.312 N 
ATOM      6  H   UNL     1       4.999  -7.021  21.777  0.00  0.00    +0.170 HD
ATOM      7  C   UNL     1       4.751  -5.204  22.659  0.00  0.00    +0.279 A 
ATOM      8  O   UNL     1       3.558  -5.358  22.897  0.00  0.00    -0.265 OA
ATOM      9  C   UNL     1       5.540  -4.037  22.988  0.00  0.00    +0.172 A 
ATOM     10  N   UNL     1       5.178  -2.863  23.600  0.00  0.00    -0.229 NA
ATOM     11  C   UNL     1       6.284  -2.146  23.616  0.00  0.00    +0.203 A 
ENDROOT
BRANCH   1  15
ATOM     12  C   UNL     1      10.256  -0.618  23.294  0.00  0.00    +0.038 C 
ATOM     13  C   UNL     1       9.738  -0.479  21.869  0.00  0.00    +0.146 C 
ATOM     14  O   UNL     1       8.781  -1.545  21.664  0.00  0.00    -0.351 OA
ATOM     15  C   UNL     1       8.689  -2.311  22.887  0.00  0.00    +0.222 C 
ATOM     16  C   UNL     1       9.144  -1.369  23.986  0.00  0.00    +0.057 C 
BRANCH  13  17
ATOM     17  C   UNL     1       9.040   0.862  21.621  0.00  0.00    +0.187 C 
BRANCH  17  18
ATOM     18  O   UNL     1      10.003   1.903  21.476  0.00  0.00    -0.392 OA
ATOM     19  H   UNL     1       9.807   2.556  22.173  0.00  0.00    +0.210 HD
ENDBRANCH  17  18
ENDBRANCH  13  17
ENDBRANCH   1  15
TORSDOF 3
ENDMDL
MODEL 4
REMARK VINA RESULT:      -6.2      2.364      6.190
REMARK  Name = 
REMARK  3 active torsions:
REMARK  status: ('A' for Active; 'I' for Inactive)
REMARK    1  A    between atoms: C_3  and  N_10
REMARK    2  A    between atoms: C_6  and  C_8
REMARK    3  A    between atoms: C_8  and  O_9
REMARK                            x       y       z     vdW  Elec       q    Type
REMARK                         _______ _______ _______ _____ _____    ______ ____
ROOT
ATOM      1  N   UNL     1       8.949  -1.979  25.071  0.00  0.00    -0.288 N 
ATOM      2  C   UNL     1       8.934  -3.313  25.379  0.00  0.00    +0.169 A 
ATOM      3  N   UNL     1       9.691  -4.288  24.817  0.00  0.00    -0.218 NA
ATOM      4  C   UNL     1       9.422  -5.466  25.300  0.00  0.00    +0.201 A 
ATOM      5  N   UNL     1       8.481  -5.737  26.278  0.00  0.00    -0.312 N 
ATOM      6  H   UNL     1       8.326  -6.679  26.606  0.00  0.00    +0.170 HD
ATOM      7  C   UNL     1       7.698  -4.763  26.881  0.00  0.00    +0.279 A 
ATOM      8  O   UNL     1       6.882  -5.039  27.755  0.00  0.00    -0.265 OA
ATOM      9  C   UNL     1       7.975  -3.442  26.362  0.00  0.00    +0.172 A 
ATOM     10  N   UNL     1       7.420  -2.227  26.682  0.00  0.00    -0.229 NA
ATOM     11  C   UNL     1       8.025  -1.370  25.883  0.00  0.00    +0.203 A 
ENDROOT
BRANCH   1  15
ATOM     12  C   UNL     1      10.594   0.639  23.122  0.00  0.00    +0.038 C 
ATOM     13  C   UNL     1       9.465   0.106  22.250  0.00  0.00    +0.146 C 
ATOM     14  O   UNL     1       8.995  -1.114  22.871  0.00  0.00    -0.351 OA
ATOM     15  C   UNL     1       9.772  -1.340  24.070  0.00  0.00    +0.222 C 
ATOM     16  C   UNL     1      10.299   0.026  24.470  0.00  0.00    +0.057 C 
BRANCH  13  17
ATOM     17  C   UNL     1       8.291   1.085  22.139  0.00  0.00    +0.187 C 
BRANCH  17  18
ATOM     18  O   UNL     1       8.693   2.265  21.447  0.00  0.00    -0.392 OA
ATOM     19  H   UNL     1       9.265   1.971  20.715  0.00  0.00    +0.210 HD
ENDBRANCH  17  18
ENDBRANCH  13  17
ENDBRANCH   1  15
TORSDOF 3
ENDMDL
MODEL 5
REMARK VINA RESULT:      -6.0      1.336      2.349
REMARK  Name = 
REMARK  3 active torsions:
REMARK  status: ('A' for Active; 'I' for Inactive)
REMARK    1  A    between atoms: C_3  and  N_10
REMARK    2  A    between atoms: C_6  and  C_8
REMARK    3  A    between atoms: C_8  and  O_9
REMARK                            x       y       z     vdW  Elec       q    Type
REMARK                         _______ _______ _______ _____ _____    ______ ____
ROOT
ATOM      1  N   UNL     1       8.854  -2.234  23.073  0.00  0.00    -0.288 N 
ATOM      2  C   UNL     1       9.175  -1.281  24.003  0.00  0.00    +0.169 A 
ATOM      3  N   UNL     1       8.986  -1.354  25.343  0.00  0.00    -0.218 NA
ATOM      4  C   UNL     1       9.363  -0.271  25.958  0.00  0.00    +0.201 A 
ATOM      5  N   UNL     1       9.904   0.849  25.351  0.00  0.00    -0.312 N 
ATOM      6  H   UNL     1      10.176   1.655  25.893  0.00  0.00    +0.170 HD
ATOM      7  C   UNL     1      10.122   0.952  23.985  0.00  0.00    +0.279 A 
ATOM      8  O   UNL     1      10.617   1.956  23.483  0.00  0.00    -0.265 OA
ATOM      9  C   UNL     1       9.710  -0.238  23.275  0.00  0.00    +0.172 A 
ATOM     10  N   UNL     1       9.748  -0.532  21.934  0.00  0.00    -0.229 NA
ATOM     11  C   UNL     1       9.221  -1.737  21.847  0.00  0.00    +0.203 A 
ENDROOT
BRANCH   1  15
ATOM     12  C   UNL     1       6.816  -4.812  24.674  0.00  0.00    +0.038 C 
ATOM     13  C   UNL     1       8.261  -5.127  25.036  0.00  0.00    +0.146 C 
ATOM     14  O   UNL     1       9.096  -4.308  24.183  0.00  0.00    -0.351 OA
ATOM     15  C   UNL     1       8.234  -3.513  23.335  0.00  0.00    +0.222 C 
ATOM     16  C   UNL     1       6.911  -3.429  24.074  0.00  0.00    +0.057 C 
BRANCH  13  17
ATOM     17  C   UNL     1       8.588  -4.807  26.498  0.00  0.00    +0.187 C 
BRANCH  17  18
ATOM     18  O   UNL     1       8.007  -5.780  27.361  0.00  0.00    -0.392 OA
ATOM     19  H   UNL     1       7.699  -5.297  28.150  0.00  0.00    +0.210 HD
ENDBRANCH  17  18
ENDBRANCH  13  17
ENDBRANCH   1  15
TORSDOF 3
ENDMDL
MODEL 6
REMARK VINA RESULT:      -5.9      2.175      5.795
REMARK  Name = 
REMARK  3 active torsions:
REMARK  status: ('A' for Active; 'I' for Inactive)
REMARK    1  A    between atoms: C_3  and  N_10
REMARK    2  A    between atoms: C_6  and  C_8
REMARK    3  A    between atoms: C_8  and  O_9
REMARK                            x       y       z     vdW  Elec       q    Type
REMARK                         _______ _______ _______ _____ _____    ______ ____
ROOT
ATOM      1  N   UNL     1       8.706  -2.067  23.526  0.00  0.00    -0.288 N 
ATOM      2  C   UNL     1       7.713  -2.811  24.105  0.00  0.00    +0.169 A 
ATOM      3  N   UNL     1       6.382  -2.549  24.088  0.00  0.00    -0.218 NA
ATOM      4  C   UNL     1       5.695  -3.426  24.759  0.00  0.00    +0.201 A 
ATOM      5  N   UNL     1       6.221  -4.519  25.426  0.00  0.00    -0.312 N 
ATOM      6  H   UNL     1       5.625  -5.161  25.927  0.00  0.00    +0.170 HD
ATOM      7  C   UNL     1       7.574  -4.823  25.454  0.00  0.00    +0.279 A 
ATOM      8  O   UNL     1       8.004  -5.808  26.045  0.00  0.00    -0.265 OA
ATOM      9  C   UNL     1       8.365  -3.862  24.717  0.00  0.00    +0.172 A 
ATOM     10  N   UNL     1       9.721  -3.798  24.510  0.00  0.00    -0.229 NA
ATOM     11  C   UNL     1       9.892  -2.704  23.795  0.00  0.00    +0.203 A 
ENDROOT
BRANCH   1  15
ATOM     12  C   UNL     1       9.509   0.980  21.675  0.00  0.00    +0.038 C 
ATOM     13  C   UNL     1       9.063   1.429  23.059  0.00  0.00    +0.146 C 
ATOM     14  O   UNL     1       8.466   0.279  23.702  0.00  0.00    -0.351 OA
ATOM     15  C   UNL     1       8.535  -0.838  22.785  0.00  0.00    +0.222 C 
ATOM     16  C   UNL     1       9.676  -0.512  21.840  0.00  0.00    +0.057 C 
BRANCH  13  17
ATOM     17  C   UNL     1      10.227   1.926  23.923  0.00  0.00    +0.187 C 
BRANCH  17  18
ATOM     18  O   UNL     1      10.408   1.072  25.050  0.00  0.00    -0.392 OA
ATOM     19  H   UNL     1      10.318   0.159  24.719  0.00  0.00    +0.210 HD
ENDBRANCH  17  18
ENDBRANCH  13  17
ENDBRANCH   1  15
TORSDOF 3
ENDMDL
MODEL 7
REMARK VINA RESULT:      -5.9      1.885      2.258
REMARK  Name = 
REMARK  3 active torsions:
REMARK  status: ('A' for Active; 'I' for Inactive)
REMARK    1  A    between atoms: C_3  and  N_10
REMARK    2  A    between atoms: C_6  and  C_8
REMARK    3  A    between atoms: C_8  and  O_9
REMARK                            x       y       z     vdW  Elec       q    Type
REMARK                         _______ _______ _______ _____ _____    ______ ____
ROOT
ATOM      1  N   UNL     1       8.030  -1.685  23.922  0.00  0.00    -0.288 N 
ATOM      2  C   UNL     1       8.409  -0.738  23.008  0.00  0.00    +0.169 A 
ATOM      3  N   UNL     1       9.549  -0.724  22.274  0.00  0.00    -0.218 NA
ATOM      4  C   UNL     1       9.639   0.330  21.517  0.00  0.00    +0.201 A 
ATOM      5  N   UNL     1       8.700   1.343  21.436  0.00  0.00    -0.312 N 
ATOM      6  H   UNL     1       8.836   2.133  20.823  0.00  0.00    +0.170 HD
ATOM      7  C   UNL     1       7.518   1.354  22.162  0.00  0.00    +0.279 A 
ATOM      8  O   UNL     1       6.701   2.263  22.055  0.00  0.00    -0.265 OA
ATOM      9  C   UNL     1       7.392   0.194  23.016  0.00  0.00    +0.172 A 
ATOM     10  N   UNL     1       6.392  -0.165  23.887  0.00  0.00    -0.229 NA
ATOM     11  C   UNL     1       6.810  -1.296  24.419  0.00  0.00    +0.203 A 
ENDROOT
BRANCH   1  15
ATOM     12  C   UNL     1       8.799  -5.157  24.765  0.00  0.00    +0.038 C 
ATOM     13  C   UNL     1       8.815  -4.387  26.078  0.00  0.00    +0.146 C 
ATOM     14  O   UNL     1       8.808  -2.980  25.741  0.00  0.00    -0.351 OA
ATOM     15  C   UNL     1       8.780  -2.861  24.299  0.00  0.00    +0.222 C 
ATOM     16  C   UNL     1       8.190  -4.168  23.800  0.00  0.00    +0.057 C 
BRANCH  13  17
ATOM     17  C   UNL     1       7.596  -4.688  26.956  0.00  0.00    +0.187 C 
BRANCH  17  18
ATOM     18  O   UNL     1       7.746  -5.952  27.597  0.00  0.00    -0.392 OA
ATOM     19  H   UNL     1       8.050  -5.765  28.504  0.00  0.00    +0.210 HD
ENDBRANCH  17  18
ENDBRANCH  13  17
ENDBRANCH   1  15
TORSDOF 3
ENDMDL
MODEL 8
REMARK VINA RESULT:      -5.8      2.427      5.797
REMARK  Name = 
REMARK  3 active torsions:
REMARK  status: ('A' for Active; 'I' for Inactive)
REMARK    1  A    between atoms: C_3  and  N_10
REMARK    2  A    between atoms: C_6  and  C_8
REMARK    3  A    between atoms: C_8  and  O_9
REMARK                            x       y       z     vdW  Elec       q    Type
REMARK                         _______ _______ _______ _____ _____    ______ ____
ROOT
ATOM      1  N   UNL     1       9.119  -2.885  24.019  0.00  0.00    -0.288 N 
ATOM      2  C   UNL     1       7.953  -3.103  23.336  0.00  0.00    +0.169 A 
ATOM      3  N   UNL     1       7.235  -2.189  22.638  0.00  0.00    -0.218 NA
ATOM      4  C   UNL     1       6.151  -2.695  22.126  0.00  0.00    +0.201 A 
ATOM      5  N   UNL     1       5.742  -4.011  22.252  0.00  0.00    -0.312 N 
ATOM      6  H   UNL     1       4.887  -4.335  21.826  0.00  0.00    +0.170 HD
ATOM      7  C   UNL     1       6.458  -4.974  22.948  0.00  0.00    +0.279 A 
ATOM      8  O   UNL     1       6.072  -6.136  23.028  0.00  0.00    -0.265 OA
ATOM      9  C   UNL     1       7.669  -4.439  23.530  0.00  0.00    +0.172 A 
ATOM     10  N   UNL     1       8.636  -5.050  24.290  0.00  0.00    -0.229 NA
ATOM     11  C   UNL     1       9.491  -4.086  24.572  0.00  0.00    +0.203 A 
ENDROOT
BRANCH   1  15
ATOM     12  C   UNL     1       9.732   0.715  24.161  0.00  0.00    +0.038 C 
ATOM     13  C   UNL     1      10.245   0.250  22.805  0.00  0.00    +0.146 C 
ATOM     14  O   UNL     1      10.285  -1.196  22.844  0.00  0.00    -0.351 OA
ATOM     15  C   UNL     1       9.818  -1.626  24.144  0.00  0.00    +0.222 C 
ATOM     16  C   UNL     1       8.963  -0.484  24.661  0.00  0.00    +0.057 C 
BRANCH  13  17
ATOM     17  C   UNL     1       9.338   0.685  21.649  0.00  0.00    +0.187 C 
BRANCH  17  18
ATOM     18  O   UNL     1       9.555   2.059  21.338  0.00  0.00    -0.392 OA
ATOM     19  H   UNL     1       8.827   2.553  21.759  0.00  0.00    +0.210 HD
ENDBRANCH  17  18
ENDBRANCH  13  17
ENDBRANCH   1  15
TORSDOF 3
ENDMDL
MODEL 9
REMARK VINA RESULT:      -5.8      1.757      6.069
REMARK  Name = 
REMARK  3 active torsions:
REMARK  status: ('A' for Active; 'I' for Inactive)
REMARK    1  A    between atoms: C_3  and  N_10
REMARK    2  A    between atoms: C_6  and  C_8
REMARK    3  A    between atoms: C_8  and  O_9
REMARK                            x       y       z     vdW  Elec       q    Type
REMARK                         _______ _______ _______ _____ _____    ______ ____
ROOT
ATOM      1  N   UNL     1       9.106  -0.781  23.429  0.00  0.00    -0.288 N 
ATOM      2  C   UNL     1       8.725  -1.719  24.350  0.00  0.00    +0.169 A 
ATOM      3  N   UNL     1       7.757  -1.590  25.292  0.00  0.00    -0.218 NA
ATOM      4  C   UNL     1       7.653  -2.647  26.044  0.00  0.00    +0.201 A 
ATOM      5  N   UNL     1       8.420  -3.793  25.929  0.00  0.00    -0.312 N 
ATOM      6  H   UNL     1       8.282  -4.577  26.549  0.00  0.00    +0.170 HD
ATOM      7  C   UNL     1       9.409  -3.962  24.971  0.00  0.00    +0.279 A 
ATOM      8  O   UNL     1      10.060  -4.998  24.890  0.00  0.00    -0.265 OA
ATOM      9  C   UNL     1       9.549  -2.801  24.120  0.00  0.00    +0.172 A 
ATOM     10  N   UNL     1      10.404  -2.564  23.073  0.00  0.00    -0.229 NA
ATOM     11  C   UNL     1      10.116  -1.338  22.683  0.00  0.00    +0.203 A 
ENDROOT
BRANCH   1  15
ATOM     12  C   UNL     1       8.597   2.618  22.183  0.00  0.00    +0.038 C 
ATOM     13  C   UNL     1       9.301   2.758  23.525  0.00  0.00    +0.146 C 
ATOM     14  O   UNL     1       9.248   1.462  24.166  0.00  0.00    -0.351 OA
ATOM     15  C   UNL     1       8.558   0.548  23.281  0.00  0.00    +0.222 C 
ATOM     16  C   UNL     1       8.714   1.140  21.892  0.00  0.00    +0.057 C 
BRANCH  13  17
ATOM     17  C   UNL     1      10.769   3.175  23.382  0.00  0.00    +0.187 C 
BRANCH  17  18
ATOM     18  O   UNL     1      10.869   4.587  23.218  0.00  0.00    -0.392 OA
ATOM     19  H   UNL     1      10.244   4.982  23.853  0.00  0.00    +0.210 HD
ENDBRANCH  17  18
ENDBRANCH  13  17
ENDBRANCH   1  15
TORSDOF 3
ENDMDL
