MODEL 1
REMARK VINA RESULT:      -7.3      0.000      0.000
REMARK  Name = 
REMARK  13 active torsions:
REMARK  status: ('A' for Active; 'I' for Inactive)
REMARK    1  A    between atoms: C_1  and  C_2
REMARK    2  A    between atoms: C_2  and  C_3
REMARK    3  A    between atoms: C_2  and  C_4
REMARK    4  A    between atoms: C_4  and  C_5
REMARK    5  A    between atoms: C_4  and  C_6
REMARK    6  A    between atoms: C_4  and  N_8
REMARK    7  A    between atoms: C_6  and  O_7
REMARK    8  A    between atoms: C_10  and  C_30
REMARK    9  A    between atoms: C_16  and  O_28
REMARK   10  A    between atoms: C_17  and  C_19
REMARK   11  A    between atoms: C_19  and  C_20
REMARK   12  A    between atoms: O_28  and  C_29
REMARK   13  A    between atoms: C_30  and  O_32
REMARK                            x       y       z     vdW  Elec       q    Type
REMARK                         _______ _______ _______ _____ _____    ______ ____
ROOT
ATOM      1  N   UNL     1       5.500  -5.376  25.705  0.00  0.00    -0.337 N 
ATOM      2  C   UNL     1       6.471  -4.713  24.892  0.00  0.00    +0.057 A 
ATOM      3  C   UNL     1       7.517  -3.911  25.359  0.00  0.00    +0.072 A 
ATOM      4  C   UNL     1       8.284  -3.037  24.548  0.00  0.00    +0.126 A 
ATOM      5  C   UNL     1       8.063  -3.015  23.171  0.00  0.00    -0.001 A 
ATOM      6  C   UNL     1       7.173  -3.973  22.650  0.00  0.00    +0.021 A 
ATOM      7  C   UNL     1       6.366  -4.757  23.491  0.00  0.00    +0.047 A 
ATOM      8  C   UNL     1       5.280  -5.522  22.844  0.00  0.00    +0.203 A 
ATOM      9  O   UNL     1       5.215  -5.675  21.626  0.00  0.00    -0.286 OA
ATOM     10  C   UNL     1       4.192  -5.996  23.702  0.00  0.00    +0.122 A 
ATOM     11  C   UNL     1       4.363  -5.834  25.018  0.00  0.00    +0.105 A 
ENDROOT
BRANCH   1  12
ATOM     12  C   UNL     1       5.616  -5.473  27.251  0.00  0.00    +0.068 C 
ATOM     13  C   UNL     1       7.114  -5.692  27.627  0.00  0.00    +0.037 C 
BRANCH  12  15
ATOM     14  C   UNL     1       4.266  -3.147  27.171  0.00  0.00    +0.009 C 
ATOM     15  C   UNL     1       5.174  -4.099  27.980  0.00  0.00    +0.011 C 
ATOM     16  C   UNL     1       4.489  -4.286  29.351  0.00  0.00    +0.009 C 
ENDBRANCH  12  15
BRANCH  12  17
ATOM     17  C   UNL     1       4.761  -6.648  27.840  0.00  0.00    +0.184 C 
BRANCH  17  18
ATOM     18  O   UNL     1       5.531  -7.630  28.525  0.00  0.00    -0.393 OA
ATOM     19  H   UNL     1       6.254  -7.169  28.984  0.00  0.00    +0.209 HD
ENDBRANCH  17  18
ENDBRANCH  12  17
ENDBRANCH   1  12
BRANCH   4  20
ATOM     20  O   UNL     1       9.109  -2.294  25.342  0.00  0.00    -0.495 OA
ATOM     21  C   UNL     1       8.623  -1.360  26.282  0.00  0.00    +0.277 C 
ENDBRANCH   4  20
BRANCH  10  22
ATOM     22  C   UNL     1       2.952  -6.613  23.193  0.00  0.00    +0.342 C 
ATOM     23  O   UNL     1       2.085  -5.990  22.595  0.00  0.00    -0.245 OA
BRANCH  22  24
ATOM     24  O   UNL     1       2.843  -7.938  23.433  0.00  0.00    -0.477 OA
ATOM     25  H   UNL     1       3.380  -8.247  24.203  0.00  0.00    +0.295 HD
ENDBRANCH  22  24
ENDBRANCH  10  22
BRANCH   5  26
ATOM     26  C   UNL     1       8.510  -1.951  22.184  0.00  0.00    +0.077 C 
BRANCH  26  27
ATOM     27  C   UNL     1       8.289  -0.530  22.684  0.00  0.00    -0.006 A 
ATOM     28  C   UNL     1       7.011  -0.023  22.988  0.00  0.00    +0.007 A 
ATOM     29  C   UNL     1       6.844   1.266  23.504  0.00  0.00    +0.002 A 
ATOM     30  C   UNL     1       7.953   2.082  23.702  0.00  0.00    +0.023 A 
ATOM     31  C   UNL     1       9.221   1.620  23.349  0.00  0.00    +0.076 A 
ATOM     32 CL   UNL     1      10.583   2.647  23.584  0.00  0.00    -0.081 Cl
ATOM     33  C   UNL     1       9.381   0.333  22.830  0.00  0.00    +0.145 A 
ATOM     34  F   UNL     1      10.603  -0.099  22.481  0.00  0.00    -0.204 F 
ENDBRANCH  26  27
ENDBRANCH   5  26
TORSDOF 9
ENDMDL
MODEL 2
REMARK VINA RESULT:      -7.2      1.793      2.573
REMARK  Name = 
REMARK  13 active torsions:
REMARK  status: ('A' for Active; 'I' for Inactive)
REMARK    1  A    between atoms: C_1  and  C_2
REMARK    2  A    between atoms: C_2  and  C_3
REMARK    3  A    between atoms: C_2  and  C_4
REMARK    4  A    between atoms: C_4  and  C_5
REMARK    5  A    between atoms: C_4  and  C_6
REMARK    6  A    between atoms: C_4  and  N_8
REMARK    7  A    between atoms: C_6  and  O_7
REMARK    8  A    between atoms: C_10  and  C_30
REMARK    9  A    between atoms: C_16  and  O_28
REMARK   10  A    between atoms: C_17  and  C_19
REMARK   11  A    between atoms: C_19  and  C_20
REMARK   12  A    between atoms: O_28  and  C_29
REMARK   13  A    between atoms: C_30  and  O_32
REMARK                            x       y       z     vdW  Elec       q    Type
REMARK                         _______ _______ _______ _____ _____    ______ ____
ROOT
ATOM      1  N   UNL     1       5.071  -3.581  26.021  0.00  0.00    -0.337 N 
ATOM      2  C   UNL     1       6.453  -3.378  25.715  0.00  0.00    +0.057 A 
ATOM      3  C   UNL     1       7.276  -2.394  26.271  0.00  0.00    +0.072 A 
ATOM      4  C   UNL     1       8.543  -2.019  25.756  0.00  0.00    +0.126 A 
ATOM      5  C   UNL     1       9.072  -2.719  24.672  0.00  0.00    -0.001 A 
ATOM      6  C   UNL     1       8.363  -3.855  24.237  0.00  0.00    +0.021 A 
ATOM      7  C   UNL     1       7.072  -4.140  24.710  0.00  0.00    +0.047 A 
ATOM      8  C   UNL     1       6.318  -5.186  23.989  0.00  0.00    +0.203 A 
ATOM      9  O   UNL     1       6.848  -5.946  23.181  0.00  0.00    -0.286 OA
ATOM     10  C   UNL     1       4.866  -5.212  24.175  0.00  0.00    +0.122 A 
ATOM     11  C   UNL     1       4.373  -4.389  25.107  0.00  0.00    +0.105 A 
ENDROOT
BRANCH   1  12
ATOM     12  C   UNL     1       4.351  -2.866  27.196  0.00  0.00    +0.068 C 
ATOM     13  C   UNL     1       2.819  -3.135  27.082  0.00  0.00    +0.037 C 
BRANCH  12  15
ATOM     14  C   UNL     1       3.826  -3.224  29.810  0.00  0.00    +0.009 C 
ATOM     15  C   UNL     1       4.798  -3.458  28.633  0.00  0.00    +0.011 C 
ATOM     16  C   UNL     1       5.125  -4.966  28.638  0.00  0.00    +0.009 C 
ENDBRANCH  12  15
BRANCH  12  17
ATOM     17  C   UNL     1       4.602  -1.317  27.195  0.00  0.00    +0.184 C 
BRANCH  17  18
ATOM     18  O   UNL     1       4.137  -0.662  26.021  0.00  0.00    -0.393 OA
ATOM     19  H   UNL     1       3.286  -1.064  25.777  0.00  0.00    +0.209 HD
ENDBRANCH  17  18
ENDBRANCH  12  17
ENDBRANCH   1  12
BRANCH   4  20
ATOM     20  O   UNL     1       9.003  -0.930  26.439  0.00  0.00    -0.495 OA
ATOM     21  C   UNL     1       8.203  -0.213  27.354  0.00  0.00    +0.277 C 
ENDBRANCH   4  20
BRANCH  10  22
ATOM     22  C   UNL     1       3.951  -6.070  23.396  0.00  0.00    +0.342 C 
ATOM     23  O   UNL     1       3.123  -5.631  22.609  0.00  0.00    -0.245 OA
BRANCH  22  24
ATOM     24  O   UNL     1       4.100  -7.394  23.614  0.00  0.00    -0.477 OA
ATOM     25  H   UNL     1       3.263  -7.909  23.510  0.00  0.00    +0.295 HD
ENDBRANCH  22  24
ENDBRANCH  10  22
BRANCH   5  26
ATOM     26  C   UNL     1      10.213  -2.289  23.768  0.00  0.00    +0.077 C 
BRANCH  26  27
ATOM     27  C   UNL     1       9.943  -0.986  23.028  0.00  0.00    -0.006 A 
ATOM     28  C   UNL     1       9.218  -0.934  21.822  0.00  0.00    +0.007 A 
ATOM     29  C   UNL     1       8.933   0.284  21.197  0.00  0.00    +0.002 A 
ATOM     30  C   UNL     1       9.388   1.474  21.757  0.00  0.00    +0.023 A 
ATOM     31  C   UNL     1      10.159   1.438  22.918  0.00  0.00    +0.076 A 
ATOM     32 CL   UNL     1      10.731   2.917  23.591  0.00  0.00    -0.081 Cl
ATOM     33  C   UNL     1      10.446   0.218  23.535  0.00  0.00    +0.145 A 
ATOM     34  F   UNL     1      11.200   0.192  24.646  0.00  0.00    -0.204 F 
ENDBRANCH  26  27
ENDBRANCH   5  26
TORSDOF 9
ENDMDL
MODEL 3
REMARK VINA RESULT:      -7.1      2.080      2.906
REMARK  Name = 
REMARK  13 active torsions:
REMARK  status: ('A' for Active; 'I' for Inactive)
REMARK    1  A    between atoms: C_1  and  C_2
REMARK    2  A    between atoms: C_2  and  C_3
REMARK    3  A    between atoms: C_2  and  C_4
REMARK    4  A    between atoms: C_4  and  C_5
REMARK    5  A    between atoms: C_4  and  C_6
REMARK    6  A    between atoms: C_4  and  N_8
REMARK    7  A    between atoms: C_6  and  O_7
REMARK    8  A    between atoms: C_10  and  C_30
REMARK    9  A    between atoms: C_16  and  O_28
REMARK   10  A    between atoms: C_17  and  C_19
REMARK   11  A    between atoms: C_19  and  C_20
REMARK   12  A    between atoms: O_28  and  C_29
REMARK   13  A    between atoms: C_30  and  O_32
REMARK                            x       y       z     vdW  Elec       q    Type
REMARK                         _______ _______ _______ _____ _____    ______ ____
ROOT
ATOM      1  N   UNL     1       5.495  -3.854  25.890  0.00  0.00    -0.337 N 
ATOM      2  C   UNL     1       6.753  -3.177  25.827  0.00  0.00    +0.057 A 
ATOM      3  C   UNL     1       7.177  -2.161  26.690  0.00  0.00    +0.072 A 
ATOM      4  C   UNL     1       8.284  -1.309  26.447  0.00  0.00    +0.126 A 
ATOM      5  C   UNL     1       9.077  -1.527  25.320  0.00  0.00    -0.001 A 
ATOM      6  C   UNL     1       8.803  -2.678  24.558  0.00  0.00    +0.021 A 
ATOM      7  C   UNL     1       7.647  -3.445  24.777  0.00  0.00    +0.047 A 
ATOM      8  C   UNL     1       7.318  -4.456  23.752  0.00  0.00    +0.203 A 
ATOM      9  O   UNL     1       8.115  -4.797  22.880  0.00  0.00    -0.286 OA
ATOM     10  C   UNL     1       5.944  -4.961  23.726  0.00  0.00    +0.122 A 
ATOM     11  C   UNL     1       5.154  -4.581  24.737  0.00  0.00    +0.105 A 
ENDROOT
BRANCH   1  12
ATOM     12  C   UNL     1       4.511  -3.701  27.081  0.00  0.00    +0.068 C 
ATOM     13  C   UNL     1       3.271  -4.611  26.825  0.00  0.00    +0.037 C 
BRANCH  12  15
ATOM     14  C   UNL     1       4.219  -4.247  29.699  0.00  0.00    +0.009 C 
ATOM     15  C   UNL     1       5.156  -4.214  28.472  0.00  0.00    +0.011 C 
ATOM     16  C   UNL     1       5.822  -5.605  28.402  0.00  0.00    +0.009 C 
ENDBRANCH  12  15
BRANCH  12  17
ATOM     17  C   UNL     1       4.031  -2.220  27.271  0.00  0.00    +0.184 C 
BRANCH  17  18
ATOM     18  O   UNL     1       3.630  -1.587  26.061  0.00  0.00    -0.393 OA
ATOM     19  H   UNL     1       2.674  -1.732  25.956  0.00  0.00    +0.209 HD
ENDBRANCH  17  18
ENDBRANCH  12  17
ENDBRANCH   1  12
BRANCH   4  20
ATOM     20  O   UNL     1       8.323  -0.337  27.405  0.00  0.00    -0.495 OA
ATOM     21  C   UNL     1       7.189   0.421  27.766  0.00  0.00    +0.277 C 
ENDBRANCH   4  20
BRANCH  10  22
ATOM     22  C   UNL     1       5.407  -5.832  22.663  0.00  0.00    +0.342 C 
ATOM     23  O   UNL     1       4.245  -5.791  22.280  0.00  0.00    -0.245 OA
BRANCH  22  24
ATOM     24  O   UNL     1       6.304  -6.690  22.131  0.00  0.00    -0.477 OA
ATOM     25  H   UNL     1       6.385  -6.619  21.148  0.00  0.00    +0.295 HD
ENDBRANCH  22  24
ENDBRANCH  10  22
BRANCH   5  26
ATOM     26  C   UNL     1      10.072  -0.565  24.695  0.00  0.00    +0.077 C 
BRANCH  26  27
ATOM     27  C   UNL     1       9.467   0.309  23.606  0.00  0.00    -0.006 A 
ATOM     28  C   UNL     1       9.560  -0.010  22.238  0.00  0.00    +0.007 A 
ATOM     29  C   UNL     1       8.941   0.780  21.263  0.00  0.00    +0.002 A 
ATOM     30  C   UNL     1       8.237   1.919  21.638  0.00  0.00    +0.023 A 
ATOM     31  C   UNL     1       8.185   2.286  22.983  0.00  0.00    +0.076 A 
ATOM     32 CL   UNL     1       7.325   3.708  23.432  0.00  0.00    -0.081 Cl
ATOM     33  C   UNL     1       8.809   1.496  23.952  0.00  0.00    +0.145 A 
ATOM     34  F   UNL     1       8.765   1.863  25.242  0.00  0.00    -0.204 F 
ENDBRANCH  26  27
ENDBRANCH   5  26
TORSDOF 9
ENDMDL
MODEL 4
REMARK VINA RESULT:      -7.0      3.872      7.445
REMARK  Name = 
REMARK  13 active torsions:
REMARK  status: ('A' for Active; 'I' for Inactive)
REMARK    1  A    between atoms: C_1  and  C_2
REMARK    2  A    between atoms: C_2  and  C_3
REMARK    3  A    between atoms: C_2  and  C_4
REMARK    4  A    between atoms: C_4  and  C_5
REMARK    5  A    between atoms: C_4  and  C_6
REMARK    6  A    between atoms: C_4  and  N_8
REMARK    7  A    between atoms: C_6  and  O_7
REMARK    8  A    between atoms: C_10  and  C_30
REMARK    9  A    between atoms: C_16  and  O_28
REMARK   10  A    between atoms: C_17  and  C_19
REMARK   11  A    between atoms: C_19  and  C_20
REMARK   12  A    between atoms: O_28  and  C_29
REMARK   13  A    between atoms: C_30  and  O_32
REMARK                            x       y       z     vdW  Elec       q    Type
REMARK                         _______ _______ _______ _____ _____    ______ ____
ROOT
ATOM      1  N   UNL     1       7.205   1.057  24.624  0.00  0.00    -0.337 N 
ATOM      2  C   UNL     1       7.743  -0.205  25.025  0.00  0.00    +0.057 A 
ATOM      3  C   UNL     1       8.813  -0.867  24.415  0.00  0.00    +0.072 A 
ATOM      4  C   UNL     1       9.145  -2.229  24.630  0.00  0.00    +0.126 A 
ATOM      5  C   UNL     1       8.428  -2.964  25.574  0.00  0.00    -0.001 A 
ATOM      6  C   UNL     1       7.495  -2.260  26.359  0.00  0.00    +0.021 A 
ATOM      7  C   UNL     1       7.130  -0.938  26.055  0.00  0.00    +0.047 A 
ATOM      8  C   UNL     1       5.953  -0.395  26.764  0.00  0.00    +0.203 A 
ATOM      9  O   UNL     1       5.454  -0.953  27.739  0.00  0.00    -0.286 OA
ATOM     10  C   UNL     1       5.307   0.783  26.183  0.00  0.00    +0.122 A 
ATOM     11  C   UNL     1       5.939   1.359  25.155  0.00  0.00    +0.105 A 
ENDROOT
BRANCH   1  12
ATOM     12  C   UNL     1       7.895   1.978  23.580  0.00  0.00    +0.068 C 
ATOM     13  C   UNL     1       6.896   3.103  23.170  0.00  0.00    +0.037 C 
BRANCH  12  15
ATOM     14  C   UNL     1      10.568   2.227  23.734  0.00  0.00    +0.009 C 
ATOM     15  C   UNL     1       9.184   2.734  24.196  0.00  0.00    +0.011 C 
ATOM     16  C   UNL     1       9.196   4.264  23.992  0.00  0.00    +0.009 C 
ENDBRANCH  12  15
BRANCH  12  17
ATOM     17  C   UNL     1       8.341   1.194  22.297  0.00  0.00    +0.184 C 
BRANCH  17  18
ATOM     18  O   UNL     1       8.324   1.979  21.110  0.00  0.00    -0.393 OA
ATOM     19  H   UNL     1       7.459   1.850  20.685  0.00  0.00    +0.209 HD
ENDBRANCH  17  18
ENDBRANCH  12  17
ENDBRANCH   1  12
BRANCH   4  20
ATOM     20  O   UNL     1      10.138  -2.593  23.767  0.00  0.00    -0.495 OA
ATOM     21  C   UNL     1      10.527  -1.790  22.674  0.00  0.00    +0.277 C 
ENDBRANCH   4  20
BRANCH  10  22
ATOM     22  C   UNL     1       4.025   1.338  26.660  0.00  0.00    +0.342 C 
ATOM     23  O   UNL     1       3.872   2.514  26.964  0.00  0.00    -0.245 OA
BRANCH  22  24
ATOM     24  O   UNL     1       3.017   0.443  26.735  0.00  0.00    -0.477 OA
ATOM     25  H   UNL     1       3.319  -0.497  26.713  0.00  0.00    +0.295 HD
ENDBRANCH  22  24
ENDBRANCH  10  22
BRANCH   5  26
ATOM     26  C   UNL     1       8.382  -4.474  25.723  0.00  0.00    +0.077 C 
BRANCH  26  27
ATOM     27  C   UNL     1       7.185  -5.114  25.032  0.00  0.00    -0.006 A 
ATOM     28  C   UNL     1       6.067  -5.592  25.740  0.00  0.00    +0.007 A 
ATOM     29  C   UNL     1       4.955  -6.120  25.074  0.00  0.00    +0.002 A 
ATOM     30  C   UNL     1       4.954  -6.200  23.686  0.00  0.00    +0.023 A 
ATOM     31  C   UNL     1       6.077  -5.789  22.970  0.00  0.00    +0.076 A 
ATOM     32 CL   UNL     1       6.069  -5.910  21.252  0.00  0.00    -0.081 Cl
ATOM     33  C   UNL     1       7.186  -5.267  23.641  0.00  0.00    +0.145 A 
ATOM     34  F   UNL     1       8.269  -4.885  22.945  0.00  0.00    -0.204 F 
ENDBRANCH  26  27
ENDBRANCH   5  26
TORSDOF 9
ENDMDL
MODEL 5
REMARK VINA RESULT:      -7.0      4.137      8.157
REMARK  Name = 
REMARK  13 active torsions:
REMARK  status: ('A' for Active; 'I' for Inactive)
REMARK    1  A    between atoms: C_1  and  C_2
REMARK    2  A    between atoms: C_2  and  C_3
REMARK    3  A    between atoms: C_2  and  C_4
REMARK    4  A    between atoms: C_4  and  C_5
REMARK    5  A    between atoms: C_4  and  C_6
REMARK    6  A    between atoms: C_4  and  N_8
REMARK    7  A    between atoms: C_6  and  O_7
REMARK    8  A    between atoms: C_10  and  C_30
REMARK    9  A    between atoms: C_16  and  O_28
REMARK   10  A    between atoms: C_17  and  C_19
REMARK   11  A    between atoms: C_19  and  C_20
REMARK   12  A    between atoms: O_28  and  C_29
REMARK   13  A    between atoms: C_30  and  O_32
REMARK                            x       y       z     vdW  Elec       q    Type
REMARK                         _______ _______ _______ _____ _____    ______ ____
ROOT
ATOM      1  N   UNL     1       7.931   2.000  24.723  0.00  0.00    -0.337 N 
ATOM      2  C   UNL     1       8.316   0.668  25.073  0.00  0.00    +0.057 A 
ATOM      3  C   UNL     1       8.977  -0.237  24.237  0.00  0.00    +0.072 A 
ATOM      4  C   UNL     1       9.091  -1.627  24.486  0.00  0.00    +0.126 A 
ATOM      5  C   UNL     1       8.595  -2.148  25.682  0.00  0.00    -0.001 A 
ATOM      6  C   UNL     1       8.125  -1.225  26.635  0.00  0.00    +0.021 A 
ATOM      7  C   UNL     1       7.944   0.131  26.317  0.00  0.00    +0.047 A 
ATOM      8  C   UNL     1       7.192   0.947  27.292  0.00  0.00    +0.203 A 
ATOM      9  O   UNL     1       6.941   0.553  28.429  0.00  0.00    -0.286 OA
ATOM     10  C   UNL     1       6.633   2.213  26.815  0.00  0.00    +0.122 A 
ATOM     11  C   UNL     1       6.992   2.593  25.584  0.00  0.00    +0.105 A 
ENDROOT
BRANCH   1  12
ATOM     12  C   UNL     1       8.405   2.703  23.422  0.00  0.00    +0.068 C 
ATOM     13  C   UNL     1       7.537   2.190  22.232  0.00  0.00    +0.037 C 
BRANCH  12  15
ATOM     14  C   UNL     1       9.428   5.171  23.735  0.00  0.00    +0.009 C 
ATOM     15  C   UNL     1       8.177   4.303  23.478  0.00  0.00    +0.011 C 
ATOM     16  C   UNL     1       7.485   4.902  22.235  0.00  0.00    +0.009 C 
ENDBRANCH  12  15
BRANCH  12  17
ATOM     17  C   UNL     1       9.917   2.426  23.111  0.00  0.00    +0.184 C 
BRANCH  17  18
ATOM     18  O   UNL     1      10.194   2.233  21.728  0.00  0.00    -0.393 OA
ATOM     19  H   UNL     1      11.133   2.439  21.585  0.00  0.00    +0.209 HD
ENDBRANCH  17  18
ENDBRANCH  12  17
ENDBRANCH   1  12
BRANCH   4  20
ATOM     20  O   UNL     1       9.657  -2.235  23.403  0.00  0.00    -0.495 OA
ATOM     21  C   UNL     1      10.190  -1.510  22.317  0.00  0.00    +0.277 C 
ENDBRANCH   4  20
BRANCH  10  22
ATOM     22  C   UNL     1       5.711   3.054  27.603  0.00  0.00    +0.342 C 
ATOM     23  O   UNL     1       5.824   4.269  27.700  0.00  0.00    -0.245 OA
BRANCH  22  24
ATOM     24  O   UNL     1       4.716   2.378  28.216  0.00  0.00    -0.477 OA
ATOM     25  H   UNL     1       4.178   2.934  28.830  0.00  0.00    +0.295 HD
ENDBRANCH  22  24
ENDBRANCH  10  22
BRANCH   5  26
ATOM     26  C   UNL     1       8.309  -3.604  26.002  0.00  0.00    +0.077 C 
BRANCH  26  27
ATOM     27  C   UNL     1       7.153  -4.185  25.199  0.00  0.00    -0.006 A 
ATOM     28  C   UNL     1       5.806  -3.984  25.552  0.00  0.00    +0.007 A 
ATOM     29  C   UNL     1       4.764  -4.479  24.761  0.00  0.00    +0.002 A 
ATOM     30  C   UNL     1       5.053  -5.206  23.611  0.00  0.00    +0.023 A 
ATOM     31  C   UNL     1       6.381  -5.468  23.277  0.00  0.00    +0.076 A 
ATOM     32 CL   UNL     1       6.725  -6.385  21.860  0.00  0.00    -0.081 Cl
ATOM     33  C   UNL     1       7.418  -4.976  24.074  0.00  0.00    +0.145 A 
ATOM     34  F   UNL     1       8.693  -5.245  23.753  0.00  0.00    -0.204 F 
ENDBRANCH  26  27
ENDBRANCH   5  26
TORSDOF 9
ENDMDL
MODEL 6
REMARK VINA RESULT:      -6.9      2.378      4.253
REMARK  Name = 
REMARK  13 active torsions:
REMARK  status: ('A' for Active; 'I' for Inactive)
REMARK    1  A    between atoms: C_1  and  C_2
REMARK    2  A    between atoms: C_2  and  C_3
REMARK    3  A    between atoms: C_2  and  C_4
REMARK    4  A    between atoms: C_4  and  C_5
REMARK    5  A    between atoms: C_4  and  C_6
REMARK    6  A    between atoms: C_4  and  N_8
REMARK    7  A    between atoms: C_6  and  O_7
REMARK    8  A    between atoms: C_10  and  C_30
REMARK    9  A    between atoms: C_16  and  O_28
REMARK   10  A    between atoms: C_17  and  C_19
REMARK   11  A    between atoms: C_19  and  C_20
REMARK   12  A    between atoms: O_28  and  C_29
REMARK   13  A    between atoms: C_30  and  O_32
REMARK                            x       y       z     vdW  Elec       q    Type
REMARK                         _______ _______ _______ _____ _____    ______ ____
ROOT
ATOM      1  N   UNL     1       4.662  -4.202  26.453  0.00  0.00    -0.337 N 
ATOM      2  C   UNL     1       5.740  -3.772  25.617  0.00  0.00    +0.057 A 
ATOM      3  C   UNL     1       6.465  -4.582  24.738  0.00  0.00    +0.072 A 
ATOM      4  C   UNL     1       7.699  -4.220  24.142  0.00  0.00    +0.126 A 
ATOM      5  C   UNL     1       8.211  -2.941  24.359  0.00  0.00    -0.001 A 
ATOM      6  C   UNL     1       7.391  -2.033  25.057  0.00  0.00    +0.021 A 
ATOM      7  C   UNL     1       6.220  -2.454  25.708  0.00  0.00    +0.047 A 
ATOM      8  C   UNL     1       5.593  -1.489  26.634  0.00  0.00    +0.203 A 
ATOM      9  O   UNL     1       5.911  -0.302  26.667  0.00  0.00    -0.286 OA
ATOM     10  C   UNL     1       4.650  -2.023  27.619  0.00  0.00    +0.122 A 
ATOM     11  C   UNL     1       4.319  -3.311  27.484  0.00  0.00    +0.105 A 
ENDROOT
BRANCH   1  12
ATOM     12  C   UNL     1       4.000  -5.601  26.325  0.00  0.00    +0.068 C 
ATOM     13  C   UNL     1       2.679  -5.605  27.155  0.00  0.00    +0.037 C 
BRANCH  12  15
ATOM     14  C   UNL     1       3.134  -7.383  24.506  0.00  0.00    +0.009 C 
ATOM     15  C   UNL     1       3.566  -5.930  24.803  0.00  0.00    +0.011 C 
ATOM     16  C   UNL     1       2.452  -5.025  24.236  0.00  0.00    +0.009 C 
ENDBRANCH  12  15
BRANCH  12  17
ATOM     17  C   UNL     1       4.933  -6.752  26.839  0.00  0.00    +0.184 C 
BRANCH  17  18
ATOM     18  O   UNL     1       4.480  -7.364  28.042  0.00  0.00    -0.393 OA
ATOM     19  H   UNL     1       3.560  -7.644  27.901  0.00  0.00    +0.209 HD
ENDBRANCH  17  18
ENDBRANCH  12  17
ENDBRANCH   1  12
BRANCH   4  20
ATOM     20  O   UNL     1       8.207  -5.294  23.469  0.00  0.00    -0.495 OA
ATOM     21  C   UNL     1       7.567  -5.858  22.345  0.00  0.00    +0.277 C 
ENDBRANCH   4  20
BRANCH  10  22
ATOM     22  C   UNL     1       4.076  -1.229  28.723  0.00  0.00    +0.342 C 
ATOM     23  O   UNL     1       4.082  -1.596  29.891  0.00  0.00    -0.245 OA
BRANCH  22  24
ATOM     24  O   UNL     1       3.541  -0.047  28.348  0.00  0.00    -0.477 OA
ATOM     25  H   UNL     1       2.567  -0.087  28.187  0.00  0.00    +0.295 HD
ENDBRANCH  22  24
ENDBRANCH  10  22
BRANCH   5  26
ATOM     26  C   UNL     1       9.631  -2.464  24.112  0.00  0.00    +0.077 C 
BRANCH  26  27
ATOM     27  C   UNL     1       9.707  -1.196  23.272  0.00  0.00    -0.006 A 
ATOM     28  C   UNL     1       9.277  -1.146  21.933  0.00  0.00    +0.007 A 
ATOM     29  C   UNL     1       9.301   0.048  21.204  0.00  0.00    +0.002 A 
ATOM     30  C   UNL     1       9.780   1.211  21.798  0.00  0.00    +0.023 A 
ATOM     31  C   UNL     1      10.268   1.169  23.103  0.00  0.00    +0.076 A 
ATOM     32 CL   UNL     1      10.875   2.613  23.819  0.00  0.00    -0.081 Cl
ATOM     33  C   UNL     1      10.245  -0.028  23.824  0.00  0.00    +0.145 A 
ATOM     34  F   UNL     1      10.729  -0.063  25.076  0.00  0.00    -0.204 F 
ENDBRANCH  26  27
ENDBRANCH   5  26
TORSDOF 9
ENDMDL
MODEL 7
REMARK VINA RESULT:      -6.7      3.780      7.784
REMARK  Name = 
REMARK  13 active torsions:
REMARK  status: ('A' for Active; 'I' for Inactive)
REMARK    1  A    between atoms: C_1  and  C_2
REMARK    2  A    between atoms: C_2  and  C_3
REMARK    3  A    between atoms: C_2  and  C_4
REMARK    4  A    between atoms: C_4  and  C_5
REMARK    5  A    between atoms: C_4  and  C_6
REMARK    6  A    between atoms: C_4  and  N_8
REMARK    7  A    between atoms: C_6  and  O_7
REMARK    8  A    between atoms: C_10  and  C_30
REMARK    9  A    between atoms: C_16  and  O_28
REMARK   10  A    between atoms: C_17  and  C_19
REMARK   11  A    between atoms: C_19  and  C_20
REMARK   12  A    between atoms: O_28  and  C_29
REMARK   13  A    between atoms: C_30  and  O_32
REMARK                            x       y       z     vdW  Elec       q    Type
REMARK                         _______ _______ _______ _____ _____    ______ ____
ROOT
ATOM      1  N   UNL     1       7.667   2.024  25.415  0.00  0.00    -0.337 N 
ATOM      2  C   UNL     1       7.456   0.613  25.319  0.00  0.00    +0.057 A 
ATOM      3  C   UNL     1       6.656  -0.152  26.174  0.00  0.00    +0.072 A 
ATOM      4  C   UNL     1       6.684  -1.567  26.249  0.00  0.00    +0.126 A 
ATOM      5  C   UNL     1       7.492  -2.281  25.364  0.00  0.00    -0.001 A 
ATOM      6  C   UNL     1       8.135  -1.546  24.350  0.00  0.00    +0.021 A 
ATOM      7  C   UNL     1       8.157  -0.142  24.364  0.00  0.00    +0.047 A 
ATOM      8  C   UNL     1       9.084   0.516  23.420  0.00  0.00    +0.203 A 
ATOM      9  O   UNL     1       9.633  -0.089  22.502  0.00  0.00    -0.286 OA
ATOM     10  C   UNL     1       9.436   1.912  23.692  0.00  0.00    +0.122 A 
ATOM     11  C   UNL     1       8.758   2.512  24.676  0.00  0.00    +0.105 A 
ENDROOT
BRANCH   1  12
ATOM     12  C   UNL     1       6.844   2.940  26.361  0.00  0.00    +0.068 C 
ATOM     13  C   UNL     1       7.522   4.344  26.412  0.00  0.00    +0.037 C 
BRANCH  12  15
ATOM     14  C   UNL     1       5.094   2.870  24.319  0.00  0.00    +0.009 C 
ATOM     15  C   UNL     1       5.346   3.194  25.808  0.00  0.00    +0.011 C 
ATOM     16  C   UNL     1       4.234   2.473  26.599  0.00  0.00    +0.009 C 
ENDBRANCH  12  15
BRANCH  12  17
ATOM     17  C   UNL     1       6.748   2.363  27.816  0.00  0.00    +0.184 C 
BRANCH  17  18
ATOM     18  O   UNL     1       7.494   3.101  28.777  0.00  0.00    -0.393 OA
ATOM     19  H   UNL     1       7.259   4.039  28.674  0.00  0.00    +0.209 HD
ENDBRANCH  17  18
ENDBRANCH  12  17
ENDBRANCH   1  12
BRANCH   4  20
ATOM     20  O   UNL     1       5.899  -1.979  27.287  0.00  0.00    -0.495 OA
ATOM     21  C   UNL     1       4.535  -2.305  27.126  0.00  0.00    +0.277 C 
ENDBRANCH   4  20
BRANCH  10  22
ATOM     22  C   UNL     1      10.479   2.655  22.958  0.00  0.00    +0.342 C 
ATOM     23  O   UNL     1      11.292   3.389  23.503  0.00  0.00    -0.245 OA
BRANCH  22  24
ATOM     24  O   UNL     1      10.474   2.461  21.622  0.00  0.00    -0.477 OA
ATOM     25  H   UNL     1      10.494   1.508  21.360  0.00  0.00    +0.295 HD
ENDBRANCH  22  24
ENDBRANCH  10  22
BRANCH   5  26
ATOM     26  C   UNL     1       7.929  -3.730  25.481  0.00  0.00    +0.077 C 
BRANCH  26  27
ATOM     27  C   UNL     1       6.923  -4.715  24.901  0.00  0.00    -0.006 A 
ATOM     28  C   UNL     1       6.003  -5.420  25.700  0.00  0.00    +0.007 A 
ATOM     29  C   UNL     1       5.050  -6.272  25.132  0.00  0.00    +0.002 A 
ATOM     30  C   UNL     1       5.015  -6.452  23.753  0.00  0.00    +0.023 A 
ATOM     31  C   UNL     1       5.957  -5.810  22.950  0.00  0.00    +0.076 A 
ATOM     32 CL   UNL     1       5.914  -6.055  21.246  0.00  0.00    -0.081 Cl
ATOM     33  C   UNL     1       6.910  -4.964  23.523  0.00  0.00    +0.145 A 
ATOM     34  F   UNL     1       7.822  -4.360  22.744  0.00  0.00    -0.204 F 
ENDBRANCH  26  27
ENDBRANCH   5  26
TORSDOF 9
ENDMDL
MODEL 8
REMARK VINA RESULT:      -6.7      3.764      7.699
REMARK  Name = 
REMARK  13 active torsions:
REMARK  status: ('A' for Active; 'I' for Inactive)
REMARK    1  A    between atoms: C_1  and  C_2
REMARK    2  A    between atoms: C_2  and  C_3
REMARK    3  A    between atoms: C_2  and  C_4
REMARK    4  A    between atoms: C_4  and  C_5
REMARK    5  A    between atoms: C_4  and  C_6
REMARK    6  A    between atoms: C_4  and  N_8
REMARK    7  A    between atoms: C_6  and  O_7
REMARK    8  A    between atoms: C_10  and  C_30
REMARK    9  A    between atoms: C_16  and  O_28
REMARK   10  A    between atoms: C_17  and  C_19
REMARK   11  A    between atoms: C_19  and  C_20
REMARK   12  A    between atoms: O_28  and  C_29
REMARK   13  A    between atoms: C_30  and  O_32
REMARK                            x       y       z     vdW  Elec       q    Type
REMARK                         _______ _______ _______ _____ _____    ______ ____
ROOT
ATOM      1  N   UNL     1       7.646  -0.046  23.369  0.00  0.00    -0.337 N 
ATOM      2  C   UNL     1       7.181  -1.296  23.883  0.00  0.00    +0.057 A 
ATOM      3  C   UNL     1       7.675  -2.557  23.533  0.00  0.00    +0.072 A 
ATOM      4  C   UNL     1       7.025  -3.784  23.820  0.00  0.00    +0.126 A 
ATOM      5  C   UNL     1       5.853  -3.773  24.576  0.00  0.00    -0.001 A 
ATOM      6  C   UNL     1       5.458  -2.540  25.127  0.00  0.00    +0.021 A 
ATOM      7  C   UNL     1       6.073  -1.336  24.746  0.00  0.00    +0.047 A 
ATOM      8  C   UNL     1       5.405  -0.087  25.167  0.00  0.00    +0.203 A 
ATOM      9  O   UNL     1       4.504  -0.069  26.003  0.00  0.00    -0.286 OA
ATOM     10  C   UNL     1       5.767   1.139  24.454  0.00  0.00    +0.122 A 
ATOM     11  C   UNL     1       6.790   1.045  23.596  0.00  0.00    +0.105 A 
ENDROOT
BRANCH   1  12
ATOM     12  C   UNL     1       8.932   0.090  22.509  0.00  0.00    +0.068 C 
ATOM     13  C   UNL     1       8.736   1.261  21.498  0.00  0.00    +0.037 C 
BRANCH  12  15
ATOM     14  C   UNL     1      10.564   1.991  23.486  0.00  0.00    +0.009 C 
ATOM     15  C   UNL     1      10.220   0.489  23.402  0.00  0.00    +0.011 C 
ATOM     16  C   UNL     1      10.183  -0.027  24.857  0.00  0.00    +0.009 C 
ENDBRANCH  12  15
BRANCH  12  17
ATOM     17  C   UNL     1       9.261  -1.223  21.718  0.00  0.00    +0.184 C 
BRANCH  17  18
ATOM     18  O   UNL     1      10.626  -1.620  21.806  0.00  0.00    -0.393 OA
ATOM     19  H   UNL     1      10.757  -2.028  22.678  0.00  0.00    +0.209 HD
ENDBRANCH  17  18
ENDBRANCH  12  17
ENDBRANCH   1  12
BRANCH   4  20
ATOM     20  O   UNL     1       7.695  -4.803  23.206  0.00  0.00    -0.495 OA
ATOM     21  C   UNL     1       7.201  -5.452  22.055  0.00  0.00    +0.277 C 
ENDBRANCH   4  20
BRANCH  10  22
ATOM     22  C   UNL     1       5.069   2.428  24.625  0.00  0.00    +0.342 C 
ATOM     23  O   UNL     1       5.645   3.478  24.879  0.00  0.00    -0.245 OA
BRANCH  22  24
ATOM     24  O   UNL     1       3.728   2.366  24.476  0.00  0.00    -0.477 OA
ATOM     25  H   UNL     1       3.413   1.523  24.068  0.00  0.00    +0.295 HD
ENDBRANCH  22  24
ENDBRANCH  10  22
BRANCH   5  26
ATOM     26  C   UNL     1       4.836  -4.892  24.711  0.00  0.00    +0.077 C 
BRANCH  26  27
ATOM     27  C   UNL     1       4.489  -5.224  26.156  0.00  0.00    -0.006 A 
ATOM     28  C   UNL     1       3.201  -5.031  26.690  0.00  0.00    +0.007 A 
ATOM     29  C   UNL     1       2.895  -5.403  28.004  0.00  0.00    +0.002 A 
ATOM     30  C   UNL     1       3.882  -5.953  28.815  0.00  0.00    +0.023 A 
ATOM     31  C   UNL     1       5.179  -6.095  28.324  0.00  0.00    +0.076 A 
ATOM     32 CL   UNL     1       6.395  -6.762  29.345  0.00  0.00    -0.081 Cl
ATOM     33  C   UNL     1       5.479  -5.718  27.012  0.00  0.00    +0.145 A 
ATOM     34  F   UNL     1       6.734  -5.846  26.551  0.00  0.00    -0.204 F 
ENDBRANCH  26  27
ENDBRANCH   5  26
TORSDOF 9
ENDMDL
MODEL 9
REMARK VINA RESULT:      -6.5      2.422      4.129
REMARK  Name = 
REMARK  13 active torsions:
REMARK  status: ('A' for Active; 'I' for Inactive)
REMARK    1  A    between atoms: C_1  and  C_2
REMARK    2  A    between atoms: C_2  and  C_3
REMARK    3  A    between atoms: C_2  and  C_4
REMARK    4  A    between atoms: C_4  and  C_5
REMARK    5  A    between atoms: C_4  and  C_6
REMARK    6  A    between atoms: C_4  and  N_8
REMARK    7  A    between atoms: C_6  and  O_7
REMARK    8  A    between atoms: C_10  and  C_30
REMARK    9  A    between atoms: C_16  and  O_28
REMARK   10  A    between atoms: C_17  and  C_19
REMARK   11  A    between atoms: C_19  and  C_20
REMARK   12  A    between atoms: O_28  and  C_29
REMARK   13  A    between atoms: C_30  and  O_32
REMARK                            x       y       z     vdW  Elec       q    Type
REMARK                         _______ _______ _______ _____ _____    ______ ____
ROOT
ATOM      1  N   UNL     1       4.416  -4.135  25.390  0.00  0.00    -0.337 N 
ATOM      2  C   UNL     1       5.261  -3.660  24.340  0.00  0.00    +0.057 A 
ATOM      3  C   UNL     1       5.867  -4.452  23.359  0.00  0.00    +0.072 A 
ATOM      4  C   UNL     1       6.920  -4.020  22.513  0.00  0.00    +0.126 A 
ATOM      5  C   UNL     1       7.346  -2.693  22.579  0.00  0.00    -0.001 A 
ATOM      6  C   UNL     1       6.603  -1.822  23.399  0.00  0.00    +0.021 A 
ATOM      7  C   UNL     1       5.629  -2.305  24.288  0.00  0.00    +0.047 A 
ATOM      8  C   UNL     1       5.113  -1.348  25.289  0.00  0.00    +0.203 A 
ATOM      9  O   UNL     1       5.322  -0.139  25.217  0.00  0.00    -0.286 OA
ATOM     10  C   UNL     1       4.437  -1.907  26.462  0.00  0.00    +0.122 A 
ATOM     11  C   UNL     1       4.205  -3.224  26.440  0.00  0.00    +0.105 A 
ENDROOT
BRANCH   1  12
ATOM     12  C   UNL     1       3.871  -5.588  25.446  0.00  0.00    +0.068 C 
ATOM     13  C   UNL     1       4.941  -6.497  26.126  0.00  0.00    +0.037 C 
BRANCH  12  15
ATOM     14  C   UNL     1       1.197  -5.405  25.672  0.00  0.00    +0.009 C 
ATOM     15  C   UNL     1       2.545  -5.704  26.364  0.00  0.00    +0.011 C 
ATOM     16  C   UNL     1       2.370  -7.060  27.080  0.00  0.00    +0.009 C 
ENDBRANCH  12  15
BRANCH  12  17
ATOM     17  C   UNL     1       3.544  -6.157  24.022  0.00  0.00    +0.184 C 
BRANCH  17  18
ATOM     18  O   UNL     1       4.075  -7.457  23.788  0.00  0.00    -0.393 OA
ATOM     19  H   UNL     1       3.324  -8.066  23.682  0.00  0.00    +0.209 HD
ENDBRANCH  17  18
ENDBRANCH  12  17
ENDBRANCH   1  12
BRANCH   4  20
ATOM     20  O   UNL     1       7.379  -5.081  21.787  0.00  0.00    -0.495 OA
ATOM     21  C   UNL     1       6.525  -5.913  21.033  0.00  0.00    +0.277 C 
ENDBRANCH   4  20
BRANCH  10  22
ATOM     22  C   UNL     1       4.025  -1.108  27.632  0.00  0.00    +0.342 C 
ATOM     23  O   UNL     1       4.351  -1.379  28.781  0.00  0.00    -0.245 OA
BRANCH  22  24
ATOM     24  O   UNL     1       3.256  -0.037  27.341  0.00  0.00    -0.477 OA
ATOM     25  H   UNL     1       3.267   0.210  26.384  0.00  0.00    +0.295 HD
ENDBRANCH  22  24
ENDBRANCH  10  22
BRANCH   5  26
ATOM     26  C   UNL     1       8.639  -2.114  22.034  0.00  0.00    +0.077 C 
BRANCH  26  27
ATOM     27  C   UNL     1       9.240  -1.032  22.921  0.00  0.00    -0.006 A 
ATOM     28  C   UNL     1       9.527  -1.241  24.283  0.00  0.00    +0.007 A 
ATOM     29  C   UNL     1      10.136  -0.249  25.059  0.00  0.00    +0.002 A 
ATOM     30  C   UNL     1      10.447   0.982  24.490  0.00  0.00    +0.023 A 
ATOM     31  C   UNL     1      10.115   1.229  23.158  0.00  0.00    +0.076 A 
ATOM     32 CL   UNL     1      10.491   2.763  22.471  0.00  0.00    -0.081 Cl
ATOM     33  C   UNL     1       9.503   0.236  22.390  0.00  0.00    +0.145 A 
ATOM     34  F   UNL     1       9.174   0.487  21.112  0.00  0.00    -0.204 F 
ENDBRANCH  26  27
ENDBRANCH   5  26
TORSDOF 9
ENDMDL
