MODEL 1
REMARK VINA RESULT:      -7.0      0.000      0.000
REMARK  Name = 
REMARK  21 active torsions:
REMARK  status: ('A' for Active; 'I' for Inactive)
REMARK    1  A    between atoms: C_1  and  C_2
REMARK    2  A    between atoms: C_2  and  C_3
REMARK    3  A    between atoms: C_2  and  C_4
REMARK    4  A    between atoms: C_2  and  C_5
REMARK    5  A    between atoms: C_5  and  C_7
REMARK    6  A    between atoms: C_5  and  N_48
REMARK    7  A    between atoms: C_11  and  O_34
REMARK    8  A    between atoms: C_14  and  C_16
REMARK    9  A    between atoms: N_18  and  C_19
REMARK   10  A    between atoms: C_19  and  C_25
REMARK   11  A    between atoms: C_21  and  C_23
REMARK   12  A    between atoms: N_27  and  S_28
REMARK   13  A    between atoms: S_28  and  C_31
REMARK   14  A    between atoms: O_34  and  C_35
REMARK   15  A    between atoms: C_38  and  O_46
REMARK   16  A    between atoms: O_46  and  C_47
REMARK   17  A    between atoms: C_49  and  O_51
REMARK   18  A    between atoms: O_51  and  C_52
REMARK   19  A    between atoms: C_52  and  C_53
REMARK   20  A    between atoms: C_52  and  C_54
REMARK   21  A    between atoms: C_52  and  C_55
REMARK                            x       y       z     vdW  Elec       q    Type
REMARK                         _______ _______ _______ _____ _____    ______ ____
ROOT
ATOM      1  C   UNL     1       9.537   0.404  24.927  0.00  0.00    +0.237 C 
ATOM      2  N   UNL     1       8.532  -0.007  25.787  0.00  0.00    -0.285 N 
ATOM      3  C   UNL     1       7.077   0.130  25.682  0.00  0.00    +0.166 C 
ATOM      4  C   UNL     1       6.506  -0.979  26.587  0.00  0.00    +0.078 C 
ATOM      5  C   UNL     1       7.708  -1.835  27.012  0.00  0.00    +0.195 C 
ATOM      6  C   UNL     1       8.854  -0.827  26.951  0.00  0.00    +0.153 C 
ATOM      7  O   UNL     1      10.714   0.074  25.146  0.00  0.00    -0.274 OA
ENDROOT
BRANCH   3   8
ATOM      8  C   UNL     1       6.510   1.491  26.132  0.00  0.00    +0.234 C 
ATOM      9  N   UNL     1       7.234   2.106  27.143  0.00  0.00    -0.299 N 
ATOM     10  H   UNL     1       8.070   1.660  27.500  0.00  0.00    +0.150 HD
ATOM     11  O   UNL     1       5.523   2.012  25.622  0.00  0.00    -0.274 OA
BRANCH   9  12
ATOM     12  C   UNL     1       6.811   3.340  27.814  0.00  0.00    +0.119 C 
ATOM     13  C   UNL     1       5.672   3.324  28.836  0.00  0.00    +0.046 C 
ATOM     14  C   UNL     1       7.085   3.379  29.324  0.00  0.00    +0.046 C 
BRANCH  12  15
ATOM     15  C   UNL     1       6.999   4.662  27.064  0.00  0.00    +0.256 C 
ATOM     16  N   UNL     1       6.500   4.706  25.762  0.00  0.00    -0.188 N 
ATOM     17  H   UNL     1       5.827   3.984  25.481  0.00  0.00    +0.176 HD
ATOM     18  O   UNL     1       7.568   5.602  27.598  0.00  0.00    -0.272 OA
BRANCH  16  19
ATOM     19  S   UNL     1       6.425   6.063  24.821  0.00  0.00    +0.048 S 
ATOM     20  O   UNL     1       7.760   6.614  24.758  0.00  0.00    -0.155 OA
ATOM     21  O   UNL     1       5.324   6.849  25.349  0.00  0.00    -0.155 OA
BRANCH  19  22
ATOM     22  C   UNL     1       6.000   5.577  23.126  0.00  0.00    +0.151 C 
ATOM     23  C   UNL     1       6.378   4.181  22.720  0.00  0.00    +0.030 C 
ATOM     24  C   UNL     1       7.193   5.350  22.234  0.00  0.00    +0.030 C 
ENDBRANCH  19  22
ENDBRANCH  16  19
ENDBRANCH  12  15
BRANCH  13  25
ATOM     25  C   UNL     1       4.893   2.107  29.071  0.00  0.00    -0.028 C 
ATOM     26  C   UNL     1       5.260   1.122  29.897  0.00  0.00    +0.004 C 
ENDBRANCH  13  25
ENDBRANCH   9  12
ENDBRANCH   3   8
BRANCH   1  27
ATOM     27  C   UNL     1       9.219   1.258  23.664  0.00  0.00    +0.168 C 
BRANCH  27  29
ATOM     28  C   UNL     1       7.746  -0.521  22.478  0.00  0.00    +0.013 C 
ATOM     29  C   UNL     1       8.922   0.457  22.343  0.00  0.00    -0.011 C 
ATOM     30  C   UNL     1       8.529   1.455  21.225  0.00  0.00    +0.013 C 
ATOM     31  C   UNL     1      10.145  -0.353  21.866  0.00  0.00    +0.013 C 
ENDBRANCH  27  29
BRANCH  27  32
ATOM     32  N   UNL     1      10.406   2.114  23.446  0.00  0.00    -0.269 N 
ATOM     33  H   UNL     1      11.259   1.676  23.123  0.00  0.00    +0.153 HD
ATOM     34  C   UNL     1      10.512   3.398  23.879  0.00  0.00    +0.401 C 
ATOM     35  O   UNL     1       9.633   3.987  24.485  0.00  0.00    -0.226 OA
BRANCH  34  36
ATOM     36  O   UNL     1      11.701   3.932  23.494  0.00  0.00    -0.445 OA
BRANCH  36  37
ATOM     37  C   UNL     1      11.836   5.377  23.360  0.00  0.00    +0.107 C 
ATOM     38  C   UNL     1      10.510   6.054  22.985  0.00  0.00    +0.055 C 
ATOM     39  C   UNL     1      12.818   5.611  22.196  0.00  0.00    +0.055 C 
ATOM     40  C   UNL     1      12.445   5.984  24.629  0.00  0.00    +0.055 C 
ENDBRANCH  36  37
ENDBRANCH  34  36
ENDBRANCH  27  32
ENDBRANCH   1  27
BRANCH   5  41
ATOM     41  O   UNL     1       8.002  -2.883  26.073  0.00  0.00    -0.471 OA
BRANCH  41  42
ATOM     42  C   UNL     1       7.260  -4.038  26.230  0.00  0.00    +0.223 A 
ATOM     43  C   UNL     1       6.549  -4.511  25.112  0.00  0.00    +0.049 A 
ATOM     44  C   UNL     1       6.677  -3.964  23.813  0.00  0.00    +0.034 A 
ATOM     45  C   UNL     1       5.908  -4.449  22.756  0.00  0.00    +0.042 A 
ATOM     46 CL   UNL     1       6.068  -3.760  21.188  0.00  0.00    -0.084 Cl
ATOM     47  C   UNL     1       5.002  -5.481  22.964  0.00  0.00    +0.021 A 
ATOM     48  C   UNL     1       4.876  -6.042  24.236  0.00  0.00    +0.014 A 
ATOM     49  C   UNL     1       5.644  -5.578  25.328  0.00  0.00    +0.030 A 
ATOM     50  C   UNL     1       5.522  -6.128  26.623  0.00  0.00    +0.146 A 
ATOM     51  C   UNL     1       6.319  -5.599  27.631  0.00  0.00    +0.160 A 
ATOM     52  N   UNL     1       7.177  -4.572  27.467  0.00  0.00    -0.217 NA
BRANCH  50  53
ATOM     53  O   UNL     1       4.617  -7.143  26.791  0.00  0.00    -0.493 OA
ATOM     54  C   UNL     1       3.375  -6.811  27.402  0.00  0.00    +0.277 C 
ENDBRANCH  50  53
ENDBRANCH  41  42
ENDBRANCH   5  41
TORSDOF 14
ENDMDL
MODEL 2
REMARK VINA RESULT:      -7.0      2.401      5.484
REMARK  Name = 
REMARK  21 active torsions:
REMARK  status: ('A' for Active; 'I' for Inactive)
REMARK    1  A    between atoms: C_1  and  C_2
REMARK    2  A    between atoms: C_2  and  C_3
REMARK    3  A    between atoms: C_2  and  C_4
REMARK    4  A    between atoms: C_2  and  C_5
REMARK    5  A    between atoms: C_5  and  C_7
REMARK    6  A    between atoms: C_5  and  N_48
REMARK    7  A    between atoms: C_11  and  O_34
REMARK    8  A    between atoms: C_14  and  C_16
REMARK    9  A    between atoms: N_18  and  C_19
REMARK   10  A    between atoms: C_19  and  C_25
REMARK   11  A    between atoms: C_21  and  C_23
REMARK   12  A    between atoms: N_27  and  S_28
REMARK   13  A    between atoms: S_28  and  C_31
REMARK   14  A    between atoms: O_34  and  C_35
REMARK   15  A    between atoms: C_38  and  O_46
REMARK   16  A    between atoms: O_46  and  C_47
REMARK   17  A    between atoms: C_49  and  O_51
REMARK   18  A    between atoms: O_51  and  C_52
REMARK   19  A    between atoms: C_52  and  C_53
REMARK   20  A    between atoms: C_52  and  C_54
REMARK   21  A    between atoms: C_52  and  C_55
REMARK                            x       y       z     vdW  Elec       q    Type
REMARK                         _______ _______ _______ _____ _____    ______ ____
ROOT
ATOM      1  C   UNL     1       5.704   0.431  25.809  0.00  0.00    +0.237 C 
ATOM      2  N   UNL     1       6.634  -0.554  25.518  0.00  0.00    -0.285 N 
ATOM      3  C   UNL     1       8.031  -0.695  25.937  0.00  0.00    +0.166 C 
ATOM      4  C   UNL     1       8.338  -2.198  25.797  0.00  0.00    +0.078 C 
ATOM      5  C   UNL     1       6.996  -2.875  25.484  0.00  0.00    +0.195 C 
ATOM      6  C   UNL     1       6.228  -1.752  24.790  0.00  0.00    +0.153 C 
ATOM      7  O   UNL     1       4.523   0.295  25.450  0.00  0.00    -0.274 OA
ENDROOT
BRANCH   3   8
ATOM      8  C   UNL     1       9.052   0.110  25.109  0.00  0.00    +0.234 C 
ATOM      9  N   UNL     1       8.506   0.775  24.020  0.00  0.00    -0.299 N 
ATOM     10  H   UNL     1       7.510   0.718  23.848  0.00  0.00    +0.150 HD
ATOM     11  O   UNL     1      10.241   0.191  25.398  0.00  0.00    -0.274 OA
BRANCH   9  12
ATOM     12  C   UNL     1       9.304   1.494  23.021  0.00  0.00    +0.119 C 
ATOM     13  C   UNL     1      10.040   0.736  21.914  0.00  0.00    +0.046 C 
ATOM     14  C   UNL     1       8.754   1.429  21.590  0.00  0.00    +0.046 C 
BRANCH  12  15
ATOM     15  C   UNL     1       9.938   2.825  23.437  0.00  0.00    +0.256 C 
ATOM     16  N   UNL     1       9.127   3.954  23.319  0.00  0.00    -0.188 N 
ATOM     17  H   UNL     1       8.116   3.812  23.224  0.00  0.00    +0.176 HD
ATOM     18  O   UNL     1      11.092   2.865  23.834  0.00  0.00    -0.272 OA
BRANCH  16  19
ATOM     19  S   UNL     1       9.521   5.464  23.866  0.00  0.00    +0.048 S 
ATOM     20  O   UNL     1      10.873   5.737  23.435  0.00  0.00    -0.155 OA
ATOM     21  O   UNL     1       9.177   5.475  25.277  0.00  0.00    -0.155 OA
BRANCH  19  22
ATOM     22  C   UNL     1       8.469   6.682  23.028  0.00  0.00    +0.151 C 
ATOM     23  C   UNL     1       7.051   6.781  23.512  0.00  0.00    +0.030 C 
ATOM     24  C   UNL     1       7.353   6.077  22.216  0.00  0.00    +0.030 C 
ENDBRANCH  19  22
ENDBRANCH  16  19
ENDBRANCH  12  15
BRANCH  13  25
ATOM     25  C   UNL     1      10.073  -0.727  21.902  0.00  0.00    -0.028 C 
ATOM     26  C   UNL     1       9.001  -1.506  21.729  0.00  0.00    +0.004 C 
ENDBRANCH  13  25
ENDBRANCH   9  12
ENDBRANCH   3   8
BRANCH   1  27
ATOM     27  C   UNL     1       6.104   1.708  26.606  0.00  0.00    +0.168 C 
BRANCH  27  29
ATOM     28  C   UNL     1       5.170   0.373  28.628  0.00  0.00    +0.013 C 
ATOM     29  C   UNL     1       5.889   1.648  28.164  0.00  0.00    -0.011 C 
ATOM     30  C   UNL     1       7.272   1.644  28.864  0.00  0.00    +0.013 C 
ATOM     31  C   UNL     1       5.081   2.852  28.686  0.00  0.00    +0.013 C 
ENDBRANCH  27  29
BRANCH  27  32
ATOM     32  N   UNL     1       5.279   2.804  26.053  0.00  0.00    -0.269 N 
ATOM     33  H   UNL     1       4.347   2.936  26.425  0.00  0.00    +0.153 HD
ATOM     34  C   UNL     1       5.579   3.490  24.918  0.00  0.00    +0.401 C 
ATOM     35  O   UNL     1       6.571   3.282  24.240  0.00  0.00    -0.226 OA
BRANCH  34  36
ATOM     36  O   UNL     1       4.655   4.459  24.692  0.00  0.00    -0.445 OA
BRANCH  36  37
ATOM     37  C   UNL     1       3.650   4.272  23.652  0.00  0.00    +0.107 C 
ATOM     38  C   UNL     1       4.178   3.439  22.475  0.00  0.00    +0.055 C 
ATOM     39  C   UNL     1       3.324   5.678  23.111  0.00  0.00    +0.055 C 
ATOM     40  C   UNL     1       2.366   3.675  24.239  0.00  0.00    +0.055 C 
ENDBRANCH  36  37
ENDBRANCH  34  36
ENDBRANCH  27  32
ENDBRANCH   1  27
BRANCH   5  41
ATOM     41  O   UNL     1       6.265  -3.232  26.670  0.00  0.00    -0.471 OA
BRANCH  41  42
ATOM     42  C   UNL     1       5.319  -4.225  26.499  0.00  0.00    +0.223 A 
ATOM     43  C   UNL     1       3.981  -3.907  26.798  0.00  0.00    +0.049 A 
ATOM     44  C   UNL     1       3.537  -2.599  27.107  0.00  0.00    +0.034 A 
ATOM     45  C   UNL     1       2.205  -2.359  27.440  0.00  0.00    +0.042 A 
ATOM     46 CL   UNL     1       1.689  -0.764  27.827  0.00  0.00    -0.084 Cl
ATOM     47  C   UNL     1       1.291  -3.404  27.472  0.00  0.00    +0.021 A 
ATOM     48  C   UNL     1       1.710  -4.696  27.153  0.00  0.00    +0.014 A 
ATOM     49  C   UNL     1       3.052  -4.974  26.807  0.00  0.00    +0.030 A 
ATOM     50  C   UNL     1       3.495  -6.278  26.491  0.00  0.00    +0.146 A 
ATOM     51  C   UNL     1       4.835  -6.447  26.167  0.00  0.00    +0.160 A 
ATOM     52  N   UNL     1       5.752  -5.459  26.166  0.00  0.00    -0.217 NA
BRANCH  50  53
ATOM     53  O   UNL     1       2.565  -7.283  26.535  0.00  0.00    -0.493 OA
ATOM     54  C   UNL     1       2.276  -7.954  25.314  0.00  0.00    +0.277 C 
ENDBRANCH  50  53
ENDBRANCH  41  42
ENDBRANCH   5  41
TORSDOF 14
ENDMDL
MODEL 3
REMARK VINA RESULT:      -6.8      3.388      9.233
REMARK  Name = 
REMARK  21 active torsions:
REMARK  status: ('A' for Active; 'I' for Inactive)
REMARK    1  A    between atoms: C_1  and  C_2
REMARK    2  A    between atoms: C_2  and  C_3
REMARK    3  A    between atoms: C_2  and  C_4
REMARK    4  A    between atoms: C_2  and  C_5
REMARK    5  A    between atoms: C_5  and  C_7
REMARK    6  A    between atoms: C_5  and  N_48
REMARK    7  A    between atoms: C_11  and  O_34
REMARK    8  A    between atoms: C_14  and  C_16
REMARK    9  A    between atoms: N_18  and  C_19
REMARK   10  A    between atoms: C_19  and  C_25
REMARK   11  A    between atoms: C_21  and  C_23
REMARK   12  A    between atoms: N_27  and  S_28
REMARK   13  A    between atoms: S_28  and  C_31
REMARK   14  A    between atoms: O_34  and  C_35
REMARK   15  A    between atoms: C_38  and  O_46
REMARK   16  A    between atoms: O_46  and  C_47
REMARK   17  A    between atoms: C_49  and  O_51
REMARK   18  A    between atoms: O_51  and  C_52
REMARK   19  A    between atoms: C_52  and  C_53
REMARK   20  A    between atoms: C_52  and  C_54
REMARK   21  A    between atoms: C_52  and  C_55
REMARK                            x       y       z     vdW  Elec       q    Type
REMARK                         _______ _______ _______ _____ _____    ______ ____
ROOT
ATOM      1  C   UNL     1       6.297  -0.933  24.970  0.00  0.00    +0.237 C 
ATOM      2  N   UNL     1       5.721  -0.234  26.017  0.00  0.00    -0.285 N 
ATOM      3  C   UNL     1       5.604  -0.576  27.438  0.00  0.00    +0.166 C 
ATOM      4  C   UNL     1       5.412   0.773  28.157  0.00  0.00    +0.078 C 
ATOM      5  C   UNL     1       5.634   1.855  27.090  0.00  0.00    +0.195 C 
ATOM      6  C   UNL     1       5.231   1.125  25.810  0.00  0.00    +0.153 C 
ATOM      7  O   UNL     1       6.399  -0.402  23.852  0.00  0.00    -0.274 OA
ENDROOT
BRANCH   3   8
ATOM      8  C   UNL     1       4.434  -1.512  27.797  0.00  0.00    +0.234 C 
ATOM      9  N   UNL     1       3.685  -1.934  26.707  0.00  0.00    -0.299 N 
ATOM     10  H   UNL     1       3.949  -1.637  25.776  0.00  0.00    +0.150 HD
ATOM     11  O   UNL     1       4.196  -1.887  28.941  0.00  0.00    -0.274 OA
BRANCH   9  12
ATOM     12  C   UNL     1       2.453  -2.722  26.821  0.00  0.00    +0.119 C 
ATOM     13  C   UNL     1       1.117  -2.043  27.134  0.00  0.00    +0.046 C 
ATOM     14  C   UNL     1       1.413  -2.452  25.725  0.00  0.00    +0.046 C 
BRANCH  12  15
ATOM     15  C   UNL     1       2.575  -4.176  27.287  0.00  0.00    +0.256 C 
ATOM     16  N   UNL     1       3.648  -4.899  26.768  0.00  0.00    -0.188 N 
ATOM     17  H   UNL     1       4.418  -4.374  26.338  0.00  0.00    +0.176 HD
ATOM     18  O   UNL     1       1.756  -4.649  28.060  0.00  0.00    -0.272 OA
BRANCH  16  19
ATOM     19  S   UNL     1       4.090  -6.417  27.252  0.00  0.00    +0.048 S 
ATOM     20  O   UNL     1       5.289  -6.766  26.523  0.00  0.00    -0.155 OA
ATOM     21  O   UNL     1       2.893  -7.231  27.141  0.00  0.00    -0.155 OA
BRANCH  19  22
ATOM     22  C   UNL     1       4.564  -6.359  29.002  0.00  0.00    +0.151 C 
ATOM     23  C   UNL     1       5.317  -5.138  29.446  0.00  0.00    +0.030 C 
ATOM     24  C   UNL     1       6.050  -6.437  29.240  0.00  0.00    +0.030 C 
ENDBRANCH  19  22
ENDBRANCH  16  19
ENDBRANCH  12  15
BRANCH  13  25
ATOM     25  C   UNL     1       1.058  -0.617  27.456  0.00  0.00    -0.028 C 
ATOM     26  C   UNL     1       1.160  -0.116  28.692  0.00  0.00    +0.004 C 
ENDBRANCH  13  25
ENDBRANCH   9  12
ENDBRANCH   3   8
BRANCH   1  27
ATOM     27  C   UNL     1       6.850  -2.375  25.170  0.00  0.00    +0.168 C 
BRANCH  27  29
ATOM     28  C   UNL     1       8.878  -1.322  26.403  0.00  0.00    +0.013 C 
ATOM     29  C   UNL     1       8.376  -2.488  25.538  0.00  0.00    -0.011 C 
ATOM     30  C   UNL     1       8.600  -3.774  26.373  0.00  0.00    +0.013 C 
ATOM     31  C   UNL     1       9.273  -2.556  24.286  0.00  0.00    +0.013 C 
ENDBRANCH  27  29
BRANCH  27  32
ATOM     32  N   UNL     1       6.615  -3.079  23.890  0.00  0.00    -0.269 N 
ATOM     33  H   UNL     1       7.309  -2.987  23.159  0.00  0.00    +0.153 HD
ATOM     34  C   UNL     1       5.429  -3.637  23.530  0.00  0.00    +0.401 C 
ATOM     35  O   UNL     1       4.432  -3.627  24.232  0.00  0.00    -0.226 OA
BRANCH  34  36
ATOM     36  O   UNL     1       5.538  -4.242  22.319  0.00  0.00    -0.445 OA
BRANCH  36  37
ATOM     37  C   UNL     1       6.101  -5.584  22.228  0.00  0.00    +0.107 C 
ATOM     38  C   UNL     1       7.567  -5.632  22.682  0.00  0.00    +0.055 C 
ATOM     39  C   UNL     1       6.068  -5.964  20.735  0.00  0.00    +0.055 C 
ATOM     40  C   UNL     1       5.235  -6.588  22.997  0.00  0.00    +0.055 C 
ENDBRANCH  36  37
ENDBRANCH  34  36
ENDBRANCH  27  32
ENDBRANCH   1  27
BRANCH   5  41
ATOM     41  O   UNL     1       7.016   2.230  26.959  0.00  0.00    -0.471 OA
BRANCH  41  42
ATOM     42  C   UNL     1       7.260   3.281  26.096  0.00  0.00    +0.223 A 
ATOM     43  C   UNL     1       8.312   3.134  25.173  0.00  0.00    +0.049 A 
ATOM     44  C   UNL     1       9.020   1.924  24.978  0.00  0.00    +0.034 A 
ATOM     45  C   UNL     1      10.084   1.858  24.080  0.00  0.00    +0.042 A 
ATOM     46 CL   UNL     1      10.941   0.381  23.870  0.00  0.00    -0.084 Cl
ATOM     47  C   UNL     1      10.465   2.982  23.360  0.00  0.00    +0.021 A 
ATOM     48  C   UNL     1       9.765   4.178  23.528  0.00  0.00    +0.014 A 
ATOM     49  C   UNL     1       8.679   4.279  24.426  0.00  0.00    +0.030 A 
ATOM     50  C   UNL     1       7.966   5.484  24.616  0.00  0.00    +0.146 A 
ATOM     51  C   UNL     1       6.916   5.481  25.525  0.00  0.00    +0.160 A 
ATOM     52  N   UNL     1       6.550   4.416  26.267  0.00  0.00    -0.217 NA
BRANCH  50  53
ATOM     53  O   UNL     1       8.373   6.573  23.890  0.00  0.00    -0.493 OA
ATOM     54  C   UNL     1       7.488   7.047  22.881  0.00  0.00    +0.277 C 
ENDBRANCH  50  53
ENDBRANCH  41  42
ENDBRANCH   5  41
TORSDOF 14
ENDMDL
MODEL 4
REMARK VINA RESULT:      -6.6      3.474      9.173
REMARK  Name = 
REMARK  21 active torsions:
REMARK  status: ('A' for Active; 'I' for Inactive)
REMARK    1  A    between atoms: C_1  and  C_2
REMARK    2  A    between atoms: C_2  and  C_3
REMARK    3  A    between atoms: C_2  and  C_4
REMARK    4  A    between atoms: C_2  and  C_5
REMARK    5  A    between atoms: C_5  and  C_7
REMARK    6  A    between atoms: C_5  and  N_48
REMARK    7  A    between atoms: C_11  and  O_34
REMARK    8  A    between atoms: C_14  and  C_16
REMARK    9  A    between atoms: N_18  and  C_19
REMARK   10  A    between atoms: C_19  and  C_25
REMARK   11  A    between atoms: C_21  and  C_23
REMARK   12  A    between atoms: N_27  and  S_28
REMARK   13  A    between atoms: S_28  and  C_31
REMARK   14  A    between atoms: O_34  and  C_35
REMARK   15  A    between atoms: C_38  and  O_46
REMARK   16  A    between atoms: O_46  and  C_47
REMARK   17  A    between atoms: C_49  and  O_51
REMARK   18  A    between atoms: O_51  and  C_52
REMARK   19  A    between atoms: C_52  and  C_53
REMARK   20  A    between atoms: C_52  and  C_54
REMARK   21  A    between atoms: C_52  and  C_55
REMARK                            x       y       z     vdW  Elec       q    Type
REMARK                         _______ _______ _______ _____ _____    ______ ____
ROOT
ATOM      1  C   UNL     1       6.076  -0.762  25.025  0.00  0.00    +0.237 C 
ATOM      2  N   UNL     1       5.577  -0.029  26.088  0.00  0.00    -0.285 N 
ATOM      3  C   UNL     1       5.520  -0.346  27.518  0.00  0.00    +0.166 C 
ATOM      4  C   UNL     1       5.410   1.020  28.224  0.00  0.00    +0.078 C 
ATOM      5  C   UNL     1       5.616   2.077  27.130  0.00  0.00    +0.195 C 
ATOM      6  C   UNL     1       5.125   1.344  25.883  0.00  0.00    +0.153 C 
ATOM      7  O   UNL     1       6.141  -0.252  23.895  0.00  0.00    -0.274 OA
ENDROOT
BRANCH   3   8
ATOM      8  C   UNL     1       4.337  -1.235  27.949  0.00  0.00    +0.234 C 
ATOM      9  N   UNL     1       3.462  -1.559  26.922  0.00  0.00    -0.299 N 
ATOM     10  H   UNL     1       3.650  -1.228  25.983  0.00  0.00    +0.150 HD
ATOM     11  O   UNL     1       4.191  -1.655  29.092  0.00  0.00    -0.274 OA
BRANCH   9  12
ATOM     12  C   UNL     1       2.202  -2.283  27.123  0.00  0.00    +0.119 C 
ATOM     13  C   UNL     1       0.866  -1.537  27.151  0.00  0.00    +0.046 C 
ATOM     14  C   UNL     1       1.258  -2.280  25.913  0.00  0.00    +0.046 C 
BRANCH  12  15
ATOM     15  C   UNL     1       2.246  -3.580  27.936  0.00  0.00    +0.256 C 
ATOM     16  N   UNL     1       3.246  -4.488  27.590  0.00  0.00    -0.188 N 
ATOM     17  H   UNL     1       4.030  -4.147  27.023  0.00  0.00    +0.176 HD
ATOM     18  O   UNL     1       1.431  -3.783  28.823  0.00  0.00    -0.272 OA
BRANCH  16  19
ATOM     19  S   UNL     1       3.606  -5.867  28.429  0.00  0.00    +0.048 S 
ATOM     20  O   UNL     1       2.435  -6.713  28.384  0.00  0.00    -0.155 OA
ATOM     21  O   UNL     1       4.151  -5.425  29.700  0.00  0.00    -0.155 OA
BRANCH  19  22
ATOM     22  C   UNL     1       4.911  -6.766  27.546  0.00  0.00    +0.151 C 
ATOM     23  C   UNL     1       5.593  -6.022  26.433  0.00  0.00    +0.030 C 
ATOM     24  C   UNL     1       4.576  -7.085  26.112  0.00  0.00    +0.030 C 
ENDBRANCH  19  22
ENDBRANCH  16  19
ENDBRANCH  12  15
BRANCH  13  25
ATOM     25  C   UNL     1       0.824  -0.075  27.112  0.00  0.00    -0.028 C 
ATOM     26  C   UNL     1       0.974   0.715  28.180  0.00  0.00    +0.004 C 
ENDBRANCH  13  25
ENDBRANCH   9  12
ENDBRANCH   3   8
BRANCH   1  27
ATOM     27  C   UNL     1       6.588  -2.220  25.220  0.00  0.00    +0.168 C 
BRANCH  27  29
ATOM     28  C   UNL     1       8.667  -1.245  26.432  0.00  0.00    +0.013 C 
ATOM     29  C   UNL     1       8.118  -2.379  25.554  0.00  0.00    -0.011 C 
ATOM     30  C   UNL     1       8.326  -3.687  26.357  0.00  0.00    +0.013 C 
ATOM     31  C   UNL     1       8.987  -2.443  24.282  0.00  0.00    +0.013 C 
ENDBRANCH  27  29
BRANCH  27  32
ATOM     32  N   UNL     1       6.302  -2.923  23.950  0.00  0.00    -0.269 N 
ATOM     33  H   UNL     1       6.932  -2.778  23.171  0.00  0.00    +0.153 HD
ATOM     34  C   UNL     1       5.129  -3.551  23.671  0.00  0.00    +0.401 C 
ATOM     35  O   UNL     1       4.189  -3.612  24.445  0.00  0.00    -0.226 OA
BRANCH  34  36
ATOM     36  O   UNL     1       5.185  -4.134  22.445  0.00  0.00    -0.445 OA
BRANCH  36  37
ATOM     37  C   UNL     1       5.785  -5.454  22.298  0.00  0.00    +0.107 C 
ATOM     38  C   UNL     1       7.128  -5.568  23.034  0.00  0.00    +0.055 C 
ATOM     39  C   UNL     1       6.068  -5.632  20.793  0.00  0.00    +0.055 C 
ATOM     40  C   UNL     1       4.804  -6.548  22.734  0.00  0.00    +0.055 C 
ENDBRANCH  36  37
ENDBRANCH  34  36
ENDBRANCH  27  32
ENDBRANCH   1  27
BRANCH   5  41
ATOM     41  O   UNL     1       7.002   2.401  26.925  0.00  0.00    -0.471 OA
BRANCH  41  42
ATOM     42  C   UNL     1       7.244   3.369  25.969  0.00  0.00    +0.223 A 
ATOM     43  C   UNL     1       8.310   3.151  25.078  0.00  0.00    +0.049 A 
ATOM     44  C   UNL     1       9.038   1.939  25.008  0.00  0.00    +0.034 A 
ATOM     45  C   UNL     1      10.115   1.804  24.134  0.00  0.00    +0.042 A 
ATOM     46 CL   UNL     1      10.996   0.328  24.076  0.00  0.00    -0.084 Cl
ATOM     47  C   UNL     1      10.491   2.861  23.315  0.00  0.00    +0.021 A 
ATOM     48  C   UNL     1       9.773   4.057  23.360  0.00  0.00    +0.014 A 
ATOM     49  C   UNL     1       8.672   4.226  24.231  0.00  0.00    +0.030 A 
ATOM     50  C   UNL     1       7.941   5.432  24.296  0.00  0.00    +0.146 A 
ATOM     51  C   UNL     1       6.878   5.500  25.188  0.00  0.00    +0.160 A 
ATOM     52  N   UNL     1       6.516   4.505  26.022  0.00  0.00    -0.217 NA
BRANCH  50  53
ATOM     53  O   UNL     1       8.342   6.454  23.475  0.00  0.00    -0.493 OA
ATOM     54  C   UNL     1       7.520   6.743  22.350  0.00  0.00    +0.277 C 
ENDBRANCH  50  53
ENDBRANCH  41  42
ENDBRANCH   5  41
TORSDOF 14
ENDMDL
MODEL 5
REMARK VINA RESULT:      -6.6      2.322      3.199
REMARK  Name = 
REMARK  21 active torsions:
REMARK  status: ('A' for Active; 'I' for Inactive)
REMARK    1  A    between atoms: C_1  and  C_2
REMARK    2  A    between atoms: C_2  and  C_3
REMARK    3  A    between atoms: C_2  and  C_4
REMARK    4  A    between atoms: C_2  and  C_5
REMARK    5  A    between atoms: C_5  and  C_7
REMARK    6  A    between atoms: C_5  and  N_48
REMARK    7  A    between atoms: C_11  and  O_34
REMARK    8  A    between atoms: C_14  and  C_16
REMARK    9  A    between atoms: N_18  and  C_19
REMARK   10  A    between atoms: C_19  and  C_25
REMARK   11  A    between atoms: C_21  and  C_23
REMARK   12  A    between atoms: N_27  and  S_28
REMARK   13  A    between atoms: S_28  and  C_31
REMARK   14  A    between atoms: O_34  and  C_35
REMARK   15  A    between atoms: C_38  and  O_46
REMARK   16  A    between atoms: O_46  and  C_47
REMARK   17  A    between atoms: C_49  and  O_51
REMARK   18  A    between atoms: O_51  and  C_52
REMARK   19  A    between atoms: C_52  and  C_53
REMARK   20  A    between atoms: C_52  and  C_54
REMARK   21  A    between atoms: C_52  and  C_55
REMARK                            x       y       z     vdW  Elec       q    Type
REMARK                         _______ _______ _______ _____ _____    ______ ____
ROOT
ATOM      1  C   UNL     1       8.813   0.523  25.169  0.00  0.00    +0.237 C 
ATOM      2  N   UNL     1       7.905  -0.314  25.796  0.00  0.00    -0.285 N 
ATOM      3  C   UNL     1       6.488  -0.561  25.513  0.00  0.00    +0.166 C 
ATOM      4  C   UNL     1       6.196  -1.945  26.125  0.00  0.00    +0.078 C 
ATOM      5  C   UNL     1       7.556  -2.508  26.561  0.00  0.00    +0.195 C 
ATOM      6  C   UNL     1       8.354  -1.234  26.836  0.00  0.00    +0.153 C 
ATOM      7  O   UNL     1      10.012   0.491  25.491  0.00  0.00    -0.274 OA
ENDROOT
BRANCH   3   8
ATOM      8  C   UNL     1       5.508   0.471  26.105  0.00  0.00    +0.234 C 
ATOM      9  N   UNL     1       6.121   1.565  26.699  0.00  0.00    -0.299 N 
ATOM     10  H   UNL     1       7.131   1.636  26.693  0.00  0.00    +0.150 HD
ATOM     11  O   UNL     1       4.288   0.362  26.032  0.00  0.00    -0.274 OA
BRANCH   9  12
ATOM     12  C   UNL     1       5.395   2.604  27.437  0.00  0.00    +0.119 C 
ATOM     13  C   UNL     1       5.468   2.675  28.964  0.00  0.00    +0.046 C 
ATOM     14  C   UNL     1       6.287   3.628  28.153  0.00  0.00    +0.046 C 
BRANCH  12  15
ATOM     15  C   UNL     1       4.108   3.155  26.816  0.00  0.00    +0.256 C 
ATOM     16  N   UNL     1       4.124   3.341  25.434  0.00  0.00    -0.188 N 
ATOM     17  H   UNL     1       4.859   2.871  24.895  0.00  0.00    +0.176 HD
ATOM     18  O   UNL     1       3.144   3.417  27.519  0.00  0.00    -0.272 OA
BRANCH  16  19
ATOM     19  S   UNL     1       2.810   3.752  24.519  0.00  0.00    +0.048 S 
ATOM     20  O   UNL     1       2.397   5.074  24.931  0.00  0.00    -0.155 OA
ATOM     21  O   UNL     1       1.896   2.628  24.613  0.00  0.00    -0.155 OA
BRANCH  19  22
ATOM     22  C   UNL     1       3.328   3.905  22.787  0.00  0.00    +0.151 C 
ATOM     23  C   UNL     1       4.706   3.404  22.459  0.00  0.00    +0.030 C 
ATOM     24  C   UNL     1       4.452   4.884  22.565  0.00  0.00    +0.030 C 
ENDBRANCH  19  22
ENDBRANCH  16  19
ENDBRANCH  12  15
BRANCH  13  25
ATOM     25  C   UNL     1       6.153   1.633  29.731  0.00  0.00    -0.028 C 
ATOM     26  C   UNL     1       7.465   1.623  29.988  0.00  0.00    +0.004 C 
ENDBRANCH  13  25
ENDBRANCH   9  12
ENDBRANCH   3   8
BRANCH   1  27
ATOM     27  C   UNL     1       8.366   1.497  24.039  0.00  0.00    +0.168 C 
BRANCH  27  29
ATOM     28  C   UNL     1       8.944  -0.363  22.322  0.00  0.00    +0.013 C 
ATOM     29  C   UNL     1       8.859   1.148  22.587  0.00  0.00    -0.011 C 
ATOM     30  C   UNL     1       7.845   1.711  21.560  0.00  0.00    +0.013 C 
ATOM     31  C   UNL     1      10.247   1.749  22.283  0.00  0.00    +0.013 C 
ENDBRANCH  27  29
BRANCH  27  32
ATOM     32  N   UNL     1       8.897   2.826  24.417  0.00  0.00    -0.269 N 
ATOM     33  H   UNL     1       9.890   2.911  24.592  0.00  0.00    +0.153 HD
ATOM     34  C   UNL     1       8.125   3.882  24.786  0.00  0.00    +0.401 C 
ATOM     35  O   UNL     1       6.907   3.850  24.834  0.00  0.00    -0.226 OA
BRANCH  34  36
ATOM     36  O   UNL     1       8.898   4.970  25.035  0.00  0.00    -0.445 OA
BRANCH  36  37
ATOM     37  C   UNL     1       8.593   6.240  24.385  0.00  0.00    +0.107 C 
ATOM     38  C   UNL     1       8.303   6.071  22.886  0.00  0.00    +0.055 C 
ATOM     39  C   UNL     1       9.861   7.105  24.515  0.00  0.00    +0.055 C 
ATOM     40  C   UNL     1       7.446   6.956  25.108  0.00  0.00    +0.055 C 
ENDBRANCH  36  37
ENDBRANCH  34  36
ENDBRANCH  27  32
ENDBRANCH   1  27
BRANCH   5  41
ATOM     41  O   UNL     1       8.226  -3.220  25.507  0.00  0.00    -0.471 OA
BRANCH  41  42
ATOM     42  C   UNL     1       7.400  -3.720  24.519  0.00  0.00    +0.223 A 
ATOM     43  C   UNL     1       6.513  -4.753  24.874  0.00  0.00    +0.049 A 
ATOM     44  C   UNL     1       6.313  -5.192  26.205  0.00  0.00    +0.034 A 
ATOM     45  C   UNL     1       5.453  -6.253  26.483  0.00  0.00    +0.042 A 
ATOM     46 CL   UNL     1       5.237  -6.780  28.106  0.00  0.00    -0.084 Cl
ATOM     47  C   UNL     1       4.777  -6.896  25.456  0.00  0.00    +0.021 A 
ATOM     48  C   UNL     1       4.949  -6.464  24.140  0.00  0.00    +0.014 A 
ATOM     49  C   UNL     1       5.810  -5.388  23.822  0.00  0.00    +0.030 A 
ATOM     50  C   UNL     1       6.004  -4.944  22.495  0.00  0.00    +0.146 A 
ATOM     51  C   UNL     1       6.874  -3.881  22.287  0.00  0.00    +0.160 A 
ATOM     52  N   UNL     1       7.574  -3.264  23.260  0.00  0.00    -0.217 NA
BRANCH  50  53
ATOM     53  O   UNL     1       5.321  -5.605  21.508  0.00  0.00    -0.493 OA
ATOM     54  C   UNL     1       6.067  -6.019  20.368  0.00  0.00    +0.277 C 
ENDBRANCH  50  53
ENDBRANCH  41  42
ENDBRANCH   5  41
TORSDOF 14
ENDMDL
MODEL 6
REMARK VINA RESULT:      -6.5      3.648      9.419
REMARK  Name = 
REMARK  21 active torsions:
REMARK  status: ('A' for Active; 'I' for Inactive)
REMARK    1  A    between atoms: C_1  and  C_2
REMARK    2  A    between atoms: C_2  and  C_3
REMARK    3  A    between atoms: C_2  and  C_4
REMARK    4  A    between atoms: C_2  and  C_5
REMARK    5  A    between atoms: C_5  and  C_7
REMARK    6  A    between atoms: C_5  and  N_48
REMARK    7  A    between atoms: C_11  and  O_34
REMARK    8  A    between atoms: C_14  and  C_16
REMARK    9  A    between atoms: N_18  and  C_19
REMARK   10  A    between atoms: C_19  and  C_25
REMARK   11  A    between atoms: C_21  and  C_23
REMARK   12  A    between atoms: N_27  and  S_28
REMARK   13  A    between atoms: S_28  and  C_31
REMARK   14  A    between atoms: O_34  and  C_35
REMARK   15  A    between atoms: C_38  and  O_46
REMARK   16  A    between atoms: O_46  and  C_47
REMARK   17  A    between atoms: C_49  and  O_51
REMARK   18  A    between atoms: O_51  and  C_52
REMARK   19  A    between atoms: C_52  and  C_53
REMARK   20  A    between atoms: C_52  and  C_54
REMARK   21  A    between atoms: C_52  and  C_55
REMARK                            x       y       z     vdW  Elec       q    Type
REMARK                         _______ _______ _______ _____ _____    ______ ____
ROOT
ATOM      1  C   UNL     1       5.658  -1.902  25.047  0.00  0.00    +0.237 C 
ATOM      2  N   UNL     1       5.412  -0.928  26.000  0.00  0.00    -0.285 N 
ATOM      3  C   UNL     1       5.357  -1.020  27.462  0.00  0.00    +0.166 C 
ATOM      4  C   UNL     1       5.624   0.413  27.961  0.00  0.00    +0.078 C 
ATOM      5  C   UNL     1       6.022   1.224  26.720  0.00  0.00    +0.195 C 
ATOM      6  C   UNL     1       5.299   0.472  25.604  0.00  0.00    +0.153 C 
ATOM      7  O   UNL     1       5.784  -1.585  23.853  0.00  0.00    -0.274 OA
ENDROOT
BRANCH   3   8
ATOM      8  C   UNL     1       4.018  -1.518  28.041  0.00  0.00    +0.234 C 
ATOM      9  N   UNL     1       2.919  -1.270  27.231  0.00  0.00    -0.299 N 
ATOM     10  H   UNL     1       3.050  -0.817  26.335  0.00  0.00    +0.150 HD
ATOM     11  O   UNL     1       3.926  -2.114  29.109  0.00  0.00    -0.274 OA
BRANCH   9  12
ATOM     12  C   UNL     1       1.534  -1.537  27.634  0.00  0.00    +0.119 C 
ATOM     13  C   UNL     1       0.526  -0.394  27.780  0.00  0.00    +0.046 C 
ATOM     14  C   UNL     1       0.482  -1.251  26.554  0.00  0.00    +0.046 C 
BRANCH  12  15
ATOM     15  C   UNL     1       1.271  -2.759  28.519  0.00  0.00    +0.256 C 
ATOM     16  N   UNL     1       1.796  -3.969  28.067  0.00  0.00    -0.188 N 
ATOM     17  H   UNL     1       2.524  -3.937  27.345  0.00  0.00    +0.176 HD
ATOM     18  O   UNL     1       0.624  -2.650  29.550  0.00  0.00    -0.272 OA
BRANCH  16  19
ATOM     19  S   UNL     1       1.798  -5.382  28.926  0.00  0.00    +0.048 S 
ATOM     20  O   UNL     1       0.489  -5.976  28.776  0.00  0.00    -0.155 OA
ATOM     21  O   UNL     1       2.310  -5.043  30.242  0.00  0.00    -0.155 OA
BRANCH  19  22
ATOM     22  C   UNL     1       2.966  -6.535  28.154  0.00  0.00    +0.151 C 
ATOM     23  C   UNL     1       4.182  -6.888  28.962  0.00  0.00    +0.030 C 
ATOM     24  C   UNL     1       4.300  -5.923  27.813  0.00  0.00    +0.030 C 
ENDBRANCH  19  22
ENDBRANCH  16  19
ENDBRANCH  12  15
BRANCH  13  25
ATOM     25  C   UNL     1       0.951   1.000  27.649  0.00  0.00    -0.028 C 
ATOM     26  C   UNL     1       1.502   1.718  28.634  0.00  0.00    +0.004 C 
ENDBRANCH  13  25
ENDBRANCH   9  12
ENDBRANCH   3   8
BRANCH   1  27
ATOM     27  C   UNL     1       5.808  -3.400  25.445  0.00  0.00    +0.168 C 
BRANCH  27  29
ATOM     28  C   UNL     1       7.470  -5.185  26.336  0.00  0.00    +0.013 C 
ATOM     29  C   UNL     1       7.266  -3.988  25.395  0.00  0.00    -0.011 C 
ATOM     30  C   UNL     1       7.551  -4.510  23.964  0.00  0.00    +0.013 C 
ATOM     31  C   UNL     1       8.332  -2.932  25.751  0.00  0.00    +0.013 C 
ENDBRANCH  27  29
BRANCH  27  32
ATOM     32  N   UNL     1       4.955  -4.157  24.500  0.00  0.00    -0.269 N 
ATOM     33  H   UNL     1       5.383  -4.526  23.661  0.00  0.00    +0.153 HD
ATOM     34  C   UNL     1       3.598  -4.184  24.549  0.00  0.00    +0.401 C 
ATOM     35  O   UNL     1       2.935  -3.596  25.387  0.00  0.00    -0.226 OA
BRANCH  34  36
ATOM     36  O   UNL     1       3.105  -4.994  23.576  0.00  0.00    -0.445 OA
BRANCH  36  37
ATOM     37  C   UNL     1       2.479  -6.261  23.937  0.00  0.00    +0.107 C 
ATOM     38  C   UNL     1       3.494  -7.277  24.481  0.00  0.00    +0.055 C 
ATOM     39  C   UNL     1       1.899  -6.841  22.633  0.00  0.00    +0.055 C 
ATOM     40  C   UNL     1       1.322  -6.034  24.917  0.00  0.00    +0.055 C 
ENDBRANCH  36  37
ENDBRANCH  34  36
ENDBRANCH  27  32
ENDBRANCH   1  27
BRANCH   5  41
ATOM     41  O   UNL     1       7.432   1.160  26.443  0.00  0.00    -0.471 OA
BRANCH  41  42
ATOM     42  C   UNL     1       7.914   2.158  25.618  0.00  0.00    +0.223 A 
ATOM     43  C   UNL     1       8.602   1.764  24.456  0.00  0.00    +0.049 A 
ATOM     44  C   UNL     1       8.688   0.423  24.012  0.00  0.00    +0.034 A 
ATOM     45  C   UNL     1       9.425   0.094  22.875  0.00  0.00    +0.042 A 
ATOM     46 CL   UNL     1       9.528  -1.544  22.361  0.00  0.00    -0.084 Cl
ATOM     47  C   UNL     1      10.088   1.082  22.160  0.00  0.00    +0.021 A 
ATOM     48  C   UNL     1      10.000   2.411  22.575  0.00  0.00    +0.014 A 
ATOM     49  C   UNL     1       9.257   2.780  23.719  0.00  0.00    +0.030 A 
ATOM     50  C   UNL     1       9.165   4.119  24.160  0.00  0.00    +0.146 A 
ATOM     51  C   UNL     1       8.413   4.379  25.299  0.00  0.00    +0.160 A 
ATOM     52  N   UNL     1       7.792   3.436  26.035  0.00  0.00    -0.217 NA
BRANCH  50  53
ATOM     53  O   UNL     1       9.835   5.066  23.429  0.00  0.00    -0.493 OA
ATOM     54  C   UNL     1       9.321   6.393  23.459  0.00  0.00    +0.277 C 
ENDBRANCH  50  53
ENDBRANCH  41  42
ENDBRANCH   5  41
TORSDOF 14
ENDMDL
MODEL 7
REMARK VINA RESULT:      -6.4      1.896      3.443
REMARK  Name = 
REMARK  21 active torsions:
REMARK  status: ('A' for Active; 'I' for Inactive)
REMARK    1  A    between atoms: C_1  and  C_2
REMARK    2  A    between atoms: C_2  and  C_3
REMARK    3  A    between atoms: C_2  and  C_4
REMARK    4  A    between atoms: C_2  and  C_5
REMARK    5  A    between atoms: C_5  and  C_7
REMARK    6  A    between atoms: C_5  and  N_48
REMARK    7  A    between atoms: C_11  and  O_34
REMARK    8  A    between atoms: C_14  and  C_16
REMARK    9  A    between atoms: N_18  and  C_19
REMARK   10  A    between atoms: C_19  and  C_25
REMARK   11  A    between atoms: C_21  and  C_23
REMARK   12  A    between atoms: N_27  and  S_28
REMARK   13  A    between atoms: S_28  and  C_31
REMARK   14  A    between atoms: O_34  and  C_35
REMARK   15  A    between atoms: C_38  and  O_46
REMARK   16  A    between atoms: O_46  and  C_47
REMARK   17  A    between atoms: C_49  and  O_51
REMARK   18  A    between atoms: O_51  and  C_52
REMARK   19  A    between atoms: C_52  and  C_53
REMARK   20  A    between atoms: C_52  and  C_54
REMARK   21  A    between atoms: C_52  and  C_55
REMARK                            x       y       z     vdW  Elec       q    Type
REMARK                         _______ _______ _______ _____ _____    ______ ____
ROOT
ATOM      1  C   UNL     1       9.198   0.545  24.855  0.00  0.00    +0.237 C 
ATOM      2  N   UNL     1       8.100   0.107  25.576  0.00  0.00    -0.285 N 
ATOM      3  C   UNL     1       6.680   0.063  25.214  0.00  0.00    +0.166 C 
ATOM      4  C   UNL     1       6.068  -1.010  26.135  0.00  0.00    +0.078 C 
ATOM      5  C   UNL     1       7.252  -1.673  26.854  0.00  0.00    +0.195 C 
ATOM      6  C   UNL     1       8.286  -0.549  26.867  0.00  0.00    +0.153 C 
ATOM      7  O   UNL     1      10.343   0.379  25.305  0.00  0.00    -0.274 OA
ENDROOT
BRANCH   3   8
ATOM      8  C   UNL     1       5.912   1.386  25.397  0.00  0.00    +0.234 C 
ATOM      9  N   UNL     1       5.070   1.709  24.342  0.00  0.00    -0.299 N 
ATOM     10  H   UNL     1       4.992   1.076  23.554  0.00  0.00    +0.150 HD
ATOM     11  O   UNL     1       6.003   2.086  26.401  0.00  0.00    -0.274 OA
BRANCH   9  12
ATOM     12  C   UNL     1       4.342   2.978  24.239  0.00  0.00    +0.119 C 
ATOM     13  C   UNL     1       5.038   4.241  23.727  0.00  0.00    +0.046 C 
ATOM     14  C   UNL     1       4.132   3.486  22.806  0.00  0.00    +0.046 C 
BRANCH  12  15
ATOM     15  C   UNL     1       3.183   3.217  25.212  0.00  0.00    +0.256 C 
ATOM     16  N   UNL     1       3.417   4.141  26.230  0.00  0.00    -0.188 N 
ATOM     17  H   UNL     1       4.210   4.782  26.124  0.00  0.00    +0.176 HD
ATOM     18  O   UNL     1       2.131   2.608  25.084  0.00  0.00    -0.272 OA
BRANCH  16  19
ATOM     19  S   UNL     1       2.273   4.695  27.287  0.00  0.00    +0.048 S 
ATOM     20  O   UNL     1       1.038   4.834  26.548  0.00  0.00    -0.155 OA
ATOM     21  O   UNL     1       2.871   5.840  27.951  0.00  0.00    -0.155 OA
BRANCH  19  22
ATOM     22  C   UNL     1       1.968   3.421  28.542  0.00  0.00    +0.151 C 
ATOM     23  C   UNL     1       0.619   2.762  28.505  0.00  0.00    +0.030 C 
ATOM     24  C   UNL     1       0.919   3.796  29.557  0.00  0.00    +0.030 C 
ENDBRANCH  19  22
ENDBRANCH  16  19
ENDBRANCH  12  15
BRANCH  13  25
ATOM     25  C   UNL     1       6.476   4.245  23.453  0.00  0.00    -0.028 C 
ATOM     26  C   UNL     1       7.013   4.141  22.233  0.00  0.00    +0.004 C 
ENDBRANCH  13  25
ENDBRANCH   9  12
ENDBRANCH   3   8
BRANCH   1  27
ATOM     27  C   UNL     1       9.030   1.226  23.464  0.00  0.00    +0.168 C 
BRANCH  27  29
ATOM     28  C   UNL     1       7.764  -0.736  22.329  0.00  0.00    +0.013 C 
ATOM     29  C   UNL     1       8.928   0.259  22.227  0.00  0.00    -0.011 C 
ATOM     30  C   UNL     1       8.670   1.098  20.950  0.00  0.00    +0.013 C 
ATOM     31  C   UNL     1      10.220  -0.559  22.020  0.00  0.00    +0.013 C 
ENDBRANCH  27  29
BRANCH  27  32
ATOM     32  N   UNL     1      10.215   2.095  23.294  0.00  0.00    -0.269 N 
ATOM     33  H   UNL     1      11.048   1.693  22.883  0.00  0.00    +0.153 HD
ATOM     34  C   UNL     1      10.355   3.319  23.869  0.00  0.00    +0.401 C 
ATOM     35  O   UNL     1       9.511   3.837  24.580  0.00  0.00    -0.226 OA
BRANCH  34  36
ATOM     36  O   UNL     1      11.531   3.887  23.495  0.00  0.00    -0.445 OA
BRANCH  36  37
ATOM     37  C   UNL     1      11.631   5.337  23.380  0.00  0.00    +0.107 C 
ATOM     38  C   UNL     1      10.295   5.982  22.984  0.00  0.00    +0.055 C 
ATOM     39  C   UNL     1      12.630   5.610  22.239  0.00  0.00    +0.055 C 
ATOM     40  C   UNL     1      12.195   5.945  24.669  0.00  0.00    +0.055 C 
ENDBRANCH  36  37
ENDBRANCH  34  36
ENDBRANCH  27  32
ENDBRANCH   1  27
BRANCH   5  41
ATOM     41  O   UNL     1       7.811  -2.768  26.108  0.00  0.00    -0.471 OA
BRANCH  41  42
ATOM     42  C   UNL     1       7.148  -3.973  26.247  0.00  0.00    +0.223 A 
ATOM     43  C   UNL     1       6.501  -4.493  25.112  0.00  0.00    +0.049 A 
ATOM     44  C   UNL     1       6.624  -3.938  23.816  0.00  0.00    +0.034 A 
ATOM     45  C   UNL     1       5.918  -4.475  22.740  0.00  0.00    +0.042 A 
ATOM     46 CL   UNL     1       6.071  -3.775  21.176  0.00  0.00    -0.084 Cl
ATOM     47  C   UNL     1       5.082  -5.567  22.926  0.00  0.00    +0.021 A 
ATOM     48  C   UNL     1       4.963  -6.138  24.194  0.00  0.00    +0.014 A 
ATOM     49  C   UNL     1       5.668  -5.621  25.305  0.00  0.00    +0.030 A 
ATOM     50  C   UNL     1       5.552  -6.179  26.598  0.00  0.00    +0.146 A 
ATOM     51  C   UNL     1       6.283  -5.597  27.625  0.00  0.00    +0.160 A 
ATOM     52  N   UNL     1       7.071  -4.512  27.482  0.00  0.00    -0.217 NA
BRANCH  50  53
ATOM     53  O   UNL     1       4.715  -7.256  26.742  0.00  0.00    -0.493 OA
ATOM     54  C   UNL     1       3.460  -7.023  27.371  0.00  0.00    +0.277 C 
ENDBRANCH  50  53
ENDBRANCH  41  42
ENDBRANCH   5  41
TORSDOF 14
ENDMDL
MODEL 8
REMARK VINA RESULT:      -6.4      3.542      9.871
REMARK  Name = 
REMARK  21 active torsions:
REMARK  status: ('A' for Active; 'I' for Inactive)
REMARK    1  A    between atoms: C_1  and  C_2
REMARK    2  A    between atoms: C_2  and  C_3
REMARK    3  A    between atoms: C_2  and  C_4
REMARK    4  A    between atoms: C_2  and  C_5
REMARK    5  A    between atoms: C_5  and  C_7
REMARK    6  A    between atoms: C_5  and  N_48
REMARK    7  A    between atoms: C_11  and  O_34
REMARK    8  A    between atoms: C_14  and  C_16
REMARK    9  A    between atoms: N_18  and  C_19
REMARK   10  A    between atoms: C_19  and  C_25
REMARK   11  A    between atoms: C_21  and  C_23
REMARK   12  A    between atoms: N_27  and  S_28
REMARK   13  A    between atoms: S_28  and  C_31
REMARK   14  A    between atoms: O_34  and  C_35
REMARK   15  A    between atoms: C_38  and  O_46
REMARK   16  A    between atoms: O_46  and  C_47
REMARK   17  A    between atoms: C_49  and  O_51
REMARK   18  A    between atoms: O_51  and  C_52
REMARK   19  A    between atoms: C_52  and  C_53
REMARK   20  A    between atoms: C_52  and  C_54
REMARK   21  A    between atoms: C_52  and  C_55
REMARK                            x       y       z     vdW  Elec       q    Type
REMARK                         _______ _______ _______ _____ _____    ______ ____
ROOT
ATOM      1  C   UNL     1       5.603  -0.066  27.315  0.00  0.00    +0.237 C 
ATOM      2  N   UNL     1       6.266   0.485  26.232  0.00  0.00    -0.285 N 
ATOM      3  C   UNL     1       5.973   0.407  24.798  0.00  0.00    +0.166 C 
ATOM      4  C   UNL     1       6.669   1.635  24.181  0.00  0.00    +0.078 C 
ATOM      5  C   UNL     1       7.168   2.475  25.366  0.00  0.00    +0.195 C 
ATOM      6  C   UNL     1       7.373   1.412  26.444  0.00  0.00    +0.153 C 
ATOM      7  O   UNL     1       5.950   0.229  28.471  0.00  0.00    -0.274 OA
ENDROOT
BRANCH   3   8
ATOM      8  C   UNL     1       6.475  -0.868  24.091  0.00  0.00    +0.234 C 
ATOM      9  N   UNL     1       7.856  -0.963  24.000  0.00  0.00    -0.299 N 
ATOM     10  H   UNL     1       8.435  -0.236  24.403  0.00  0.00    +0.150 HD
ATOM     11  O   UNL     1       5.728  -1.746  23.673  0.00  0.00    -0.274 OA
BRANCH   9  12
ATOM     12  C   UNL     1       8.553  -2.020  23.258  0.00  0.00    +0.119 C 
ATOM     13  C   UNL     1       9.339  -1.696  21.986  0.00  0.00    +0.046 C 
ATOM     14  C   UNL     1      10.084  -1.911  23.266  0.00  0.00    +0.046 C 
BRANCH  12  15
ATOM     15  C   UNL     1       7.981  -3.439  23.332  0.00  0.00    +0.256 C 
ATOM     16  N   UNL     1       7.167  -3.829  22.269  0.00  0.00    -0.188 N 
ATOM     17  H   UNL     1       7.208  -3.277  21.405  0.00  0.00    +0.176 HD
ATOM     18  O   UNL     1       8.233  -4.160  24.286  0.00  0.00    -0.272 OA
BRANCH  16  19
ATOM     19  S   UNL     1       6.582  -5.357  22.034  0.00  0.00    +0.048 S 
ATOM     20  O   UNL     1       7.680  -6.273  22.243  0.00  0.00    -0.155 OA
ATOM     21  O   UNL     1       5.881  -5.320  20.763  0.00  0.00    -0.155 OA
BRANCH  19  22
ATOM     22  C   UNL     1       5.366  -5.724  23.330  0.00  0.00    +0.151 C 
ATOM     23  C   UNL     1       4.016  -6.185  22.862  0.00  0.00    +0.030 C 
ATOM     24  C   UNL     1       4.195  -4.776  23.361  0.00  0.00    +0.030 C 
ENDBRANCH  19  22
ENDBRANCH  16  19
ENDBRANCH  12  15
BRANCH  13  25
ATOM     25  C   UNL     1       9.307  -0.352  21.407  0.00  0.00    -0.028 C 
ATOM     26  C   UNL     1       9.912   0.715  21.940  0.00  0.00    +0.004 C 
ENDBRANCH  13  25
ENDBRANCH   9  12
ENDBRANCH   3   8
BRANCH   1  27
ATOM     27  C   UNL     1       4.402  -1.038  27.118  0.00  0.00    +0.168 C 
BRANCH  27  29
ATOM     28  C   UNL     1       2.826  -0.474  29.103  0.00  0.00    +0.013 C 
ATOM     29  C   UNL     1       2.995  -0.504  27.577  0.00  0.00    -0.011 C 
ATOM     30  C   UNL     1       2.828   0.959  27.094  0.00  0.00    +0.013 C 
ATOM     31  C   UNL     1       1.838  -1.344  26.999  0.00  0.00    +0.013 C 
ENDBRANCH  27  29
BRANCH  27  32
ATOM     32  N   UNL     1       4.731  -2.251  27.899  0.00  0.00    -0.269 N 
ATOM     33  H   UNL     1       4.694  -2.193  28.909  0.00  0.00    +0.153 HD
ATOM     34  C   UNL     1       5.314  -3.362  27.378  0.00  0.00    +0.401 C 
ATOM     35  O   UNL     1       5.618  -3.483  26.203  0.00  0.00    -0.226 OA
BRANCH  34  36
ATOM     36  O   UNL     1       5.452  -4.318  28.334  0.00  0.00    -0.445 OA
BRANCH  36  37
ATOM     37  C   UNL     1       4.555  -5.467  28.343  0.00  0.00    +0.107 C 
ATOM     38  C   UNL     1       4.489  -6.143  29.720  0.00  0.00    +0.055 C 
ATOM     39  C   UNL     1       5.155  -6.488  27.357  0.00  0.00    +0.055 C 
ATOM     40  C   UNL     1       3.163  -5.073  27.837  0.00  0.00    +0.055 C 
ENDBRANCH  36  37
ENDBRANCH  34  36
ENDBRANCH  27  32
ENDBRANCH   1  27
BRANCH   5  41
ATOM     41  O   UNL     1       6.177   3.397  25.850  0.00  0.00    -0.471 OA
BRANCH  41  42
ATOM     42  C   UNL     1       5.450   4.045  24.869  0.00  0.00    +0.223 A 
ATOM     43  C   UNL     1       6.126   4.990  24.076  0.00  0.00    +0.049 A 
ATOM     44  C   UNL     1       7.526   5.195  24.122  0.00  0.00    +0.034 A 
ATOM     45  C   UNL     1       8.128   6.180  23.342  0.00  0.00    +0.042 A 
ATOM     46 CL   UNL     1       9.829   6.423  23.426  0.00  0.00    -0.084 Cl
ATOM     47  C   UNL     1       7.360   6.978  22.505  0.00  0.00    +0.021 A 
ATOM     48  C   UNL     1       5.981   6.777  22.434  0.00  0.00    +0.014 A 
ATOM     49  C   UNL     1       5.339   5.784  23.208  0.00  0.00    +0.030 A 
ATOM     50  C   UNL     1       3.943   5.573  23.157  0.00  0.00    +0.146 A 
ATOM     51  C   UNL     1       3.407   4.574  23.959  0.00  0.00    +0.160 A 
ATOM     52  N   UNL     1       4.122   3.812  24.810  0.00  0.00    -0.217 NA
BRANCH  50  53
ATOM     53  O   UNL     1       3.218   6.382  22.320  0.00  0.00    -0.493 OA
ATOM     54  C   UNL     1       2.104   5.796  21.656  0.00  0.00    +0.277 C 
ENDBRANCH  50  53
ENDBRANCH  41  42
ENDBRANCH   5  41
TORSDOF 14
ENDMDL
MODEL 9
REMARK VINA RESULT:      -6.4      3.331      9.997
REMARK  Name = 
REMARK  21 active torsions:
REMARK  status: ('A' for Active; 'I' for Inactive)
REMARK    1  A    between atoms: C_1  and  C_2
REMARK    2  A    between atoms: C_2  and  C_3
REMARK    3  A    between atoms: C_2  and  C_4
REMARK    4  A    between atoms: C_2  and  C_5
REMARK    5  A    between atoms: C_5  and  C_7
REMARK    6  A    between atoms: C_5  and  N_48
REMARK    7  A    between atoms: C_11  and  O_34
REMARK    8  A    between atoms: C_14  and  C_16
REMARK    9  A    between atoms: N_18  and  C_19
REMARK   10  A    between atoms: C_19  and  C_25
REMARK   11  A    between atoms: C_21  and  C_23
REMARK   12  A    between atoms: N_27  and  S_28
REMARK   13  A    between atoms: S_28  and  C_31
REMARK   14  A    between atoms: O_34  and  C_35
REMARK   15  A    between atoms: C_38  and  O_46
REMARK   16  A    between atoms: O_46  and  C_47
REMARK   17  A    between atoms: C_49  and  O_51
REMARK   18  A    between atoms: O_51  and  C_52
REMARK   19  A    between atoms: C_52  and  C_53
REMARK   20  A    between atoms: C_52  and  C_54
REMARK   21  A    between atoms: C_52  and  C_55
REMARK                            x       y       z     vdW  Elec       q    Type
REMARK                         _______ _______ _______ _____ _____    ______ ____
ROOT
ATOM      1  C   UNL     1       6.230   1.210  26.185  0.00  0.00    +0.237 C 
ATOM      2  N   UNL     1       6.985   0.558  25.225  0.00  0.00    -0.285 N 
ATOM      3  C   UNL     1       6.568  -0.251  24.075  0.00  0.00    +0.166 C 
ATOM      4  C   UNL     1       7.763  -0.208  23.104  0.00  0.00    +0.078 C 
ATOM      5  C   UNL     1       8.746   0.817  23.690  0.00  0.00    +0.195 C 
ATOM      6  C   UNL     1       8.433   0.738  25.183  0.00  0.00    +0.153 C 
ATOM      7  O   UNL     1       6.785   1.952  27.011  0.00  0.00    -0.274 OA
ENDROOT
BRANCH   3   8
ATOM      8  C   UNL     1       6.225  -1.719  24.392  0.00  0.00    +0.234 C 
ATOM      9  N   UNL     1       7.331  -2.544  24.543  0.00  0.00    -0.299 N 
ATOM     10  H   UNL     1       8.261  -2.152  24.463  0.00  0.00    +0.150 HD
ATOM     11  O   UNL     1       5.077  -2.128  24.535  0.00  0.00    -0.274 OA
BRANCH   9  12
ATOM     12  C   UNL     1       7.245  -3.998  24.719  0.00  0.00    +0.119 C 
ATOM     13  C   UNL     1       7.219  -4.933  23.507  0.00  0.00    +0.046 C 
ATOM     14  C   UNL     1       8.492  -4.775  24.276  0.00  0.00    +0.046 C 
BRANCH  12  15
ATOM     15  C   UNL     1       6.534  -4.525  25.969  0.00  0.00    +0.256 C 
ATOM     16  N   UNL     1       5.371  -5.263  25.749  0.00  0.00    -0.188 N 
ATOM     17  H   UNL     1       5.205  -5.628  24.805  0.00  0.00    +0.176 HD
ATOM     18  O   UNL     1       6.979  -4.287  27.081  0.00  0.00    -0.272 OA
BRANCH  16  19
ATOM     19  S   UNL     1       4.532  -6.079  26.916  0.00  0.00    +0.048 S 
ATOM     20  O   UNL     1       5.494  -6.836  27.685  0.00  0.00    -0.155 OA
ATOM     21  O   UNL     1       3.445  -6.750  26.225  0.00  0.00    -0.155 OA
BRANCH  19  22
ATOM     22  C   UNL     1       3.804  -4.877  28.063  0.00  0.00    +0.151 C 
ATOM     23  C   UNL     1       4.690  -4.403  29.180  0.00  0.00    +0.030 C 
ATOM     24  C   UNL     1       3.601  -5.405  29.460  0.00  0.00    +0.030 C 
ENDBRANCH  19  22
ENDBRANCH  16  19
ENDBRANCH  12  15
BRANCH  13  25
ATOM     25  C   UNL     1       7.146  -4.396  22.148  0.00  0.00    -0.028 C 
ATOM     26  C   UNL     1       6.007  -4.115  21.506  0.00  0.00    +0.004 C 
ENDBRANCH  13  25
ENDBRANCH   9  12
ENDBRANCH   3   8
BRANCH   1  27
ATOM     27  C   UNL     1       4.682   1.055  26.236  0.00  0.00    +0.168 C 
BRANCH  27  29
ATOM     28  C   UNL     1       4.144   3.324  27.380  0.00  0.00    +0.013 C 
ATOM     29  C   UNL     1       3.850   2.390  26.196  0.00  0.00    -0.011 C 
ATOM     30  C   UNL     1       4.224   3.181  24.918  0.00  0.00    +0.013 C 
ATOM     31  C   UNL     1       2.330   2.128  26.180  0.00  0.00    +0.013 C 
ENDBRANCH  27  29
BRANCH  27  32
ATOM     32  N   UNL     1       4.388   0.348  27.503  0.00  0.00    -0.269 N 
ATOM     33  H   UNL     1       4.918   0.603  28.326  0.00  0.00    +0.153 HD
ATOM     34  C   UNL     1       3.639  -0.783  27.591  0.00  0.00    +0.401 C 
ATOM     35  O   UNL     1       3.117  -1.330  26.634  0.00  0.00    -0.226 OA
BRANCH  34  36
ATOM     36  O   UNL     1       3.518  -1.171  28.888  0.00  0.00    -0.445 OA
BRANCH  36  37
ATOM     37  C   UNL     1       2.246  -0.997  29.579  0.00  0.00    +0.107 C 
ATOM     38  C   UNL     1       1.092  -0.704  28.610  0.00  0.00    +0.055 C 
ATOM     39  C   UNL     1       2.414   0.238  30.484  0.00  0.00    +0.055 C 
ATOM     40  C   UNL     1       1.945  -2.208  30.470  0.00  0.00    +0.055 C 
ENDBRANCH  36  37
ENDBRANCH  34  36
ENDBRANCH  27  32
ENDBRANCH   1  27
BRANCH   5  41
ATOM     41  O   UNL     1       8.469   2.160  23.259  0.00  0.00    -0.471 OA
BRANCH  41  42
ATOM     42  C   UNL     1       9.494   3.065  23.461  0.00  0.00    +0.223 A 
ATOM     43  C   UNL     1       9.143   4.366  23.864  0.00  0.00    +0.049 A 
ATOM     44  C   UNL     1       7.828   4.748  24.220  0.00  0.00    +0.034 A 
ATOM     45  C   UNL     1       7.538   6.067  24.566  0.00  0.00    +0.042 A 
ATOM     46 CL   UNL     1       5.930   6.514  24.982  0.00  0.00    -0.084 Cl
ATOM     47  C   UNL     1       8.540   7.028  24.566  0.00  0.00    +0.021 A 
ATOM     48  C   UNL     1       9.845   6.664  24.234  0.00  0.00    +0.014 A 
ATOM     49  C   UNL     1      10.175   5.335  23.883  0.00  0.00    +0.030 A 
ATOM     50  C   UNL     1      11.489   4.951  23.534  0.00  0.00    +0.146 A 
ATOM     51  C   UNL     1      11.709   3.620  23.201  0.00  0.00    +0.160 A 
ATOM     52  N   UNL     1      10.750   2.675  23.154  0.00  0.00    -0.217 NA
BRANCH  50  53
ATOM     53  O   UNL     1      12.450   5.927  23.543  0.00  0.00    -0.493 OA
ATOM     54  C   UNL     1      13.319   5.994  22.418  0.00  0.00    +0.277 C 
ENDBRANCH  50  53
ENDBRANCH  41  42
ENDBRANCH   5  41
TORSDOF 14
ENDMDL
