MODEL 1
REMARK VINA RESULT:      -7.3      0.000      0.000
REMARK  Name = 
REMARK  19 active torsions:
REMARK  status: ('A' for Active; 'I' for Inactive)
REMARK    1  A    between atoms: C_1  and  C_2
REMARK    2  A    between atoms: C_2  and  C_3
REMARK    3  A    between atoms: C_2  and  C_4
REMARK    4  A    between atoms: C_4  and  C_6
REMARK    5  A    between atoms: C_4  and  N_54
REMARK    6  A    between atoms: C_12  and  C_14
REMARK    7  A    between atoms: C_17  and  C_19
REMARK    8  A    between atoms: C_22  and  C_25
REMARK    9  A    between atoms: C_28  and  C_31
REMARK   10  A    between atoms: C_34  and  C_36
REMARK   11  A    between atoms: C_42  and  C_44
REMARK   12  A    between atoms: C_44  and  C_46
REMARK   13  A    between atoms: C_44  and  N_49
REMARK   14  A    between atoms: C_46  and  C_47
REMARK   15  A    between atoms: C_46  and  C_48
REMARK   16  A    between atoms: C_50  and  O_52
REMARK   17  A    between atoms: O_52  and  C_53
REMARK   18  A    between atoms: C_55  and  O_57
REMARK   19  A    between atoms: O_57  and  C_58
REMARK                            x       y       z     vdW  Elec       q    Type
REMARK                         _______ _______ _______ _____ _____    ______ ____
ROOT
ATOM      1  C   UNL     1       4.773  -6.379  24.988  0.00  0.00    -0.000 A 
ATOM      2  C   UNL     1       5.097  -6.136  23.648  0.00  0.00    +0.010 A 
ATOM      3  C   UNL     1       6.188  -5.307  23.310  0.00  0.00    +0.009 A 
ATOM      4  C   UNL     1       6.973  -4.667  24.290  0.00  0.00    -0.018 A 
ATOM      5  C   UNL     1       6.687  -4.992  25.624  0.00  0.00    +0.009 A 
ATOM      6  C   UNL     1       5.611  -5.824  25.966  0.00  0.00    +0.010 A 
ENDROOT
BRANCH   1  10
ATOM      7  C   UNL     1       1.863  -7.800  26.665  0.00  0.00    +0.128 A 
ATOM      8  N   UNL     1       3.172  -7.325  26.704  0.00  0.00    -0.340 N 
ATOM      9  H   UNL     1       3.602  -6.889  27.506  0.00  0.00    +0.167 HD
ATOM     10  C   UNL     1       3.626  -7.194  25.410  0.00  0.00    +0.066 A 
ATOM     11  C   UNL     1       2.688  -7.917  24.690  0.00  0.00    +0.139 A 
ATOM     12  N   UNL     1       1.603  -8.272  25.465  0.00  0.00    -0.238 NA
BRANCH   7  15
ATOM     13  C   UNL     1       1.212  -5.008  28.609  0.00  0.00    +0.237 C 
ATOM     14  N   UNL     1       1.262  -6.390  28.770  0.00  0.00    -0.290 N 
ATOM     15  C   UNL     1       0.930  -7.441  27.784  0.00  0.00    +0.142 C 
ATOM     16  C   UNL     1       0.775  -8.729  28.659  0.00  0.00    +0.032 C 
ATOM     17  C   UNL     1       1.104  -8.307  30.082  0.00  0.00    +0.021 C 
ATOM     18  C   UNL     1       0.770  -6.844  30.063  0.00  0.00    +0.108 C 
ATOM     19  O   UNL     1       0.711  -4.311  29.506  0.00  0.00    -0.274 OA
BRANCH  13  20
ATOM     20  C   UNL     1       1.984  -4.313  27.458  0.00  0.00    +0.165 C 
BRANCH  20  21
ATOM     21  N   UNL     1       2.555  -3.099  28.038  0.00  0.00    -0.270 N 
ATOM     22  H   UNL     1       2.026  -2.237  28.062  0.00  0.00    +0.153 HD
ATOM     23  C   UNL     1       3.797  -3.092  28.581  0.00  0.00    +0.401 C 
ATOM     24  O   UNL     1       4.528  -4.066  28.662  0.00  0.00    -0.226 OA
BRANCH  23  25
ATOM     25  O   UNL     1       4.140  -1.846  28.990  0.00  0.00    -0.454 OA
ATOM     26  C   UNL     1       3.110  -1.224  29.761  0.00  0.00    +0.282 C 
ENDBRANCH  23  25
ENDBRANCH  20  21
BRANCH  20  28
ATOM     27  C   UNL     1       1.655  -4.267  24.934  0.00  0.00    +0.009 C 
ATOM     28  C   UNL     1       0.995  -3.965  26.285  0.00  0.00    +0.012 C 
ATOM     29  C   UNL     1       0.484  -2.520  26.242  0.00  0.00    +0.009 C 
ENDBRANCH  20  28
ENDBRANCH  13  20
ENDBRANCH   7  15
ENDBRANCH   1  10
BRANCH   4  30
ATOM     30  C   UNL     1       7.925  -3.568  23.966  0.00  0.00    -0.018 A 
ATOM     31  C   UNL     1       8.145  -3.189  22.630  0.00  0.00    +0.009 A 
ATOM     32  C   UNL     1       8.783  -1.990  22.299  0.00  0.00    +0.010 A 
ATOM     33  C   UNL     1       9.222  -1.124  23.298  0.00  0.00    -0.000 A 
ATOM     34  C   UNL     1       9.135  -1.540  24.629  0.00  0.00    +0.010 A 
ATOM     35  C   UNL     1       8.507  -2.752  24.956  0.00  0.00    +0.009 A 
BRANCH  33  36
ATOM     36  C   UNL     1       9.665   0.218  22.940  0.00  0.00    +0.066 A 
ATOM     37  N   UNL     1       9.869   1.219  23.862  0.00  0.00    -0.340 N 
ATOM     38  H   UNL     1       9.787   1.118  24.864  0.00  0.00    +0.167 HD
ATOM     39  C   UNL     1      10.207   2.371  23.187  0.00  0.00    +0.128 A 
ATOM     40  N   UNL     1      10.174   2.171  21.893  0.00  0.00    -0.238 NA
ATOM     41  C   UNL     1       9.844   0.849  21.725  0.00  0.00    +0.139 A 
BRANCH  39  42
ATOM     42  C   UNL     1      10.619   3.587  23.941  0.00  0.00    +0.142 C 
ATOM     43  N   UNL     1       9.671   4.705  23.961  0.00  0.00    -0.290 N 
ATOM     44  C   UNL     1       8.372   4.777  24.448  0.00  0.00    +0.237 C 
ATOM     45  O   UNL     1       7.879   5.886  24.691  0.00  0.00    -0.274 OA
ATOM     46  C   UNL     1      10.381   5.966  23.761  0.00  0.00    +0.108 C 
ATOM     47  C   UNL     1      11.862   5.620  23.719  0.00  0.00    +0.021 C 
ATOM     48  C   UNL     1      11.860   4.181  23.249  0.00  0.00    +0.032 C 
BRANCH  44  49
ATOM     49  C   UNL     1       7.510   3.492  24.597  0.00  0.00    +0.165 C 
BRANCH  49  50
ATOM     50  N   UNL     1       6.251   3.689  23.876  0.00  0.00    -0.270 N 
ATOM     51  H   UNL     1       5.427   3.921  24.425  0.00  0.00    +0.153 HD
ATOM     52  C   UNL     1       5.971   3.135  22.662  0.00  0.00    +0.401 C 
ATOM     53  O   UNL     1       6.742   2.494  21.967  0.00  0.00    -0.226 OA
BRANCH  52  54
ATOM     54  O   UNL     1       4.678   3.392  22.336  0.00  0.00    -0.454 OA
ATOM     55  C   UNL     1       3.756   3.201  23.412  0.00  0.00    +0.282 C 
ENDBRANCH  52  54
ENDBRANCH  49  50
BRANCH  49  56
ATOM     56  C   UNL     1       7.275   3.068  26.076  0.00  0.00    +0.012 C 
ATOM     57  C   UNL     1       7.304   1.547  26.253  0.00  0.00    +0.009 C 
ATOM     58  C   UNL     1       5.934   3.603  26.605  0.00  0.00    +0.009 C 
ENDBRANCH  49  56
ENDBRANCH  44  49
ENDBRANCH  39  42
ENDBRANCH  33  36
ENDBRANCH   4  30
TORSDOF 13
ENDMDL
MODEL 2
REMARK VINA RESULT:      -6.5      1.280      2.079
REMARK  Name = 
REMARK  19 active torsions:
REMARK  status: ('A' for Active; 'I' for Inactive)
REMARK    1  A    between atoms: C_1  and  C_2
REMARK    2  A    between atoms: C_2  and  C_3
REMARK    3  A    between atoms: C_2  and  C_4
REMARK    4  A    between atoms: C_4  and  C_6
REMARK    5  A    between atoms: C_4  and  N_54
REMARK    6  A    between atoms: C_12  and  C_14
REMARK    7  A    between atoms: C_17  and  C_19
REMARK    8  A    between atoms: C_22  and  C_25
REMARK    9  A    between atoms: C_28  and  C_31
REMARK   10  A    between atoms: C_34  and  C_36
REMARK   11  A    between atoms: C_42  and  C_44
REMARK   12  A    between atoms: C_44  and  C_46
REMARK   13  A    between atoms: C_44  and  N_49
REMARK   14  A    between atoms: C_46  and  C_47
REMARK   15  A    between atoms: C_46  and  C_48
REMARK   16  A    between atoms: C_50  and  O_52
REMARK   17  A    between atoms: O_52  and  C_53
REMARK   18  A    between atoms: C_55  and  O_57
REMARK   19  A    between atoms: O_57  and  C_58
REMARK                            x       y       z     vdW  Elec       q    Type
REMARK                         _______ _______ _______ _____ _____    ______ ____
ROOT
ATOM      1  C   UNL     1       4.897  -6.277  25.072  0.00  0.00    -0.000 A 
ATOM      2  C   UNL     1       5.031  -5.856  23.744  0.00  0.00    +0.010 A 
ATOM      3  C   UNL     1       6.105  -5.026  23.356  0.00  0.00    +0.009 A 
ATOM      4  C   UNL     1       7.062  -4.560  24.280  0.00  0.00    -0.018 A 
ATOM      5  C   UNL     1       6.960  -5.063  25.586  0.00  0.00    +0.009 A 
ATOM      6  C   UNL     1       5.902  -5.897  25.974  0.00  0.00    +0.010 A 
ENDROOT
BRANCH   1  10
ATOM      7  C   UNL     1       2.075  -7.712  26.881  0.00  0.00    +0.128 A 
ATOM      8  N   UNL     1       3.374  -7.212  26.864  0.00  0.00    -0.340 N 
ATOM      9  H   UNL     1       3.823  -6.748  27.639  0.00  0.00    +0.167 HD
ATOM     10  C   UNL     1       3.781  -7.103  25.552  0.00  0.00    +0.066 A 
ATOM     11  C   UNL     1       2.833  -7.860  24.882  0.00  0.00    +0.139 A 
ATOM     12  N   UNL     1       1.783  -8.218  25.702  0.00  0.00    -0.238 NA
BRANCH   7  15
ATOM     13  C   UNL     1       1.018  -4.796  28.422  0.00  0.00    +0.237 C 
ATOM     14  N   UNL     1       1.358  -6.094  28.791  0.00  0.00    -0.290 N 
ATOM     15  C   UNL     1       1.174  -7.344  28.023  0.00  0.00    +0.142 C 
ATOM     16  C   UNL     1       1.348  -8.466  29.101  0.00  0.00    +0.032 C 
ATOM     17  C   UNL     1       1.689  -7.748  30.397  0.00  0.00    +0.021 C 
ATOM     18  C   UNL     1       1.066  -6.399  30.185  0.00  0.00    +0.108 C 
ATOM     19  O   UNL     1       0.454  -4.059  29.247  0.00  0.00    -0.274 OA
BRANCH  13  20
ATOM     20  C   UNL     1       1.546  -4.180  27.100  0.00  0.00    +0.165 C 
BRANCH  20  21
ATOM     21  N   UNL     1       1.125  -5.094  26.040  0.00  0.00    -0.270 N 
ATOM     22  H   UNL     1       1.115  -6.094  26.192  0.00  0.00    +0.153 HD
ATOM     23  C   UNL     1       0.715  -4.635  24.833  0.00  0.00    +0.401 C 
ATOM     24  O   UNL     1       0.633  -3.457  24.525  0.00  0.00    -0.226 OA
BRANCH  23  25
ATOM     25  O   UNL     1       0.443  -5.663  23.991  0.00  0.00    -0.454 OA
ATOM     26  C   UNL     1       1.081  -5.508  22.722  0.00  0.00    +0.282 C 
ENDBRANCH  23  25
ENDBRANCH  20  21
BRANCH  20  28
ATOM     27  C   UNL     1       3.569  -3.738  28.581  0.00  0.00    +0.009 C 
ATOM     28  C   UNL     1       3.114  -4.064  27.153  0.00  0.00    +0.012 C 
ATOM     29  C   UNL     1       3.744  -3.026  26.216  0.00  0.00    +0.009 C 
ENDBRANCH  20  28
ENDBRANCH  13  20
ENDBRANCH   7  15
ENDBRANCH   1  10
BRANCH   4  30
ATOM     30  C   UNL     1       8.016  -3.461  23.965  0.00  0.00    -0.018 A 
ATOM     31  C   UNL     1       8.245  -3.079  22.631  0.00  0.00    +0.009 A 
ATOM     32  C   UNL     1       8.885  -1.880  22.307  0.00  0.00    +0.010 A 
ATOM     33  C   UNL     1       9.317  -1.015  23.310  0.00  0.00    -0.000 A 
ATOM     34  C   UNL     1       9.220  -1.434  24.640  0.00  0.00    +0.010 A 
ATOM     35  C   UNL     1       8.590  -2.647  24.960  0.00  0.00    +0.009 A 
BRANCH  33  36
ATOM     36  C   UNL     1       9.761   0.328  22.958  0.00  0.00    +0.066 A 
ATOM     37  N   UNL     1       9.940   1.333  23.881  0.00  0.00    -0.340 N 
ATOM     38  H   UNL     1       9.834   1.235  24.880  0.00  0.00    +0.167 HD
ATOM     39  C   UNL     1      10.288   2.484  23.210  0.00  0.00    +0.128 A 
ATOM     40  N   UNL     1      10.287   2.279  21.916  0.00  0.00    -0.238 NA
ATOM     41  C   UNL     1       9.966   0.955  21.746  0.00  0.00    +0.139 A 
BRANCH  39  42
ATOM     42  C   UNL     1      10.677   3.705  23.969  0.00  0.00    +0.142 C 
ATOM     43  N   UNL     1       9.703   4.801  23.999  0.00  0.00    -0.290 N 
ATOM     44  C   UNL     1       8.406   4.841  24.493  0.00  0.00    +0.237 C 
ATOM     45  O   UNL     1       7.889   5.938  24.745  0.00  0.00    -0.274 OA
ATOM     46  C   UNL     1      10.385   6.078  23.803  0.00  0.00    +0.108 C 
ATOM     47  C   UNL     1      11.873   5.766  23.752  0.00  0.00    +0.021 C 
ATOM     48  C   UNL     1      11.901   4.330  23.274  0.00  0.00    +0.032 C 
BRANCH  44  49
ATOM     49  C   UNL     1       7.573   3.536  24.639  0.00  0.00    +0.165 C 
BRANCH  49  50
ATOM     50  N   UNL     1       6.233   3.776  24.101  0.00  0.00    -0.270 N 
ATOM     51  H   UNL     1       5.502   4.033  24.758  0.00  0.00    +0.153 HD
ATOM     52  C   UNL     1       5.768   3.235  22.939  0.00  0.00    +0.401 C 
ATOM     53  O   UNL     1       6.414   2.570  22.145  0.00  0.00    -0.226 OA
BRANCH  52  54
ATOM     54  O   UNL     1       4.452   3.534  22.796  0.00  0.00    -0.454 OA
ATOM     55  C   UNL     1       3.928   4.369  23.831  0.00  0.00    +0.282 C 
ENDBRANCH  52  54
ENDBRANCH  49  50
BRANCH  49  56
ATOM     56  C   UNL     1       7.528   2.986  26.095  0.00  0.00    +0.012 C 
ATOM     57  C   UNL     1       7.336   1.468  26.133  0.00  0.00    +0.009 C 
ATOM     58  C   UNL     1       6.403   3.649  26.907  0.00  0.00    +0.009 C 
ENDBRANCH  49  56
ENDBRANCH  44  49
ENDBRANCH  39  42
ENDBRANCH  33  36
ENDBRANCH   4  30
TORSDOF 13
ENDMDL
MODEL 3
REMARK VINA RESULT:      -6.2      2.264      5.203
REMARK  Name = 
REMARK  19 active torsions:
REMARK  status: ('A' for Active; 'I' for Inactive)
REMARK    1  A    between atoms: C_1  and  C_2
REMARK    2  A    between atoms: C_2  and  C_3
REMARK    3  A    between atoms: C_2  and  C_4
REMARK    4  A    between atoms: C_4  and  C_6
REMARK    5  A    between atoms: C_4  and  N_54
REMARK    6  A    between atoms: C_12  and  C_14
REMARK    7  A    between atoms: C_17  and  C_19
REMARK    8  A    between atoms: C_22  and  C_25
REMARK    9  A    between atoms: C_28  and  C_31
REMARK   10  A    between atoms: C_34  and  C_36
REMARK   11  A    between atoms: C_42  and  C_44
REMARK   12  A    between atoms: C_44  and  C_46
REMARK   13  A    between atoms: C_44  and  N_49
REMARK   14  A    between atoms: C_46  and  C_47
REMARK   15  A    between atoms: C_46  and  C_48
REMARK   16  A    between atoms: C_50  and  O_52
REMARK   17  A    between atoms: O_52  and  C_53
REMARK   18  A    between atoms: C_55  and  O_57
REMARK   19  A    between atoms: O_57  and  C_58
REMARK                            x       y       z     vdW  Elec       q    Type
REMARK                         _______ _______ _______ _____ _____    ______ ____
ROOT
ATOM      1  C   UNL     1       2.642  -2.699  28.041  0.00  0.00    -0.000 A 
ATOM      2  C   UNL     1       3.929  -2.413  28.511  0.00  0.00    +0.010 A 
ATOM      3  C   UNL     1       4.444  -1.100  28.447  0.00  0.00    +0.009 A 
ATOM      4  C   UNL     1       3.711  -0.036  27.883  0.00  0.00    -0.018 A 
ATOM      5  C   UNL     1       2.393  -0.326  27.497  0.00  0.00    +0.009 A 
ATOM      6  C   UNL     1       1.873  -1.625  27.570  0.00  0.00    +0.010 A 
ENDROOT
BRANCH   1  10
ATOM      7  C   UNL     1       1.709  -6.152  27.327  0.00  0.00    +0.128 A 
ATOM      8  N   UNL     1       1.861  -4.829  26.919  0.00  0.00    -0.340 N 
ATOM      9  H   UNL     1       2.073  -4.539  25.976  0.00  0.00    +0.167 HD
ATOM     10  C   UNL     1       2.062  -4.049  28.036  0.00  0.00    +0.066 A 
ATOM     11  C   UNL     1       1.679  -4.897  29.064  0.00  0.00    +0.139 A 
ATOM     12  N   UNL     1       1.479  -6.188  28.622  0.00  0.00    -0.238 NA
BRANCH   7  15
ATOM     13  C   UNL     1       4.176  -6.653  24.948  0.00  0.00    +0.237 C 
ATOM     14  N   UNL     1       2.832  -6.971  25.126  0.00  0.00    -0.290 N 
ATOM     15  C   UNL     1       2.115  -7.249  26.388  0.00  0.00    +0.142 C 
ATOM     16  C   UNL     1       0.790  -7.935  25.913  0.00  0.00    +0.032 C 
ATOM     17  C   UNL     1       0.839  -7.926  24.394  0.00  0.00    +0.021 C 
ATOM     18  C   UNL     1       2.316  -7.893  24.125  0.00  0.00    +0.108 C 
ATOM     19  O   UNL     1       4.816  -7.208  24.040  0.00  0.00    -0.274 OA
BRANCH  13  20
ATOM     20  C   UNL     1       4.815  -5.452  25.694  0.00  0.00    +0.165 C 
BRANCH  20  21
ATOM     21  N   UNL     1       5.312  -4.556  24.652  0.00  0.00    -0.270 N 
ATOM     22  H   UNL     1       6.149  -4.781  24.131  0.00  0.00    +0.153 HD
ATOM     23  C   UNL     1       4.660  -3.411  24.335  0.00  0.00    +0.401 C 
ATOM     24  O   UNL     1       3.618  -3.037  24.848  0.00  0.00    -0.226 OA
BRANCH  23  25
ATOM     25  O   UNL     1       5.341  -2.710  23.396  0.00  0.00    -0.454 OA
ATOM     26  C   UNL     1       5.704  -3.516  22.273  0.00  0.00    +0.282 C 
ENDBRANCH  23  25
ENDBRANCH  20  21
BRANCH  20  28
ATOM     27  C   UNL     1       5.591  -5.842  28.087  0.00  0.00    +0.009 C 
ATOM     28  C   UNL     1       5.989  -5.957  26.611  0.00  0.00    +0.012 C 
ATOM     29  C   UNL     1       7.335  -5.243  26.434  0.00  0.00    +0.009 C 
ENDBRANCH  20  28
ENDBRANCH  13  20
ENDBRANCH   7  15
ENDBRANCH   1  10
BRANCH   4  30
ATOM     30  C   UNL     1       4.331   1.272  27.534  0.00  0.00    -0.018 A 
ATOM     31  C   UNL     1       5.097   1.971  28.484  0.00  0.00    +0.009 A 
ATOM     32  C   UNL     1       5.934   3.030  28.121  0.00  0.00    +0.010 A 
ATOM     33  C   UNL     1       6.036   3.427  26.789  0.00  0.00    -0.000 A 
ATOM     34  C   UNL     1       5.186   2.837  25.850  0.00  0.00    +0.010 A 
ATOM     35  C   UNL     1       4.336   1.783  26.222  0.00  0.00    +0.009 A 
BRANCH  33  36
ATOM     36  C   UNL     1       7.081   4.364  26.397  0.00  0.00    +0.066 A 
ATOM     37  N   UNL     1       7.931   4.150  25.336  0.00  0.00    -0.340 N 
ATOM     38  H   UNL     1       7.888   3.366  24.701  0.00  0.00    +0.167 HD
ATOM     39  C   UNL     1       8.839   5.184  25.290  0.00  0.00    +0.128 A 
ATOM     40  N   UNL     1       8.647   6.008  26.290  0.00  0.00    -0.238 NA
ATOM     41  C   UNL     1       7.567   5.517  26.980  0.00  0.00    +0.139 A 
BRANCH  39  42
ATOM     42  C   UNL     1       9.800   5.287  24.157  0.00  0.00    +0.142 C 
ATOM     43  N   UNL     1      10.290   4.027  23.590  0.00  0.00    -0.290 N 
ATOM     44  C   UNL     1       9.603   2.984  22.983  0.00  0.00    +0.237 C 
ATOM     45  O   UNL     1      10.223   2.190  22.264  0.00  0.00    -0.274 OA
ATOM     46  C   UNL     1      11.726   4.118  23.338  0.00  0.00    +0.108 C 
ATOM     47  C   UNL     1      12.128   5.547  23.670  0.00  0.00    +0.021 C 
ATOM     48  C   UNL     1      11.080   5.969  24.677  0.00  0.00    +0.032 C 
BRANCH  44  49
ATOM     49  C   UNL     1       8.093   2.754  23.275  0.00  0.00    +0.165 C 
BRANCH  49  50
ATOM     50  N   UNL     1       7.873   1.323  23.494  0.00  0.00    -0.270 N 
ATOM     51  H   UNL     1       7.243   0.843  22.858  0.00  0.00    +0.153 HD
ATOM     52  C   UNL     1       8.026   0.702  24.698  0.00  0.00    +0.401 C 
ATOM     53  O   UNL     1       8.453   1.210  25.722  0.00  0.00    -0.226 OA
BRANCH  52  54
ATOM     54  O   UNL     1       7.611  -0.586  24.597  0.00  0.00    -0.454 OA
ATOM     55  C   UNL     1       8.658  -1.517  24.313  0.00  0.00    +0.282 C 
ENDBRANCH  52  54
ENDBRANCH  49  50
BRANCH  49  56
ATOM     56  C   UNL     1       7.152   3.328  22.176  0.00  0.00    +0.012 C 
ATOM     57  C   UNL     1       7.147   4.859  22.161  0.00  0.00    +0.009 C 
ATOM     58  C   UNL     1       5.709   2.829  22.360  0.00  0.00    +0.009 C 
ENDBRANCH  49  56
ENDBRANCH  44  49
ENDBRANCH  39  42
ENDBRANCH  33  36
ENDBRANCH   4  30
TORSDOF 13
ENDMDL
MODEL 4
REMARK VINA RESULT:      -4.7      2.276     12.127
REMARK  Name = 
REMARK  19 active torsions:
REMARK  status: ('A' for Active; 'I' for Inactive)
REMARK    1  A    between atoms: C_1  and  C_2
REMARK    2  A    between atoms: C_2  and  C_3
REMARK    3  A    between atoms: C_2  and  C_4
REMARK    4  A    between atoms: C_4  and  C_6
REMARK    5  A    between atoms: C_4  and  N_54
REMARK    6  A    between atoms: C_12  and  C_14
REMARK    7  A    between atoms: C_17  and  C_19
REMARK    8  A    between atoms: C_22  and  C_25
REMARK    9  A    between atoms: C_28  and  C_31
REMARK   10  A    between atoms: C_34  and  C_36
REMARK   11  A    between atoms: C_42  and  C_44
REMARK   12  A    between atoms: C_44  and  C_46
REMARK   13  A    between atoms: C_44  and  N_49
REMARK   14  A    between atoms: C_46  and  C_47
REMARK   15  A    between atoms: C_46  and  C_48
REMARK   16  A    between atoms: C_50  and  O_52
REMARK   17  A    between atoms: O_52  and  C_53
REMARK   18  A    between atoms: C_55  and  O_57
REMARK   19  A    between atoms: O_57  and  C_58
REMARK                            x       y       z     vdW  Elec       q    Type
REMARK                         _______ _______ _______ _____ _____    ______ ____
ROOT
ATOM      1  C   UNL     1       6.449   3.176  26.523  0.00  0.00    -0.000 A 
ATOM      2  C   UNL     1       6.876   2.536  27.692  0.00  0.00    +0.010 A 
ATOM      3  C   UNL     1       6.175   1.421  28.200  0.00  0.00    +0.009 A 
ATOM      4  C   UNL     1       5.009   0.926  27.582  0.00  0.00    -0.018 A 
ATOM      5  C   UNL     1       4.648   1.526  26.366  0.00  0.00    +0.009 A 
ATOM      6  C   UNL     1       5.348   2.626  25.851  0.00  0.00    +0.010 A 
ENDROOT
BRANCH   1  10
ATOM      7  C   UNL     1       8.603   5.541  24.771  0.00  0.00    +0.128 A 
ATOM      8  N   UNL     1       8.440   4.467  25.643  0.00  0.00    -0.340 N 
ATOM      9  H   UNL     1       9.116   3.731  25.781  0.00  0.00    +0.167 HD
ATOM     10  C   UNL     1       7.104   4.367  25.965  0.00  0.00    +0.066 A 
ATOM     11  C   UNL     1       6.602   5.588  25.540  0.00  0.00    +0.139 A 
ATOM     12  N   UNL     1       7.524   6.295  24.796  0.00  0.00    -0.238 NA
BRANCH   7  15
ATOM     13  C   UNL     1      10.337   3.119  23.003  0.00  0.00    +0.237 C 
ATOM     14  N   UNL     1      10.609   4.325  23.643  0.00  0.00    -0.290 N 
ATOM     15  C   UNL     1       9.733   5.507  23.785  0.00  0.00    +0.142 C 
ATOM     16  C   UNL     1      10.720   6.647  24.206  0.00  0.00    +0.032 C 
ATOM     17  C   UNL     1      12.084   5.989  24.336  0.00  0.00    +0.021 C 
ATOM     18  C   UNL     1      11.959   4.817  23.406  0.00  0.00    +0.108 C 
ATOM     19  O   UNL     1      11.195   2.619  22.260  0.00  0.00    -0.274 OA
BRANCH  13  20
ATOM     20  C   UNL     1       9.093   2.277  23.391  0.00  0.00    +0.165 C 
BRANCH  20  21
ATOM     21  N   UNL     1       9.588   0.921  23.622  0.00  0.00    -0.270 N 
ATOM     22  H   UNL     1      10.297   0.519  23.023  0.00  0.00    +0.153 HD
ATOM     23  C   UNL     1       9.133   0.169  24.654  0.00  0.00    +0.401 C 
ATOM     24  O   UNL     1       8.314   0.540  25.479  0.00  0.00    -0.226 OA
BRANCH  23  25
ATOM     25  O   UNL     1       9.679  -1.072  24.626  0.00  0.00    -0.454 OA
ATOM     26  C   UNL     1       9.165  -1.867  23.557  0.00  0.00    +0.282 C 
ENDBRANCH  23  25
ENDBRANCH  20  21
BRANCH  20  28
ATOM     27  C   UNL     1       7.216   3.590  22.281  0.00  0.00    +0.009 C 
ATOM     28  C   UNL     1       8.044   2.301  22.219  0.00  0.00    +0.012 C 
ATOM     29  C   UNL     1       7.067   1.121  22.166  0.00  0.00    +0.009 C 
ENDBRANCH  20  28
ENDBRANCH  13  20
ENDBRANCH   7  15
ENDBRANCH   1  10
BRANCH   4  30
ATOM     30  C   UNL     1       4.094  -0.042  28.249  0.00  0.00    -0.018 A 
ATOM     31  C   UNL     1       2.859  -0.370  27.663  0.00  0.00    +0.009 A 
ATOM     32  C   UNL     1       2.114  -1.476  28.083  0.00  0.00    +0.010 A 
ATOM     33  C   UNL     1       2.584  -2.298  29.105  0.00  0.00    -0.000 A 
ATOM     34  C   UNL     1       3.741  -1.917  29.790  0.00  0.00    +0.010 A 
ATOM     35  C   UNL     1       4.477  -0.797  29.374  0.00  0.00    +0.009 A 
BRANCH  33  36
ATOM     36  C   UNL     1       1.921  -3.570  29.365  0.00  0.00    +0.066 A 
ATOM     37  N   UNL     1       2.455  -4.788  29.014  0.00  0.00    -0.340 N 
ATOM     38  H   UNL     1       3.364  -4.930  28.597  0.00  0.00    +0.167 HD
ATOM     39  C   UNL     1       1.545  -5.772  29.333  0.00  0.00    +0.128 A 
ATOM     40  N   UNL     1       0.447  -5.242  29.812  0.00  0.00    -0.238 NA
ATOM     41  C   UNL     1       0.664  -3.887  29.840  0.00  0.00    +0.139 A 
BRANCH  39  42
ATOM     42  C   UNL     1       1.912  -7.207  29.188  0.00  0.00    +0.142 C 
ATOM     43  N   UNL     1       1.475  -7.880  27.960  0.00  0.00    -0.290 N 
ATOM     44  C   UNL     1       1.774  -7.613  26.631  0.00  0.00    +0.237 C 
ATOM     45  O   UNL     1       1.599  -8.499  25.783  0.00  0.00    -0.274 OA
ATOM     46  C   UNL     1       0.961  -9.210  28.277  0.00  0.00    +0.108 C 
ATOM     47  C   UNL     1       1.188  -9.413  29.768  0.00  0.00    +0.021 C 
ATOM     48  C   UNL     1       1.202  -7.997  30.303  0.00  0.00    +0.032 C 
BRANCH  44  49
ATOM     49  C   UNL     1       2.233  -6.194  26.191  0.00  0.00    +0.165 C 
BRANCH  49  50
ATOM     50  N   UNL     1       1.481  -5.812  24.994  0.00  0.00    -0.270 N 
ATOM     51  H   UNL     1       1.644  -6.349  24.147  0.00  0.00    +0.153 HD
ATOM     52  C   UNL     1       0.983  -4.562  24.771  0.00  0.00    +0.401 C 
ATOM     53  O   UNL     1       0.999  -3.629  25.558  0.00  0.00    -0.226 OA
BRANCH  52  54
ATOM     54  O   UNL     1       0.468  -4.499  23.517  0.00  0.00    -0.454 OA
ATOM     55  C   UNL     1       0.571  -5.720  22.781  0.00  0.00    +0.282 C 
ENDBRANCH  52  54
ENDBRANCH  49  50
BRANCH  49  56
ATOM     56  C   UNL     1       3.770  -6.074  25.978  0.00  0.00    +0.012 C 
ATOM     57  C   UNL     1       4.274  -4.645  26.196  0.00  0.00    +0.009 C 
ATOM     58  C   UNL     1       4.176  -6.534  24.568  0.00  0.00    +0.009 C 
ENDBRANCH  49  56
ENDBRANCH  44  49
ENDBRANCH  39  42
ENDBRANCH  33  36
ENDBRANCH   4  30
TORSDOF 13
ENDMDL
MODEL 5
REMARK VINA RESULT:      -4.6      2.592      5.421
REMARK  Name = 
REMARK  19 active torsions:
REMARK  status: ('A' for Active; 'I' for Inactive)
REMARK    1  A    between atoms: C_1  and  C_2
REMARK    2  A    between atoms: C_2  and  C_3
REMARK    3  A    between atoms: C_2  and  C_4
REMARK    4  A    between atoms: C_4  and  C_6
REMARK    5  A    between atoms: C_4  and  N_54
REMARK    6  A    between atoms: C_12  and  C_14
REMARK    7  A    between atoms: C_17  and  C_19
REMARK    8  A    between atoms: C_22  and  C_25
REMARK    9  A    between atoms: C_28  and  C_31
REMARK   10  A    between atoms: C_34  and  C_36
REMARK   11  A    between atoms: C_42  and  C_44
REMARK   12  A    between atoms: C_44  and  C_46
REMARK   13  A    between atoms: C_44  and  N_49
REMARK   14  A    between atoms: C_46  and  C_47
REMARK   15  A    between atoms: C_46  and  C_48
REMARK   16  A    between atoms: C_50  and  O_52
REMARK   17  A    between atoms: O_52  and  C_53
REMARK   18  A    between atoms: C_55  and  O_57
REMARK   19  A    between atoms: O_57  and  C_58
REMARK                            x       y       z     vdW  Elec       q    Type
REMARK                         _______ _______ _______ _____ _____    ______ ____
ROOT
ATOM      1  C   UNL     1       2.451  -3.419  28.115  0.00  0.00    -0.000 A 
ATOM      2  C   UNL     1       3.651  -3.271  28.820  0.00  0.00    +0.010 A 
ATOM      3  C   UNL     1       4.173  -1.987  29.093  0.00  0.00    +0.009 A 
ATOM      4  C   UNL     1       3.537  -0.811  28.647  0.00  0.00    -0.018 A 
ATOM      5  C   UNL     1       2.293  -0.978  28.019  0.00  0.00    +0.009 A 
ATOM      6  C   UNL     1       1.765  -2.250  27.756  0.00  0.00    +0.010 A 
ENDROOT
BRANCH   1  10
ATOM      7  C   UNL     1       1.496  -6.548  26.505  0.00  0.00    +0.128 A 
ATOM      8  N   UNL     1       1.625  -5.162  26.477  0.00  0.00    -0.340 N 
ATOM      9  H   UNL     1       1.791  -4.616  25.645  0.00  0.00    +0.167 HD
ATOM     10  C   UNL     1       1.876  -4.723  27.758  0.00  0.00    +0.066 A 
ATOM     11  C   UNL     1       1.545  -5.830  28.524  0.00  0.00    +0.139 A 
ATOM     12  N   UNL     1       1.328  -6.950  27.747  0.00  0.00    -0.238 NA
BRANCH   7  15
ATOM     13  C   UNL     1       3.797  -6.279  23.929  0.00  0.00    +0.237 C 
ATOM     14  N   UNL     1       2.478  -6.692  24.098  0.00  0.00    -0.290 N 
ATOM     15  C   UNL     1       1.861  -7.333  25.279  0.00  0.00    +0.142 C 
ATOM     16  C   UNL     1       0.524  -7.923  24.719  0.00  0.00    +0.032 C 
ATOM     17  C   UNL     1       0.462  -7.502  23.260  0.00  0.00    +0.021 C 
ATOM     18  C   UNL     1       1.914  -7.332  22.918  0.00  0.00    +0.108 C 
ATOM     19  O   UNL     1       4.383  -6.540  22.866  0.00  0.00    -0.274 OA
BRANCH  13  20
ATOM     20  C   UNL     1       4.457  -5.297  24.932  0.00  0.00    +0.165 C 
BRANCH  20  21
ATOM     21  N   UNL     1       5.056  -4.241  24.119  0.00  0.00    -0.270 N 
ATOM     22  H   UNL     1       5.511  -4.458  23.241  0.00  0.00    +0.153 HD
ATOM     23  C   UNL     1       5.004  -2.941  24.498  0.00  0.00    +0.401 C 
ATOM     24  O   UNL     1       4.451  -2.530  25.506  0.00  0.00    -0.226 OA
BRANCH  23  25
ATOM     25  O   UNL     1       5.685  -2.155  23.628  0.00  0.00    -0.454 OA
ATOM     26  C   UNL     1       6.177  -2.888  22.505  0.00  0.00    +0.282 C 
ENDBRANCH  23  25
ENDBRANCH  20  21
BRANCH  20  28
ATOM     27  C   UNL     1       4.970  -6.487  27.124  0.00  0.00    +0.009 C 
ATOM     28  C   UNL     1       5.552  -6.050  25.774  0.00  0.00    +0.012 C 
ATOM     29  C   UNL     1       6.841  -5.267  26.055  0.00  0.00    +0.009 C 
ENDBRANCH  20  28
ENDBRANCH  13  20
ENDBRANCH   7  15
ENDBRANCH   1  10
BRANCH   4  30
ATOM     30  C   UNL     1       4.206   0.520  28.659  0.00  0.00    -0.018 A 
ATOM     31  C   UNL     1       5.465   0.686  28.056  0.00  0.00    +0.009 A 
ATOM     32  C   UNL     1       5.987   1.953  27.779  0.00  0.00    +0.010 A 
ATOM     33  C   UNL     1       5.264   3.101  28.093  0.00  0.00    -0.000 A 
ATOM     34  C   UNL     1       4.073   2.963  28.812  0.00  0.00    +0.010 A 
ATOM     35  C   UNL     1       3.559   1.689  29.101  0.00  0.00    +0.009 A 
BRANCH  33  36
ATOM     36  C   UNL     1       5.710   4.392  27.586  0.00  0.00    +0.066 A 
ATOM     37  N   UNL     1       6.713   4.534  26.654  0.00  0.00    -0.340 N 
ATOM     38  H   UNL     1       7.198   3.776  26.197  0.00  0.00    +0.167 HD
ATOM     39  C   UNL     1       6.934   5.879  26.454  0.00  0.00    +0.128 A 
ATOM     40  N   UNL     1       6.170   6.592  27.243  0.00  0.00    -0.238 NA
ATOM     41  C   UNL     1       5.409   5.691  27.945  0.00  0.00    +0.139 A 
BRANCH  39  42
ATOM     42  C   UNL     1       7.876   6.333  25.393  0.00  0.00    +0.142 C 
ATOM     43  N   UNL     1       7.890   5.560  24.147  0.00  0.00    -0.290 N 
ATOM     44  C   UNL     1       6.880   5.321  23.224  0.00  0.00    +0.237 C 
ATOM     45  O   UNL     1       7.182   4.953  22.081  0.00  0.00    -0.274 OA
ATOM     46  C   UNL     1       9.266   5.356  23.702  0.00  0.00    +0.108 C 
ATOM     47  C   UNL     1      10.148   6.132  24.669  0.00  0.00    +0.021 C 
ATOM     48  C   UNL     1       9.311   6.175  25.930  0.00  0.00    +0.032 C 
BRANCH  44  49
ATOM     49  C   UNL     1       5.385   5.419  23.641  0.00  0.00    +0.165 C 
BRANCH  49  50
ATOM     50  N   UNL     1       4.632   4.393  22.917  0.00  0.00    -0.270 N 
ATOM     51  H   UNL     1       4.356   4.601  21.961  0.00  0.00    +0.153 HD
ATOM     52  C   UNL     1       3.868   3.438  23.520  0.00  0.00    +0.401 C 
ATOM     53  O   UNL     1       3.780   3.238  24.721  0.00  0.00    -0.226 OA
BRANCH  52  54
ATOM     54  O   UNL     1       3.192   2.738  22.574  0.00  0.00    -0.454 OA
ATOM     55  C   UNL     1       1.812   3.094  22.458  0.00  0.00    +0.282 C 
ENDBRANCH  52  54
ENDBRANCH  49  50
BRANCH  49  56
ATOM     56  C   UNL     1       4.776   6.838  23.446  0.00  0.00    +0.012 C 
ATOM     57  C   UNL     1       3.618   7.107  24.411  0.00  0.00    +0.009 C 
ATOM     58  C   UNL     1       4.277   7.038  22.005  0.00  0.00    +0.009 C 
ENDBRANCH  49  56
ENDBRANCH  44  49
ENDBRANCH  39  42
ENDBRANCH  33  36
ENDBRANCH   4  30
TORSDOF 13
ENDMDL
MODEL 6
REMARK VINA RESULT:      -4.6      2.714      5.833
REMARK  Name = 
REMARK  19 active torsions:
REMARK  status: ('A' for Active; 'I' for Inactive)
REMARK    1  A    between atoms: C_1  and  C_2
REMARK    2  A    between atoms: C_2  and  C_3
REMARK    3  A    between atoms: C_2  and  C_4
REMARK    4  A    between atoms: C_4  and  C_6
REMARK    5  A    between atoms: C_4  and  N_54
REMARK    6  A    between atoms: C_12  and  C_14
REMARK    7  A    between atoms: C_17  and  C_19
REMARK    8  A    between atoms: C_22  and  C_25
REMARK    9  A    between atoms: C_28  and  C_31
REMARK   10  A    between atoms: C_34  and  C_36
REMARK   11  A    between atoms: C_42  and  C_44
REMARK   12  A    between atoms: C_44  and  C_46
REMARK   13  A    between atoms: C_44  and  N_49
REMARK   14  A    between atoms: C_46  and  C_47
REMARK   15  A    between atoms: C_46  and  C_48
REMARK   16  A    between atoms: C_50  and  O_52
REMARK   17  A    between atoms: O_52  and  C_53
REMARK   18  A    between atoms: C_55  and  O_57
REMARK   19  A    between atoms: O_57  and  C_58
REMARK                            x       y       z     vdW  Elec       q    Type
REMARK                         _______ _______ _______ _____ _____    ______ ____
ROOT
ATOM      1  C   UNL     1       2.573  -3.344  28.127  0.00  0.00    -0.000 A 
ATOM      2  C   UNL     1       3.775  -2.830  28.630  0.00  0.00    +0.010 A 
ATOM      3  C   UNL     1       3.924  -1.446  28.864  0.00  0.00    +0.009 A 
ATOM      4  C   UNL     1       2.898  -0.524  28.575  0.00  0.00    -0.018 A 
ATOM      5  C   UNL     1       1.674  -1.068  28.155  0.00  0.00    +0.009 A 
ATOM      6  C   UNL     1       1.516  -2.443  27.933  0.00  0.00    +0.010 A 
ENDROOT
BRANCH   1  10
ATOM      7  C   UNL     1       2.276  -6.622  26.556  0.00  0.00    +0.128 A 
ATOM      8  N   UNL     1       1.953  -5.268  26.605  0.00  0.00    -0.340 N 
ATOM      9  H   UNL     1       1.727  -4.701  25.801  0.00  0.00    +0.167 HD
ATOM     10  C   UNL     1       2.365  -4.765  27.819  0.00  0.00    +0.066 A 
ATOM     11  C   UNL     1       2.600  -5.917  28.554  0.00  0.00    +0.139 A 
ATOM     12  N   UNL     1       2.558  -7.050  27.768  0.00  0.00    -0.238 NA
BRANCH   7  15
ATOM     13  C   UNL     1       4.166  -5.872  23.751  0.00  0.00    +0.237 C 
ATOM     14  N   UNL     1       2.932  -6.447  24.043  0.00  0.00    -0.290 N 
ATOM     15  C   UNL     1       2.550  -7.252  25.222  0.00  0.00    +0.142 C 
ATOM     16  C   UNL     1       1.217  -7.943  24.779  0.00  0.00    +0.032 C 
ATOM     17  C   UNL     1       0.915  -7.409  23.388  0.00  0.00    +0.021 C 
ATOM     18  C   UNL     1       2.282  -7.045  22.885  0.00  0.00    +0.108 C 
ATOM     19  O   UNL     1       4.627  -5.973  22.603  0.00  0.00    -0.274 OA
BRANCH  13  20
ATOM     20  C   UNL     1       4.852  -4.910  24.756  0.00  0.00    +0.165 C 
BRANCH  20  21
ATOM     21  N   UNL     1       5.423  -3.833  23.949  0.00  0.00    -0.270 N 
ATOM     22  H   UNL     1       5.942  -4.038  23.105  0.00  0.00    +0.153 HD
ATOM     23  C   UNL     1       5.257  -2.532  24.288  0.00  0.00    +0.401 C 
ATOM     24  O   UNL     1       4.618  -2.137  25.250  0.00  0.00    -0.226 OA
BRANCH  23  25
ATOM     25  O   UNL     1       5.932  -1.720  23.437  0.00  0.00    -0.454 OA
ATOM     26  C   UNL     1       7.027  -1.057  24.072  0.00  0.00    +0.282 C 
ENDBRANCH  23  25
ENDBRANCH  20  21
BRANCH  20  28
ATOM     27  C   UNL     1       5.805  -5.445  27.055  0.00  0.00    +0.009 C 
ATOM     28  C   UNL     1       5.974  -5.675  25.549  0.00  0.00    +0.012 C 
ATOM     29  C   UNL     1       7.420  -5.318  25.182  0.00  0.00    +0.009 C 
ENDBRANCH  20  28
ENDBRANCH  13  20
ENDBRANCH   7  15
ENDBRANCH   1  10
BRANCH   4  30
ATOM     30  C   UNL     1       3.127   0.947  28.529  0.00  0.00    -0.018 A 
ATOM     31  C   UNL     1       4.344   1.490  28.976  0.00  0.00    +0.009 A 
ATOM     32  C   UNL     1       4.719   2.803  28.679  0.00  0.00    +0.010 A 
ATOM     33  C   UNL     1       3.886   3.622  27.918  0.00  0.00    -0.000 A 
ATOM     34  C   UNL     1       2.616   3.149  27.577  0.00  0.00    +0.010 A 
ATOM     35  C   UNL     1       2.238   1.834  27.891  0.00  0.00    +0.009 A 
BRANCH  33  36
ATOM     36  C   UNL     1       4.392   4.894  27.419  0.00  0.00    +0.066 A 
ATOM     37  N   UNL     1       5.732   5.174  27.278  0.00  0.00    -0.340 N 
ATOM     38  H   UNL     1       6.486   4.525  27.452  0.00  0.00    +0.167 HD
ATOM     39  C   UNL     1       5.863   6.479  26.858  0.00  0.00    +0.128 A 
ATOM     40  N   UNL     1       4.689   7.056  26.780  0.00  0.00    -0.238 NA
ATOM     41  C   UNL     1       3.773   6.092  27.120  0.00  0.00    +0.139 A 
BRANCH  39  42
ATOM     42  C   UNL     1       7.202   7.017  26.491  0.00  0.00    +0.142 C 
ATOM     43  N   UNL     1       8.013   6.205  25.578  0.00  0.00    -0.290 N 
ATOM     44  C   UNL     1       7.762   5.792  24.277  0.00  0.00    +0.237 C 
ATOM     45  O   UNL     1       8.708   5.424  23.567  0.00  0.00    -0.274 OA
ATOM     46  C   UNL     1       9.400   6.177  26.035  0.00  0.00    +0.108 C 
ATOM     47  C   UNL     1       9.474   7.106  27.238  0.00  0.00    +0.021 C 
ATOM     48  C   UNL     1       8.057   7.082  27.771  0.00  0.00    +0.032 C 
BRANCH  44  49
ATOM     49  C   UNL     1       6.305   5.697  23.741  0.00  0.00    +0.165 C 
BRANCH  49  50
ATOM     50  N   UNL     1       6.158   4.436  23.013  0.00  0.00    -0.270 N 
ATOM     51  H   UNL     1       6.046   4.486  22.005  0.00  0.00    +0.153 HD
ATOM     52  C   UNL     1       5.678   3.285  23.567  0.00  0.00    +0.401 C 
ATOM     53  O   UNL     1       5.404   3.112  24.743  0.00  0.00    -0.226 OA
BRANCH  52  54
ATOM     54  O   UNL     1       5.533   2.345  22.599  0.00  0.00    -0.454 OA
ATOM     55  C   UNL     1       6.746   2.015  21.918  0.00  0.00    +0.282 C 
ENDBRANCH  52  54
ENDBRANCH  49  50
BRANCH  49  56
ATOM     56  C   UNL     1       5.877   6.921  22.881  0.00  0.00    +0.012 C 
ATOM     57  C   UNL     1       4.435   6.799  22.380  0.00  0.00    +0.009 C 
ATOM     58  C   UNL     1       6.808   7.107  21.672  0.00  0.00    +0.009 C 
ENDBRANCH  49  56
ENDBRANCH  44  49
ENDBRANCH  39  42
ENDBRANCH  33  36
ENDBRANCH   4  30
TORSDOF 13
ENDMDL
MODEL 7
REMARK VINA RESULT:      -4.5      2.398     12.248
REMARK  Name = 
REMARK  19 active torsions:
REMARK  status: ('A' for Active; 'I' for Inactive)
REMARK    1  A    between atoms: C_1  and  C_2
REMARK    2  A    between atoms: C_2  and  C_3
REMARK    3  A    between atoms: C_2  and  C_4
REMARK    4  A    between atoms: C_4  and  C_6
REMARK    5  A    between atoms: C_4  and  N_54
REMARK    6  A    between atoms: C_12  and  C_14
REMARK    7  A    between atoms: C_17  and  C_19
REMARK    8  A    between atoms: C_22  and  C_25
REMARK    9  A    between atoms: C_28  and  C_31
REMARK   10  A    between atoms: C_34  and  C_36
REMARK   11  A    between atoms: C_42  and  C_44
REMARK   12  A    between atoms: C_44  and  C_46
REMARK   13  A    between atoms: C_44  and  N_49
REMARK   14  A    between atoms: C_46  and  C_47
REMARK   15  A    between atoms: C_46  and  C_48
REMARK   16  A    between atoms: C_50  and  O_52
REMARK   17  A    between atoms: O_52  and  C_53
REMARK   18  A    between atoms: C_55  and  O_57
REMARK   19  A    between atoms: O_57  and  C_58
REMARK                            x       y       z     vdW  Elec       q    Type
REMARK                         _______ _______ _______ _____ _____    ______ ____
ROOT
ATOM      1  C   UNL     1       6.423   4.217  26.833  0.00  0.00    -0.000 A 
ATOM      2  C   UNL     1       5.148   4.150  26.258  0.00  0.00    +0.010 A 
ATOM      3  C   UNL     1       4.205   3.200  26.707  0.00  0.00    +0.009 A 
ATOM      4  C   UNL     1       4.508   2.264  27.716  0.00  0.00    -0.018 A 
ATOM      5  C   UNL     1       5.759   2.404  28.337  0.00  0.00    +0.009 A 
ATOM      6  C   UNL     1       6.695   3.354  27.904  0.00  0.00    +0.010 A 
ENDROOT
BRANCH   1  10
ATOM      7  C   UNL     1       9.189   5.897  25.151  0.00  0.00    +0.128 A 
ATOM      8  N   UNL     1       8.670   4.792  25.821  0.00  0.00    -0.340 N 
ATOM      9  H   UNL     1       8.971   3.839  25.678  0.00  0.00    +0.167 HD
ATOM     10  C   UNL     1       7.466   5.150  26.385  0.00  0.00    +0.066 A 
ATOM     11  C   UNL     1       7.500   6.534  26.309  0.00  0.00    +0.139 A 
ATOM     12  N   UNL     1       8.553   6.983  25.537  0.00  0.00    -0.238 NA
BRANCH   7  15
ATOM     13  C   UNL     1      10.044   3.234  23.108  0.00  0.00    +0.237 C 
ATOM     14  N   UNL     1      10.664   4.346  23.670  0.00  0.00    -0.290 N 
ATOM     15  C   UNL     1      10.080   5.671  23.966  0.00  0.00    +0.142 C 
ATOM     16  C   UNL     1      11.333   6.586  24.176  0.00  0.00    +0.032 C 
ATOM     17  C   UNL     1      12.541   5.673  24.047  0.00  0.00    +0.021 C 
ATOM     18  C   UNL     1      12.014   4.573  23.171  0.00  0.00    +0.108 C 
ATOM     19  O   UNL     1      10.630   2.597  22.218  0.00  0.00    -0.274 OA
BRANCH  13  20
ATOM     20  C   UNL     1       8.757   2.638  23.737  0.00  0.00    +0.165 C 
BRANCH  20  21
ATOM     21  N   UNL     1       9.065   1.238  24.020  0.00  0.00    -0.270 N 
ATOM     22  H   UNL     1       9.672   0.707  23.410  0.00  0.00    +0.153 HD
ATOM     23  C   UNL     1       8.570   0.613  25.116  0.00  0.00    +0.401 C 
ATOM     24  O   UNL     1       7.863   1.140  25.960  0.00  0.00    -0.226 OA
BRANCH  23  25
ATOM     25  O   UNL     1       8.929  -0.694  25.132  0.00  0.00    -0.454 OA
ATOM     26  C   UNL     1       9.543  -1.103  23.909  0.00  0.00    +0.282 C 
ENDBRANCH  23  25
ENDBRANCH  20  21
BRANCH  20  28
ATOM     27  C   UNL     1       7.225   4.234  22.478  0.00  0.00    +0.009 C 
ATOM     28  C   UNL     1       7.561   2.758  22.723  0.00  0.00    +0.012 C 
ATOM     29  C   UNL     1       6.264   2.046  23.125  0.00  0.00    +0.009 C 
ENDBRANCH  20  28
ENDBRANCH  13  20
ENDBRANCH   7  15
ENDBRANCH   1  10
BRANCH   4  30
ATOM     30  C   UNL     1       3.654   1.076  27.996  0.00  0.00    -0.018 A 
ATOM     31  C   UNL     1       2.387   0.957  27.397  0.00  0.00    +0.009 A 
ATOM     32  C   UNL     1       1.688  -0.254  27.387  0.00  0.00    +0.010 A 
ATOM     33  C   UNL     1       2.236  -1.392  27.974  0.00  0.00    -0.000 A 
ATOM     34  C   UNL     1       3.431  -1.266  28.689  0.00  0.00    +0.010 A 
ATOM     35  C   UNL     1       4.122  -0.044  28.709  0.00  0.00    +0.009 A 
BRANCH  33  36
ATOM     36  C   UNL     1       1.611  -2.689  27.747  0.00  0.00    +0.066 A 
ATOM     37  N   UNL     1       1.416  -3.227  26.496  0.00  0.00    -0.340 N 
ATOM     38  H   UNL     1       1.725  -2.815  25.627  0.00  0.00    +0.167 HD
ATOM     39  C   UNL     1       0.737  -4.418  26.634  0.00  0.00    +0.128 A 
ATOM     40  N   UNL     1       0.443  -4.634  27.893  0.00  0.00    -0.238 NA
ATOM     41  C   UNL     1       0.977  -3.579  28.591  0.00  0.00    +0.139 A 
BRANCH  39  42
ATOM     42  C   UNL     1       0.506  -5.290  25.450  0.00  0.00    +0.142 C 
ATOM     43  N   UNL     1       1.502  -6.335  25.196  0.00  0.00    -0.290 N 
ATOM     44  C   UNL     1       1.901  -7.411  25.979  0.00  0.00    +0.237 C 
ATOM     45  O   UNL     1       2.484  -8.363  25.444  0.00  0.00    -0.274 OA
ATOM     46  C   UNL     1       1.805  -6.398  23.768  0.00  0.00    +0.108 C 
ATOM     47  C   UNL     1       0.870  -5.409  23.089  0.00  0.00    +0.021 C 
ATOM     48  C   UNL     1       0.576  -4.411  24.188  0.00  0.00    +0.032 C 
BRANCH  44  49
ATOM     49  C   UNL     1       1.706  -7.383  27.521  0.00  0.00    +0.165 C 
BRANCH  49  50
ATOM     50  N   UNL     1       3.004  -7.613  28.158  0.00  0.00    -0.270 N 
ATOM     51  H   UNL     1       3.044  -8.296  28.910  0.00  0.00    +0.153 HD
ATOM     52  C   UNL     1       4.014  -6.696  28.188  0.00  0.00    +0.401 C 
ATOM     53  O   UNL     1       4.024  -5.617  27.617  0.00  0.00    -0.226 OA
BRANCH  52  54
ATOM     54  O   UNL     1       5.020  -7.159  28.972  0.00  0.00    -0.454 OA
ATOM     55  C   UNL     1       6.113  -6.248  29.117  0.00  0.00    +0.282 C 
ENDBRANCH  52  54
ENDBRANCH  49  50
BRANCH  49  56
ATOM     56  C   UNL     1       0.622  -8.377  28.030  0.00  0.00    +0.012 C 
ATOM     57  C   UNL     1       0.907  -8.864  29.454  0.00  0.00    +0.009 C 
ATOM     58  C   UNL     1       0.505  -9.598  27.103  0.00  0.00    +0.009 C 
ENDBRANCH  49  56
ENDBRANCH  44  49
ENDBRANCH  39  42
ENDBRANCH  33  36
ENDBRANCH   4  30
TORSDOF 13
ENDMDL
MODEL 8
REMARK VINA RESULT:      -4.3      2.316      5.287
REMARK  Name = 
REMARK  19 active torsions:
REMARK  status: ('A' for Active; 'I' for Inactive)
REMARK    1  A    between atoms: C_1  and  C_2
REMARK    2  A    between atoms: C_2  and  C_3
REMARK    3  A    between atoms: C_2  and  C_4
REMARK    4  A    between atoms: C_4  and  C_6
REMARK    5  A    between atoms: C_4  and  N_54
REMARK    6  A    between atoms: C_12  and  C_14
REMARK    7  A    between atoms: C_17  and  C_19
REMARK    8  A    between atoms: C_22  and  C_25
REMARK    9  A    between atoms: C_28  and  C_31
REMARK   10  A    between atoms: C_34  and  C_36
REMARK   11  A    between atoms: C_42  and  C_44
REMARK   12  A    between atoms: C_44  and  C_46
REMARK   13  A    between atoms: C_44  and  N_49
REMARK   14  A    between atoms: C_46  and  C_47
REMARK   15  A    between atoms: C_46  and  C_48
REMARK   16  A    between atoms: C_50  and  O_52
REMARK   17  A    between atoms: O_52  and  C_53
REMARK   18  A    between atoms: C_55  and  O_57
REMARK   19  A    between atoms: O_57  and  C_58
REMARK                            x       y       z     vdW  Elec       q    Type
REMARK                         _______ _______ _______ _____ _____    ______ ____
ROOT
ATOM      1  C   UNL     1       2.077  -1.571  27.472  0.00  0.00    -0.000 A 
ATOM      2  C   UNL     1       1.452  -0.356  27.777  0.00  0.00    +0.010 A 
ATOM      3  C   UNL     1       2.159   0.862  27.676  0.00  0.00    +0.009 A 
ATOM      4  C   UNL     1       3.517   0.910  27.301  0.00  0.00    -0.018 A 
ATOM      5  C   UNL     1       4.098  -0.308  26.917  0.00  0.00    +0.009 A 
ATOM      6  C   UNL     1       3.398  -1.519  27.004  0.00  0.00    +0.010 A 
ENDROOT
BRANCH   1  10
ATOM      7  C   UNL     1       1.162  -5.101  27.402  0.00  0.00    +0.128 A 
ATOM      8  N   UNL     1       1.590  -3.947  26.750  0.00  0.00    -0.340 N 
ATOM      9  H   UNL     1       2.180  -3.935  25.932  0.00  0.00    +0.167 HD
ATOM     10  C   UNL     1       1.415  -2.877  27.599  0.00  0.00    +0.066 A 
ATOM     11  C   UNL     1       0.581  -3.402  28.573  0.00  0.00    +0.139 A 
ATOM     12  N   UNL     1       0.443  -4.770  28.454  0.00  0.00    -0.238 NA
BRANCH   7  15
ATOM     13  C   UNL     1       4.375  -6.356  27.092  0.00  0.00    +0.237 C 
ATOM     14  N   UNL     1       3.147  -6.492  26.452  0.00  0.00    -0.290 N 
ATOM     15  C   UNL     1       1.792  -6.413  27.039  0.00  0.00    +0.142 C 
ATOM     16  C   UNL     1       0.878  -7.052  25.941  0.00  0.00    +0.032 C 
ATOM     17  C   UNL     1       1.797  -7.383  24.776  0.00  0.00    +0.021 C 
ATOM     18  C   UNL     1       3.123  -7.557  25.458  0.00  0.00    +0.108 C 
ATOM     19  O   UNL     1       5.287  -7.159  26.832  0.00  0.00    -0.274 OA
BRANCH  13  20
ATOM     20  C   UNL     1       4.702  -5.090  27.927  0.00  0.00    +0.165 C 
BRANCH  20  21
ATOM     21  N   UNL     1       6.149  -4.912  27.829  0.00  0.00    -0.270 N 
ATOM     22  H   UNL     1       6.775  -5.400  28.457  0.00  0.00    +0.153 HD
ATOM     23  C   UNL     1       6.701  -4.111  26.886  0.00  0.00    +0.401 C 
ATOM     24  O   UNL     1       6.073  -3.498  26.037  0.00  0.00    -0.226 OA
BRANCH  23  25
ATOM     25  O   UNL     1       8.047  -4.045  27.033  0.00  0.00    -0.454 OA
ATOM     26  C   UNL     1       8.709  -3.682  25.821  0.00  0.00    +0.282 C 
ENDBRANCH  23  25
ENDBRANCH  20  21
BRANCH  20  28
ATOM     27  C   UNL     1       3.923  -3.959  30.070  0.00  0.00    +0.009 C 
ATOM     28  C   UNL     1       4.260  -5.307  29.421  0.00  0.00    +0.012 C 
ATOM     29  C   UNL     1       5.273  -6.020  30.325  0.00  0.00    +0.009 C 
ENDBRANCH  20  28
ENDBRANCH  13  20
ENDBRANCH   7  15
ENDBRANCH   1  10
BRANCH   4  30
ATOM     30  C   UNL     1       4.357   2.128  27.473  0.00  0.00    -0.018 A 
ATOM     31  C   UNL     1       5.636   2.033  28.049  0.00  0.00    +0.009 A 
ATOM     32  C   UNL     1       6.564   3.074  27.957  0.00  0.00    +0.010 A 
ATOM     33  C   UNL     1       6.245   4.249  27.281  0.00  0.00    -0.000 A 
ATOM     34  C   UNL     1       4.938   4.419  26.817  0.00  0.00    +0.010 A 
ATOM     35  C   UNL     1       4.004   3.376  26.925  0.00  0.00    +0.009 A 
BRANCH  33  36
ATOM     36  C   UNL     1       7.295   5.218  26.990  0.00  0.00    +0.066 A 
ATOM     37  N   UNL     1       8.155   5.104  25.922  0.00  0.00    -0.340 N 
ATOM     38  H   UNL     1       8.118   4.384  25.215  0.00  0.00    +0.167 HD
ATOM     39  C   UNL     1       9.064   6.137  25.983  0.00  0.00    +0.128 A 
ATOM     40  N   UNL     1       8.863   6.862  27.055  0.00  0.00    -0.238 NA
ATOM     41  C   UNL     1       7.775   6.310  27.684  0.00  0.00    +0.139 A 
BRANCH  39  42
ATOM     42  C   UNL     1      10.037   6.345  24.875  0.00  0.00    +0.142 C 
ATOM     43  N   UNL     1      10.574   5.142  24.232  0.00  0.00    -0.290 N 
ATOM     44  C   UNL     1       9.927   4.122  23.546  0.00  0.00    +0.237 C 
ATOM     45  O   UNL     1      10.582   3.397  22.784  0.00  0.00    -0.274 OA
ATOM     46  C   UNL     1      12.009   5.294  24.009  0.00  0.00    +0.108 C 
ATOM     47  C   UNL     1      12.362   6.709  24.442  0.00  0.00    +0.021 C 
ATOM     48  C   UNL     1      11.287   7.029  25.459  0.00  0.00    +0.032 C 
BRANCH  44  49
ATOM     49  C   UNL     1       8.421   3.827  23.798  0.00  0.00    +0.165 C 
BRANCH  49  50
ATOM     50  N   UNL     1       8.273   2.408  24.124  0.00  0.00    -0.270 N 
ATOM     51  H   UNL     1       8.561   2.107  25.051  0.00  0.00    +0.153 HD
ATOM     52  C   UNL     1       8.258   1.408  23.196  0.00  0.00    +0.401 C 
ATOM     53  O   UNL     1       8.262   1.550  21.984  0.00  0.00    -0.226 OA
BRANCH  52  54
ATOM     54  O   UNL     1       8.251   0.207  23.828  0.00  0.00    -0.454 OA
ATOM     55  C   UNL     1       8.058  -0.910  22.956  0.00  0.00    +0.282 C 
ENDBRANCH  52  54
ENDBRANCH  49  50
BRANCH  49  56
ATOM     56  C   UNL     1       7.497   4.255  22.621  0.00  0.00    +0.012 C 
ATOM     57  C   UNL     1       7.685   5.728  22.245  0.00  0.00    +0.009 C 
ATOM     58  C   UNL     1       6.017   4.014  22.957  0.00  0.00    +0.009 C 
ENDBRANCH  49  56
ENDBRANCH  44  49
ENDBRANCH  39  42
ENDBRANCH  33  36
ENDBRANCH   4  30
TORSDOF 13
ENDMDL
