MODEL 1
REMARK VINA RESULT:      -6.0      0.000      0.000
REMARK  Name = 
REMARK  24 active torsions:
REMARK  status: ('A' for Active; 'I' for Inactive)
REMARK    1  A    between atoms: C_1  and  C_2
REMARK    2  A    between atoms: C_2  and  C_3
REMARK    3  A    between atoms: C_2  and  C_4
REMARK    4  A    between atoms: C_2  and  O_5
REMARK    5  A    between atoms: O_5  and  C_6
REMARK    6  A    between atoms: C_6  and  O_8
REMARK    7  A    between atoms: O_8  and  C_9
REMARK    8  A    between atoms: C_9  and  O_10
REMARK    9  A    between atoms: O_10  and  P_11
REMARK   10  A    between atoms: P_11  and  C_13
REMARK   11  A    between atoms: P_11  and  O_27
REMARK   12  A    between atoms: C_13  and  O_14
REMARK   13  A    between atoms: O_14  and  C_15
REMARK   14  A    between atoms: C_15  and  C_16
REMARK   15  A    between atoms: C_16  and  N_17
REMARK   16  A    between atoms: C_21  and  N_26
REMARK   17  A    between atoms: O_27  and  C_28
REMARK   18  A    between atoms: C_28  and  O_29
REMARK   19  A    between atoms: O_29  and  C_30
REMARK   20  A    between atoms: C_30  and  O_32
REMARK   21  A    between atoms: O_32  and  C_33
REMARK   22  A    between atoms: C_33  and  C_34
REMARK   23  A    between atoms: C_33  and  C_35
REMARK   24  A    between atoms: C_33  and  C_36
REMARK                            x       y       z     vdW  Elec       q    Type
REMARK                         _______ _______ _______ _____ _____    ______ ____
ROOT
ATOM      1  P   UNL     1       8.540  -4.228  25.283  0.00  0.00    +0.363 P 
ATOM      2  O   UNL     1       9.442  -4.906  26.322  0.00  0.00    -0.256 OA
ENDROOT
BRANCH   1   3
ATOM      3  C   UNL     1       8.301  -2.446  25.828  0.00  0.00    +0.286 C 
BRANCH   3   4
ATOM      4  O   UNL     1       7.033  -2.338  26.492  0.00  0.00    -0.366 OA
BRANCH   4   5
ATOM      5  C   UNL     1       6.333  -1.154  26.084  0.00  0.00    +0.182 C 
BRANCH   5   6
ATOM      6  C   UNL     1       5.734  -1.288  24.684  0.00  0.00    +0.153 C 
BRANCH   6   7
ATOM      7  N   UNL     1       4.989  -2.510  24.513  0.00  0.00    -0.313 N 
ATOM      8  C   UNL     1       5.215  -3.443  23.541  0.00  0.00    +0.165 A 
ATOM      9  C   UNL     1       4.279  -4.434  23.785  0.00  0.00    +0.147 A 
ATOM     10  C   UNL     1       4.285  -5.529  22.908  0.00  0.00    +0.147 A 
ATOM     11  N   UNL     1       5.211  -5.563  21.922  0.00  0.00    -0.219 NA
ATOM     12  C   UNL     1       6.067  -4.523  21.806  0.00  0.00    +0.225 A 
ATOM     13  N   UNL     1       3.517  -4.126  24.898  0.00  0.00    -0.231 NA
ATOM     14  N   UNL     1       6.137  -3.410  22.566  0.00  0.00    -0.216 NA
ATOM     15  C   UNL     1       3.980  -2.965  25.312  0.00  0.00    +0.201 A 
BRANCH  10  16
ATOM     16  N   UNL     1       3.398  -6.593  23.016  0.00  0.00    -0.341 N 
ATOM     17  H   UNL     1       2.902  -6.763  22.151  0.00  0.00    +0.144 HD
ATOM     18  H   UNL     1       3.793  -7.392  23.500  0.00  0.00    +0.144 HD
ENDBRANCH  10  16
ENDBRANCH   6   7
ENDBRANCH   5   6
ENDBRANCH   4   5
ENDBRANCH   3   4
ENDBRANCH   1   3
BRANCH   1  19
ATOM     19  O   UNL     1       7.144  -4.660  26.208  0.00  0.00    -0.268 OA
BRANCH  19  20
ATOM     20  C   UNL     1       7.398  -5.606  27.225  0.00  0.00    +0.410 C 
BRANCH  20  21
ATOM     21  O   UNL     1       6.758  -5.234  28.449  0.00  0.00    -0.406 OA
BRANCH  21  22
ATOM     22  C   UNL     1       6.071  -6.266  28.995  0.00  0.00    +0.513 C 
ATOM     23  O   UNL     1       6.449  -7.422  29.033  0.00  0.00    -0.203 OA
BRANCH  22  24
ATOM     24  O   UNL     1       4.867  -5.812  29.458  0.00  0.00    -0.428 OA
BRANCH  24  25
ATOM     25  C   UNL     1       3.660  -6.267  28.790  0.00  0.00    +0.109 C 
ATOM     26  C   UNL     1       3.943  -6.655  27.330  0.00  0.00    +0.055 C 
ATOM     27  C   UNL     1       2.686  -5.075  28.768  0.00  0.00    +0.055 C 
ATOM     28  C   UNL     1       2.994  -7.405  29.578  0.00  0.00    +0.055 C 
ENDBRANCH  24  25
ENDBRANCH  22  24
ENDBRANCH  21  22
ENDBRANCH  20  21
ENDBRANCH  19  20
ENDBRANCH   1  19
BRANCH   1  29
ATOM     29  O   UNL     1       9.936  -3.797  24.356  0.00  0.00    -0.268 OA
BRANCH  29  30
ATOM     30  C   UNL     1       9.887  -2.454  23.914  0.00  0.00    +0.410 C 
BRANCH  30  31
ATOM     31  O   UNL     1       9.302  -2.327  22.623  0.00  0.00    -0.406 OA
BRANCH  31  32
ATOM     32  C   UNL     1       9.580  -1.135  22.028  0.00  0.00    +0.513 C 
ATOM     33  O   UNL     1       9.212  -0.805  20.913  0.00  0.00    -0.203 OA
BRANCH  32  34
ATOM     34  O   UNL     1      10.351  -0.394  22.869  0.00  0.00    -0.428 OA
BRANCH  34  36
ATOM     35  C   UNL     1       8.463   0.941  23.687  0.00  0.00    +0.055 C 
ATOM     36  C   UNL     1       9.923   0.951  23.216  0.00  0.00    +0.109 C 
ATOM     37  C   UNL     1      10.801   1.396  24.400  0.00  0.00    +0.055 C 
ATOM     38  C   UNL     1      10.156   1.941  22.066  0.00  0.00    +0.055 C 
ENDBRANCH  34  36
ENDBRANCH  32  34
ENDBRANCH  31  32
ENDBRANCH  30  31
ENDBRANCH  29  30
ENDBRANCH   1  29
TORSDOF 18
ENDMDL
MODEL 2
REMARK VINA RESULT:      -6.0      3.202      5.138
REMARK  Name = 
REMARK  24 active torsions:
REMARK  status: ('A' for Active; 'I' for Inactive)
REMARK    1  A    between atoms: C_1  and  C_2
REMARK    2  A    between atoms: C_2  and  C_3
REMARK    3  A    between atoms: C_2  and  C_4
REMARK    4  A    between atoms: C_2  and  O_5
REMARK    5  A    between atoms: O_5  and  C_6
REMARK    6  A    between atoms: C_6  and  O_8
REMARK    7  A    between atoms: O_8  and  C_9
REMARK    8  A    between atoms: C_9  and  O_10
REMARK    9  A    between atoms: O_10  and  P_11
REMARK   10  A    between atoms: P_11  and  C_13
REMARK   11  A    between atoms: P_11  and  O_27
REMARK   12  A    between atoms: C_13  and  O_14
REMARK   13  A    between atoms: O_14  and  C_15
REMARK   14  A    between atoms: C_15  and  C_16
REMARK   15  A    between atoms: C_16  and  N_17
REMARK   16  A    between atoms: C_21  and  N_26
REMARK   17  A    between atoms: O_27  and  C_28
REMARK   18  A    between atoms: C_28  and  O_29
REMARK   19  A    between atoms: O_29  and  C_30
REMARK   20  A    between atoms: C_30  and  O_32
REMARK   21  A    between atoms: O_32  and  C_33
REMARK   22  A    between atoms: C_33  and  C_34
REMARK   23  A    between atoms: C_33  and  C_35
REMARK   24  A    between atoms: C_33  and  C_36
REMARK                            x       y       z     vdW  Elec       q    Type
REMARK                         _______ _______ _______ _____ _____    ______ ____
ROOT
ATOM      1  P   UNL     1       8.806  -1.026  22.841  0.00  0.00    +0.363 P 
ATOM      2  O   UNL     1      10.032  -0.796  21.948  0.00  0.00    -0.256 OA
ENDROOT
BRANCH   1   3
ATOM      3  C   UNL     1       9.414  -1.831  24.427  0.00  0.00    +0.286 C 
BRANCH   3   4
ATOM      4  O   UNL     1       9.167  -0.932  25.518  0.00  0.00    -0.366 OA
BRANCH   4   5
ATOM      5  C   UNL     1       8.611  -1.624  26.645  0.00  0.00    +0.182 C 
BRANCH   5   6
ATOM      6  C   UNL     1       7.228  -2.202  26.346  0.00  0.00    +0.153 C 
BRANCH   6   7
ATOM      7  N   UNL     1       7.095  -3.573  26.771  0.00  0.00    -0.313 N 
ATOM      8  C   UNL     1       6.037  -4.086  27.466  0.00  0.00    +0.165 A 
ATOM      9  C   UNL     1       6.343  -5.426  27.628  0.00  0.00    +0.147 A 
ATOM     10  C   UNL     1       5.409  -6.201  28.333  0.00  0.00    +0.147 A 
ATOM     11  N   UNL     1       4.275  -5.606  28.770  0.00  0.00    -0.219 NA
ATOM     12  C   UNL     1       4.109  -4.284  28.536  0.00  0.00    +0.225 A 
ATOM     13  N   UNL     1       7.548  -5.732  27.020  0.00  0.00    -0.231 NA
ATOM     14  N   UNL     1       4.944  -3.438  27.900  0.00  0.00    -0.216 NA
ATOM     15  C   UNL     1       7.965  -4.592  26.508  0.00  0.00    +0.201 A 
BRANCH  10  16
ATOM     16  N   UNL     1       5.583  -7.554  28.587  0.00  0.00    -0.341 N 
ATOM     17  H   UNL     1       6.263  -7.973  27.967  0.00  0.00    +0.144 HD
ATOM     18  H   UNL     1       5.651  -7.768  29.577  0.00  0.00    +0.144 HD
ENDBRANCH  10  16
ENDBRANCH   6   7
ENDBRANCH   5   6
ENDBRANCH   4   5
ENDBRANCH   3   4
ENDBRANCH   1   3
BRANCH   1  19
ATOM     19  O   UNL     1       8.605  -2.605  22.162  0.00  0.00    -0.268 OA
BRANCH  19  20
ATOM     20  C   UNL     1       7.728  -3.437  22.890  0.00  0.00    +0.410 C 
BRANCH  20  21
ATOM     21  O   UNL     1       6.386  -3.325  22.406  0.00  0.00    -0.406 OA
BRANCH  21  22
ATOM     22  C   UNL     1       5.910  -4.510  21.954  0.00  0.00    +0.513 C 
ATOM     23  O   UNL     1       6.564  -5.355  21.371  0.00  0.00    -0.203 OA
BRANCH  22  24
ATOM     24  O   UNL     1       4.571  -4.588  22.218  0.00  0.00    -0.428 OA
BRANCH  24  25
ATOM     25  C   UNL     1       4.158  -5.024  23.541  0.00  0.00    +0.109 C 
ATOM     26  C   UNL     1       5.189  -5.980  24.161  0.00  0.00    +0.055 C 
ATOM     27  C   UNL     1       2.849  -5.814  23.361  0.00  0.00    +0.055 C 
ATOM     28  C   UNL     1       3.860  -3.819  24.446  0.00  0.00    +0.055 C 
ENDBRANCH  24  25
ENDBRANCH  22  24
ENDBRANCH  21  22
ENDBRANCH  20  21
ENDBRANCH  19  20
ENDBRANCH   1  19
BRANCH   1  29
ATOM     29  O   UNL     1       9.007   0.552  23.519  0.00  0.00    -0.268 OA
BRANCH  29  30
ATOM     30  C   UNL     1      10.105   1.239  22.951  0.00  0.00    +0.410 C 
BRANCH  30  31
ATOM     31  O   UNL     1      10.733   2.120  23.876  0.00  0.00    -0.406 OA
BRANCH  31  32
ATOM     32  C   UNL     1      10.765   3.410  23.444  0.00  0.00    +0.513 C 
ATOM     33  O   UNL     1      11.722   4.160  23.543  0.00  0.00    -0.203 OA
BRANCH  32  34
ATOM     34  O   UNL     1       9.553   3.725  22.912  0.00  0.00    -0.428 OA
BRANCH  34  36
ATOM     35  C   UNL     1       9.196   6.106  23.379  0.00  0.00    +0.055 C 
ATOM     36  C   UNL     1       8.702   4.673  23.612  0.00  0.00    +0.109 C 
ATOM     37  C   UNL     1       7.301   4.547  22.985  0.00  0.00    +0.055 C 
ATOM     38  C   UNL     1       8.575   4.337  25.105  0.00  0.00    +0.055 C 
ENDBRANCH  34  36
ENDBRANCH  32  34
ENDBRANCH  31  32
ENDBRANCH  30  31
ENDBRANCH  29  30
ENDBRANCH   1  29
TORSDOF 18
ENDMDL
MODEL 3
REMARK VINA RESULT:      -6.0      3.025      4.299
REMARK  Name = 
REMARK  24 active torsions:
REMARK  status: ('A' for Active; 'I' for Inactive)
REMARK    1  A    between atoms: C_1  and  C_2
REMARK    2  A    between atoms: C_2  and  C_3
REMARK    3  A    between atoms: C_2  and  C_4
REMARK    4  A    between atoms: C_2  and  O_5
REMARK    5  A    between atoms: O_5  and  C_6
REMARK    6  A    between atoms: C_6  and  O_8
REMARK    7  A    between atoms: O_8  and  C_9
REMARK    8  A    between atoms: C_9  and  O_10
REMARK    9  A    between atoms: O_10  and  P_11
REMARK   10  A    between atoms: P_11  and  C_13
REMARK   11  A    between atoms: P_11  and  O_27
REMARK   12  A    between atoms: C_13  and  O_14
REMARK   13  A    between atoms: O_14  and  C_15
REMARK   14  A    between atoms: C_15  and  C_16
REMARK   15  A    between atoms: C_16  and  N_17
REMARK   16  A    between atoms: C_21  and  N_26
REMARK   17  A    between atoms: O_27  and  C_28
REMARK   18  A    between atoms: C_28  and  O_29
REMARK   19  A    between atoms: O_29  and  C_30
REMARK   20  A    between atoms: C_30  and  O_32
REMARK   21  A    between atoms: O_32  and  C_33
REMARK   22  A    between atoms: C_33  and  C_34
REMARK   23  A    between atoms: C_33  and  C_35
REMARK   24  A    between atoms: C_33  and  C_36
REMARK                            x       y       z     vdW  Elec       q    Type
REMARK                         _______ _______ _______ _____ _____    ______ ____
ROOT
ATOM      1  P   UNL     1       5.716  -3.366  22.771  0.00  0.00    +0.363 P 
ATOM      2  O   UNL     1       6.683  -4.493  23.157  0.00  0.00    -0.256 OA
ENDROOT
BRANCH   1   3
ATOM      3  C   UNL     1       4.691  -2.966  24.294  0.00  0.00    +0.286 C 
BRANCH   3   4
ATOM      4  O   UNL     1       5.065  -1.663  24.766  0.00  0.00    -0.366 OA
BRANCH   4   5
ATOM      5  C   UNL     1       4.674  -1.475  26.134  0.00  0.00    +0.182 C 
BRANCH   5   6
ATOM      6  C   UNL     1       5.871  -1.219  27.049  0.00  0.00    +0.153 C 
BRANCH   6   7
ATOM      7  N   UNL     1       7.036  -1.974  26.665  0.00  0.00    -0.313 N 
ATOM      8  C   UNL     1       7.185  -3.325  26.808  0.00  0.00    +0.165 A 
ATOM      9  C   UNL     1       8.440  -3.594  26.290  0.00  0.00    +0.147 A 
ATOM     10  C   UNL     1       8.858  -4.933  26.324  0.00  0.00    +0.147 A 
ATOM     11  N   UNL     1       8.007  -5.863  26.818  0.00  0.00    -0.219 NA
ATOM     12  C   UNL     1       6.807  -5.452  27.288  0.00  0.00    +0.225 A 
ATOM     13  N   UNL     1       9.034  -2.438  25.814  0.00  0.00    -0.231 NA
ATOM     14  N   UNL     1       6.312  -4.199  27.334  0.00  0.00    -0.216 NA
ATOM     15  C   UNL     1       8.154  -1.487  26.051  0.00  0.00    +0.201 A 
BRANCH  10  16
ATOM     16  N   UNL     1      10.094  -5.355  25.854  0.00  0.00    -0.341 N 
ATOM     17  H   UNL     1      10.826  -4.687  26.058  0.00  0.00    +0.144 HD
ATOM     18  H   UNL     1      10.280  -6.334  26.048  0.00  0.00    +0.144 HD
ENDBRANCH  10  16
ENDBRANCH   6   7
ENDBRANCH   5   6
ENDBRANCH   4   5
ENDBRANCH   3   4
ENDBRANCH   1   3
BRANCH   1  19
ATOM     19  O   UNL     1       4.525  -4.539  22.323  0.00  0.00    -0.268 OA
BRANCH  19  20
ATOM     20  C   UNL     1       3.804  -5.072  23.413  0.00  0.00    +0.410 C 
BRANCH  20  21
ATOM     21  O   UNL     1       3.739  -6.499  23.343  0.00  0.00    -0.406 OA
BRANCH  21  22
ATOM     22  C   UNL     1       3.641  -7.063  24.571  0.00  0.00    +0.513 C 
ATOM     23  O   UNL     1       4.019  -6.556  25.610  0.00  0.00    -0.203 OA
BRANCH  22  24
ATOM     24  O   UNL     1       3.089  -8.308  24.452  0.00  0.00    -0.428 OA
BRANCH  24  25
ATOM     25  C   UNL     1       1.640  -8.417  24.442  0.00  0.00    +0.109 C 
ATOM     26  C   UNL     1       0.988  -7.271  25.231  0.00  0.00    +0.055 C 
ATOM     27  C   UNL     1       1.287  -9.731  25.163  0.00  0.00    +0.055 C 
ATOM     28  C   UNL     1       1.108  -8.512  23.003  0.00  0.00    +0.055 C 
ENDBRANCH  24  25
ENDBRANCH  22  24
ENDBRANCH  21  22
ENDBRANCH  20  21
ENDBRANCH  19  20
ENDBRANCH   1  19
BRANCH   1  29
ATOM     29  O   UNL     1       6.907  -2.194  23.218  0.00  0.00    -0.268 OA
BRANCH  29  30
ATOM     30  C   UNL     1       7.990  -2.163  22.308  0.00  0.00    +0.410 C 
BRANCH  30  31
ATOM     31  O   UNL     1       8.485  -0.845  22.096  0.00  0.00    -0.406 OA
BRANCH  31  32
ATOM     32  C   UNL     1       9.811  -0.724  22.377  0.00  0.00    +0.513 C 
ATOM     33  O   UNL     1      10.557  -1.650  22.653  0.00  0.00    -0.203 OA
BRANCH  32  34
ATOM     34  O   UNL     1      10.153   0.591  22.324  0.00  0.00    -0.428 OA
BRANCH  34  36
ATOM     35  C   UNL     1       8.596   1.495  23.990  0.00  0.00    +0.055 C 
ATOM     36  C   UNL     1      10.056   1.393  23.532  0.00  0.00    +0.109 C 
ATOM     37  C   UNL     1      10.842   0.639  24.621  0.00  0.00    +0.055 C 
ATOM     38  C   UNL     1      10.709   2.772  23.359  0.00  0.00    +0.055 C 
ENDBRANCH  34  36
ENDBRANCH  32  34
ENDBRANCH  31  32
ENDBRANCH  30  31
ENDBRANCH  29  30
ENDBRANCH   1  29
TORSDOF 18
ENDMDL
MODEL 4
REMARK VINA RESULT:      -5.9      3.268      6.553
REMARK  Name = 
REMARK  24 active torsions:
REMARK  status: ('A' for Active; 'I' for Inactive)
REMARK    1  A    between atoms: C_1  and  C_2
REMARK    2  A    between atoms: C_2  and  C_3
REMARK    3  A    between atoms: C_2  and  C_4
REMARK    4  A    between atoms: C_2  and  O_5
REMARK    5  A    between atoms: O_5  and  C_6
REMARK    6  A    between atoms: C_6  and  O_8
REMARK    7  A    between atoms: O_8  and  C_9
REMARK    8  A    between atoms: C_9  and  O_10
REMARK    9  A    between atoms: O_10  and  P_11
REMARK   10  A    between atoms: P_11  and  C_13
REMARK   11  A    between atoms: P_11  and  O_27
REMARK   12  A    between atoms: C_13  and  O_14
REMARK   13  A    between atoms: O_14  and  C_15
REMARK   14  A    between atoms: C_15  and  C_16
REMARK   15  A    between atoms: C_16  and  N_17
REMARK   16  A    between atoms: C_21  and  N_26
REMARK   17  A    between atoms: O_27  and  C_28
REMARK   18  A    between atoms: C_28  and  O_29
REMARK   19  A    between atoms: O_29  and  C_30
REMARK   20  A    between atoms: C_30  and  O_32
REMARK   21  A    between atoms: O_32  and  C_33
REMARK   22  A    between atoms: C_33  and  C_34
REMARK   23  A    between atoms: C_33  and  C_35
REMARK   24  A    between atoms: C_33  and  C_36
REMARK                            x       y       z     vdW  Elec       q    Type
REMARK                         _______ _______ _______ _____ _____    ______ ____
ROOT
ATOM      1  P   UNL     1       5.744  -0.855  26.029  0.00  0.00    +0.363 P 
ATOM      2  O   UNL     1       5.465  -1.269  24.579  0.00  0.00    -0.256 OA
ENDROOT
BRANCH   1   3
ATOM      3  C   UNL     1       4.753  -2.002  27.139  0.00  0.00    +0.286 C 
BRANCH   3   4
ATOM      4  O   UNL     1       3.976  -2.880  26.310  0.00  0.00    -0.366 OA
BRANCH   4   5
ATOM      5  C   UNL     1       3.594  -4.064  27.024  0.00  0.00    +0.182 C 
BRANCH   5   6
ATOM      6  C   UNL     1       4.176  -5.332  26.399  0.00  0.00    +0.153 C 
BRANCH   6   7
ATOM      7  N   UNL     1       5.606  -5.420  26.551  0.00  0.00    -0.313 N 
ATOM      8  C   UNL     1       6.520  -5.243  25.552  0.00  0.00    +0.165 A 
ATOM      9  C   UNL     1       7.749  -5.404  26.169  0.00  0.00    +0.147 A 
ATOM     10  C   UNL     1       8.882  -5.282  25.351  0.00  0.00    +0.147 A 
ATOM     11  N   UNL     1       8.705  -4.984  24.042  0.00  0.00    -0.219 NA
ATOM     12  C   UNL     1       7.442  -4.852  23.577  0.00  0.00    +0.225 A 
ATOM     13  N   UNL     1       7.590  -5.646  27.523  0.00  0.00    -0.231 NA
ATOM     14  N   UNL     1       6.284  -4.975  24.258  0.00  0.00    -0.216 NA
ATOM     15  C   UNL     1       6.287  -5.639  27.715  0.00  0.00    +0.201 A 
BRANCH  10  16
ATOM     16  N   UNL     1      10.179  -5.431  25.823  0.00  0.00    -0.341 N 
ATOM     17  H   UNL     1      10.727  -6.049  25.240  0.00  0.00    +0.144 HD
ATOM     18  H   UNL     1      10.601  -4.554  26.110  0.00  0.00    +0.144 HD
ENDBRANCH  10  16
ENDBRANCH   6   7
ENDBRANCH   5   6
ENDBRANCH   4   5
ENDBRANCH   3   4
ENDBRANCH   1   3
BRANCH   1  19
ATOM     19  O   UNL     1       4.386   0.217  25.987  0.00  0.00    -0.268 OA
BRANCH  19  20
ATOM     20  C   UNL     1       4.728   1.572  25.794  0.00  0.00    +0.410 C 
BRANCH  20  21
ATOM     21  O   UNL     1       4.461   1.987  24.451  0.00  0.00    -0.406 OA
BRANCH  21  22
ATOM     22  C   UNL     1       5.589   2.368  23.805  0.00  0.00    +0.513 C 
ATOM     23  O   UNL     1       6.136   1.742  22.916  0.00  0.00    -0.203 OA
BRANCH  22  24
ATOM     24  O   UNL     1       6.040   3.543  24.338  0.00  0.00    -0.428 OA
BRANCH  24  25
ATOM     25  C   UNL     1       6.030   4.726  23.494  0.00  0.00    +0.109 C 
ATOM     26  C   UNL     1       7.036   4.597  22.340  0.00  0.00    +0.055 C 
ATOM     27  C   UNL     1       6.488   5.904  24.373  0.00  0.00    +0.055 C 
ATOM     28  C   UNL     1       4.608   5.034  22.998  0.00  0.00    +0.055 C 
ENDBRANCH  24  25
ENDBRANCH  22  24
ENDBRANCH  21  22
ENDBRANCH  20  21
ENDBRANCH  19  20
ENDBRANCH   1  19
BRANCH   1  29
ATOM     29  O   UNL     1       7.103  -1.925  26.071  0.00  0.00    -0.268 OA
BRANCH  29  30
ATOM     30  C   UNL     1       8.332  -1.224  26.087  0.00  0.00    +0.410 C 
BRANCH  30  31
ATOM     31  O   UNL     1       9.260  -1.732  25.136  0.00  0.00    -0.406 OA
BRANCH  31  32
ATOM     32  C   UNL     1       9.103  -1.190  23.897  0.00  0.00    +0.513 C 
ATOM     33  O   UNL     1       9.283  -1.782  22.845  0.00  0.00    -0.203 OA
BRANCH  32  34
ATOM     34  O   UNL     1       8.742   0.114  24.031  0.00  0.00    -0.428 OA
BRANCH  34  36
ATOM     35  C   UNL     1      11.111   0.681  24.317  0.00  0.00    +0.055 C 
ATOM     36  C   UNL     1       9.740   1.147  23.811  0.00  0.00    +0.109 C 
ATOM     37  C   UNL     1       9.838   1.342  22.287  0.00  0.00    +0.055 C 
ATOM     38  C   UNL     1       9.320   2.491  24.426  0.00  0.00    +0.055 C 
ENDBRANCH  34  36
ENDBRANCH  32  34
ENDBRANCH  31  32
ENDBRANCH  30  31
ENDBRANCH  29  30
ENDBRANCH   1  29
TORSDOF 18
ENDMDL
MODEL 5
REMARK VINA RESULT:      -5.9      2.840      4.109
REMARK  Name = 
REMARK  24 active torsions:
REMARK  status: ('A' for Active; 'I' for Inactive)
REMARK    1  A    between atoms: C_1  and  C_2
REMARK    2  A    between atoms: C_2  and  C_3
REMARK    3  A    between atoms: C_2  and  C_4
REMARK    4  A    between atoms: C_2  and  O_5
REMARK    5  A    between atoms: O_5  and  C_6
REMARK    6  A    between atoms: C_6  and  O_8
REMARK    7  A    between atoms: O_8  and  C_9
REMARK    8  A    between atoms: C_9  and  O_10
REMARK    9  A    between atoms: O_10  and  P_11
REMARK   10  A    between atoms: P_11  and  C_13
REMARK   11  A    between atoms: P_11  and  O_27
REMARK   12  A    between atoms: C_13  and  O_14
REMARK   13  A    between atoms: O_14  and  C_15
REMARK   14  A    between atoms: C_15  and  C_16
REMARK   15  A    between atoms: C_16  and  N_17
REMARK   16  A    between atoms: C_21  and  N_26
REMARK   17  A    between atoms: O_27  and  C_28
REMARK   18  A    between atoms: C_28  and  O_29
REMARK   19  A    between atoms: O_29  and  C_30
REMARK   20  A    between atoms: C_30  and  O_32
REMARK   21  A    between atoms: O_32  and  C_33
REMARK   22  A    between atoms: C_33  and  C_34
REMARK   23  A    between atoms: C_33  and  C_35
REMARK   24  A    between atoms: C_33  and  C_36
REMARK                            x       y       z     vdW  Elec       q    Type
REMARK                         _______ _______ _______ _____ _____    ______ ____
ROOT
ATOM      1  P   UNL     1       7.846  -2.725  22.657  0.00  0.00    +0.363 P 
ATOM      2  O   UNL     1       7.980  -4.043  23.431  0.00  0.00    -0.256 OA
ENDROOT
BRANCH   1   3
ATOM      3  C   UNL     1       6.454  -1.747  23.455  0.00  0.00    +0.286 C 
BRANCH   3   4
ATOM      4  O   UNL     1       7.002  -0.961  24.523  0.00  0.00    -0.366 OA
BRANCH   4   5
ATOM      5  C   UNL     1       5.973  -0.500  25.410  0.00  0.00    +0.182 C 
BRANCH   5   6
ATOM      6  C   UNL     1       6.125  -1.070  26.821  0.00  0.00    +0.153 C 
BRANCH   6   7
ATOM      7  N   UNL     1       5.600  -2.407  26.939  0.00  0.00    -0.313 N 
ATOM      8  C   UNL     1       6.344  -3.552  26.921  0.00  0.00    +0.165 A 
ATOM      9  C   UNL     1       5.421  -4.571  27.082  0.00  0.00    +0.147 A 
ATOM     10  C   UNL     1       5.927  -5.879  27.088  0.00  0.00    +0.147 A 
ATOM     11  N   UNL     1       7.264  -6.056  26.975  0.00  0.00    -0.219 NA
ATOM     12  C   UNL     1       8.047  -4.963  26.826  0.00  0.00    +0.225 A 
ATOM     13  N   UNL     1       4.144  -4.058  27.225  0.00  0.00    -0.231 NA
ATOM     14  N   UNL     1       7.674  -3.668  26.776  0.00  0.00    -0.216 NA
ATOM     15  C   UNL     1       4.295  -2.752  27.142  0.00  0.00    +0.201 A 
BRANCH  10  16
ATOM     16  N   UNL     1       5.124  -7.004  27.227  0.00  0.00    -0.341 N 
ATOM     17  H   UNL     1       5.653  -7.862  27.143  0.00  0.00    +0.144 HD
ATOM     18  H   UNL     1       4.464  -6.928  27.994  0.00  0.00    +0.144 HD
ENDBRANCH  10  16
ENDBRANCH   6   7
ENDBRANCH   5   6
ENDBRANCH   4   5
ENDBRANCH   3   4
ENDBRANCH   1   3
BRANCH   1  19
ATOM     19  O   UNL     1       6.681  -3.457  21.608  0.00  0.00    -0.268 OA
BRANCH  19  20
ATOM     20  C   UNL     1       6.194  -4.700  22.067  0.00  0.00    +0.410 C 
BRANCH  20  21
ATOM     21  O   UNL     1       4.783  -4.650  22.296  0.00  0.00    -0.406 OA
BRANCH  21  22
ATOM     22  C   UNL     1       4.352  -5.699  23.037  0.00  0.00    +0.513 C 
ATOM     23  O   UNL     1       4.975  -6.225  23.940  0.00  0.00    -0.203 OA
BRANCH  22  24
ATOM     24  O   UNL     1       3.128  -6.101  22.581  0.00  0.00    -0.428 OA
BRANCH  24  25
ATOM     25  C   UNL     1       1.987  -5.968  23.472  0.00  0.00    +0.109 C 
ATOM     26  C   UNL     1       1.838  -7.203  24.375  0.00  0.00    +0.055 C 
ATOM     27  C   UNL     1       0.733  -5.895  22.582  0.00  0.00    +0.055 C 
ATOM     28  C   UNL     1       2.071  -4.662  24.277  0.00  0.00    +0.055 C 
ENDBRANCH  24  25
ENDBRANCH  22  24
ENDBRANCH  21  22
ENDBRANCH  20  21
ENDBRANCH  19  20
ENDBRANCH   1  19
BRANCH   1  29
ATOM     29  O   UNL     1       9.012  -1.994  23.705  0.00  0.00    -0.268 OA
BRANCH  29  30
ATOM     30  C   UNL     1      10.136  -1.511  22.995  0.00  0.00    +0.410 C 
BRANCH  30  31
ATOM     31  O   UNL     1      10.131  -0.094  22.868  0.00  0.00    -0.406 OA
BRANCH  31  32
ATOM     32  C   UNL     1      10.299   0.548  24.056  0.00  0.00    +0.513 C 
ATOM     33  O   UNL     1      11.235   0.375  24.820  0.00  0.00    -0.203 OA
BRANCH  32  34
ATOM     34  O   UNL     1       9.245   1.384  24.257  0.00  0.00    -0.428 OA
BRANCH  34  36
ATOM     35  C   UNL     1       8.384   2.734  22.399  0.00  0.00    +0.055 C 
ATOM     36  C   UNL     1       9.269   2.705  23.652  0.00  0.00    +0.109 C 
ATOM     37  C   UNL     1       8.659   3.670  24.685  0.00  0.00    +0.055 C 
ATOM     38  C   UNL     1      10.702   3.178  23.363  0.00  0.00    +0.055 C 
ENDBRANCH  34  36
ENDBRANCH  32  34
ENDBRANCH  31  32
ENDBRANCH  30  31
ENDBRANCH  29  30
ENDBRANCH   1  29
TORSDOF 18
ENDMDL
MODEL 6
REMARK VINA RESULT:      -5.9      2.483      6.982
REMARK  Name = 
REMARK  24 active torsions:
REMARK  status: ('A' for Active; 'I' for Inactive)
REMARK    1  A    between atoms: C_1  and  C_2
REMARK    2  A    between atoms: C_2  and  C_3
REMARK    3  A    between atoms: C_2  and  C_4
REMARK    4  A    between atoms: C_2  and  O_5
REMARK    5  A    between atoms: O_5  and  C_6
REMARK    6  A    between atoms: C_6  and  O_8
REMARK    7  A    between atoms: O_8  and  C_9
REMARK    8  A    between atoms: C_9  and  O_10
REMARK    9  A    between atoms: O_10  and  P_11
REMARK   10  A    between atoms: P_11  and  C_13
REMARK   11  A    between atoms: P_11  and  O_27
REMARK   12  A    between atoms: C_13  and  O_14
REMARK   13  A    between atoms: O_14  and  C_15
REMARK   14  A    between atoms: C_15  and  C_16
REMARK   15  A    between atoms: C_16  and  N_17
REMARK   16  A    between atoms: C_21  and  N_26
REMARK   17  A    between atoms: O_27  and  C_28
REMARK   18  A    between atoms: C_28  and  O_29
REMARK   19  A    between atoms: O_29  and  C_30
REMARK   20  A    between atoms: C_30  and  O_32
REMARK   21  A    between atoms: O_32  and  C_33
REMARK   22  A    between atoms: C_33  and  C_34
REMARK   23  A    between atoms: C_33  and  C_35
REMARK   24  A    between atoms: C_33  and  C_36
REMARK                            x       y       z     vdW  Elec       q    Type
REMARK                         _______ _______ _______ _____ _____    ______ ____
ROOT
ATOM      1  P   UNL     1       9.006  -2.602  23.826  0.00  0.00    +0.363 P 
ATOM      2  O   UNL     1      10.297  -3.395  24.066  0.00  0.00    -0.256 OA
ENDROOT
BRANCH   1   3
ATOM      3  C   UNL     1       7.723  -3.808  23.171  0.00  0.00    +0.286 C 
BRANCH   3   4
ATOM      4  O   UNL     1       6.448  -3.149  23.143  0.00  0.00    -0.366 OA
BRANCH   4   5
ATOM      5  C   UNL     1       5.372  -4.097  23.183  0.00  0.00    +0.182 C 
BRANCH   5   6
ATOM      6  C   UNL     1       5.863  -5.521  23.441  0.00  0.00    +0.153 C 
BRANCH   6   7
ATOM      7  N   UNL     1       5.258  -6.114  24.606  0.00  0.00    -0.313 N 
ATOM      8  C   UNL     1       5.756  -6.047  25.877  0.00  0.00    +0.165 A 
ATOM      9  C   UNL     1       4.837  -6.737  26.648  0.00  0.00    +0.147 A 
ATOM     10  C   UNL     1       5.117  -6.832  28.020  0.00  0.00    +0.147 A 
ATOM     11  N   UNL     1       6.228  -6.222  28.496  0.00  0.00    -0.219 NA
ATOM     12  C   UNL     1       7.034  -5.579  27.622  0.00  0.00    +0.225 A 
ATOM     13  N   UNL     1       3.786  -7.193  25.872  0.00  0.00    -0.231 NA
ATOM     14  N   UNL     1       6.884  -5.448  26.288  0.00  0.00    -0.216 NA
ATOM     15  C   UNL     1       4.072  -6.790  24.651  0.00  0.00    +0.201 A 
BRANCH  10  16
ATOM     16  N   UNL     1       4.298  -7.504  28.918  0.00  0.00    -0.341 N 
ATOM     17  H   UNL     1       4.222  -8.488  28.699  0.00  0.00    +0.144 HD
ATOM     18  H   UNL     1       4.471  -7.245  29.884  0.00  0.00    +0.144 HD
ENDBRANCH  10  16
ENDBRANCH   6   7
ENDBRANCH   5   6
ENDBRANCH   4   5
ENDBRANCH   3   4
ENDBRANCH   1   3
BRANCH   1  19
ATOM     19  O   UNL     1       9.495  -2.294  22.196  0.00  0.00    -0.268 OA
BRANCH  19  20
ATOM     20  C   UNL     1       8.985  -1.092  21.659  0.00  0.00    +0.410 C 
BRANCH  20  21
ATOM     21  O   UNL     1       9.958  -0.045  21.722  0.00  0.00    -0.406 OA
BRANCH  21  22
ATOM     22  C   UNL     1       9.389   1.181  21.626  0.00  0.00    +0.513 C 
ATOM     23  O   UNL     1       8.243   1.400  21.282  0.00  0.00    -0.203 OA
BRANCH  22  24
ATOM     24  O   UNL     1      10.318   2.135  21.936  0.00  0.00    -0.428 OA
BRANCH  24  25
ATOM     25  C   UNL     1      10.317   2.681  23.283  0.00  0.00    +0.109 C 
ATOM     26  C   UNL     1      10.337   1.563  24.338  0.00  0.00    +0.055 C 
ATOM     27  C   UNL     1       8.993   3.448  23.452  0.00  0.00    +0.055 C 
ATOM     28  C   UNL     1      11.468   3.681  23.469  0.00  0.00    +0.055 C 
ENDBRANCH  24  25
ENDBRANCH  22  24
ENDBRANCH  21  22
ENDBRANCH  20  21
ENDBRANCH  19  20
ENDBRANCH   1  19
BRANCH   1  29
ATOM     29  O   UNL     1       8.518  -2.909  25.458  0.00  0.00    -0.268 OA
BRANCH  29  30
ATOM     30  C   UNL     1       8.073  -1.735  26.109  0.00  0.00    +0.410 C 
BRANCH  30  31
ATOM     31  O   UNL     1       7.508  -0.792  25.206  0.00  0.00    -0.406 OA
BRANCH  31  32
ATOM     32  C   UNL     1       6.308  -0.306  25.626  0.00  0.00    +0.513 C 
ATOM     33  O   UNL     1       5.334  -0.132  24.912  0.00  0.00    -0.203 OA
BRANCH  32  34
ATOM     34  O   UNL     1       6.388  -0.027  26.954  0.00  0.00    -0.428 OA
BRANCH  34  36
ATOM     35  C   UNL     1       4.875   1.817  27.528  0.00  0.00    +0.055 C 
ATOM     36  C   UNL     1       6.333   1.359  27.388  0.00  0.00    +0.109 C 
ATOM     37  C   UNL     1       6.981   1.406  28.784  0.00  0.00    +0.055 C 
ATOM     38  C   UNL     1       7.146   2.281  26.466  0.00  0.00    +0.055 C 
ENDBRANCH  34  36
ENDBRANCH  32  34
ENDBRANCH  31  32
ENDBRANCH  30  31
ENDBRANCH  29  30
ENDBRANCH   1  29
TORSDOF 18
ENDMDL
MODEL 7
REMARK VINA RESULT:      -5.8      2.907      5.591
REMARK  Name = 
REMARK  24 active torsions:
REMARK  status: ('A' for Active; 'I' for Inactive)
REMARK    1  A    between atoms: C_1  and  C_2
REMARK    2  A    between atoms: C_2  and  C_3
REMARK    3  A    between atoms: C_2  and  C_4
REMARK    4  A    between atoms: C_2  and  O_5
REMARK    5  A    between atoms: O_5  and  C_6
REMARK    6  A    between atoms: C_6  and  O_8
REMARK    7  A    between atoms: O_8  and  C_9
REMARK    8  A    between atoms: C_9  and  O_10
REMARK    9  A    between atoms: O_10  and  P_11
REMARK   10  A    between atoms: P_11  and  C_13
REMARK   11  A    between atoms: P_11  and  O_27
REMARK   12  A    between atoms: C_13  and  O_14
REMARK   13  A    between atoms: O_14  and  C_15
REMARK   14  A    between atoms: C_15  and  C_16
REMARK   15  A    between atoms: C_16  and  N_17
REMARK   16  A    between atoms: C_21  and  N_26
REMARK   17  A    between atoms: O_27  and  C_28
REMARK   18  A    between atoms: C_28  and  O_29
REMARK   19  A    between atoms: O_29  and  C_30
REMARK   20  A    between atoms: C_30  and  O_32
REMARK   21  A    between atoms: O_32  and  C_33
REMARK   22  A    between atoms: C_33  and  C_34
REMARK   23  A    between atoms: C_33  and  C_35
REMARK   24  A    between atoms: C_33  and  C_36
REMARK                            x       y       z     vdW  Elec       q    Type
REMARK                         _______ _______ _______ _____ _____    ______ ____
ROOT
ATOM      1  P   UNL     1       8.161  -4.114  24.742  0.00  0.00    +0.363 P 
ATOM      2  O   UNL     1       9.681  -4.034  24.552  0.00  0.00    -0.256 OA
ENDROOT
BRANCH   1   3
ATOM      3  C   UNL     1       7.697  -2.870  26.072  0.00  0.00    +0.286 C 
BRANCH   3   4
ATOM      4  O   UNL     1       7.734  -1.555  25.499  0.00  0.00    -0.366 OA
BRANCH   4   5
ATOM      5  C   UNL     1       6.587  -0.787  25.889  0.00  0.00    +0.182 C 
BRANCH   5   6
ATOM      6  C   UNL     1       6.240   0.297  24.868  0.00  0.00    +0.153 C 
BRANCH   6   7
ATOM      7  N   UNL     1       7.294   1.265  24.704  0.00  0.00    -0.313 N 
ATOM      8  C   UNL     1       8.198   1.283  23.680  0.00  0.00    +0.165 A 
ATOM      9  C   UNL     1       8.991   2.389  23.935  0.00  0.00    +0.147 A 
ATOM     10  C   UNL     1      10.028   2.639  23.023  0.00  0.00    +0.147 A 
ATOM     11  N   UNL     1      10.160   1.819  21.954  0.00  0.00    -0.219 NA
ATOM     12  C   UNL     1       9.307   0.777  21.832  0.00  0.00    +0.225 A 
ATOM     13  N   UNL     1       8.564   3.048  25.074  0.00  0.00    -0.231 NA
ATOM     14  N   UNL     1       8.299   0.422  22.655  0.00  0.00    -0.216 NA
ATOM     15  C   UNL     1       7.536   2.345  25.503  0.00  0.00    +0.201 A 
BRANCH  10  16
ATOM     16  N   UNL     1      10.913   3.700  23.152  0.00  0.00    -0.341 N 
ATOM     17  H   UNL     1      11.874   3.389  23.212  0.00  0.00    +0.144 HD
ATOM     18  H   UNL     1      10.704   4.471  22.527  0.00  0.00    +0.144 HD
ENDBRANCH  10  16
ENDBRANCH   6   7
ENDBRANCH   5   6
ENDBRANCH   4   5
ENDBRANCH   3   4
ENDBRANCH   1   3
BRANCH   1  19
ATOM     19  O   UNL     1       8.377  -5.302  25.981  0.00  0.00    -0.268 OA
BRANCH  19  20
ATOM     20  C   UNL     1       7.519  -5.140  27.090  0.00  0.00    +0.410 C 
BRANCH  20  21
ATOM     21  O   UNL     1       6.741  -6.318  27.319  0.00  0.00    -0.406 OA
BRANCH  21  22
ATOM     22  C   UNL     1       6.001  -6.225  28.450  0.00  0.00    +0.513 C 
ATOM     23  O   UNL     1       6.352  -5.675  29.477  0.00  0.00    -0.203 OA
BRANCH  22  24
ATOM     24  O   UNL     1       4.816  -6.883  28.269  0.00  0.00    -0.428 OA
BRANCH  24  25
ATOM     25  C   UNL     1       3.586  -6.112  28.342  0.00  0.00    +0.109 C 
ATOM     26  C   UNL     1       2.812  -6.418  29.634  0.00  0.00    +0.055 C 
ATOM     27  C   UNL     1       2.708  -6.564  27.161  0.00  0.00    +0.055 C 
ATOM     28  C   UNL     1       3.870  -4.612  28.172  0.00  0.00    +0.055 C 
ENDBRANCH  24  25
ENDBRANCH  22  24
ENDBRANCH  21  22
ENDBRANCH  20  21
ENDBRANCH  19  20
ENDBRANCH   1  19
BRANCH   1  29
ATOM     29  O   UNL     1       7.945  -2.927  23.502  0.00  0.00    -0.268 OA
BRANCH  29  30
ATOM     30  C   UNL     1       7.495  -3.500  22.290  0.00  0.00    +0.410 C 
BRANCH  30  31
ATOM     31  O   UNL     1       7.094  -4.857  22.445  0.00  0.00    -0.406 OA
BRANCH  31  32
ATOM     32  C   UNL     1       5.893  -5.126  21.863  0.00  0.00    +0.513 C 
ATOM     33  O   UNL     1       5.720  -5.907  20.942  0.00  0.00    -0.203 OA
BRANCH  32  34
ATOM     34  O   UNL     1       4.936  -4.366  22.459  0.00  0.00    -0.428 OA
BRANCH  34  36
ATOM     35  C   UNL     1       4.985  -6.102  24.191  0.00  0.00    +0.055 C 
ATOM     36  C   UNL     1       4.230  -4.899  23.612  0.00  0.00    +0.109 C 
ATOM     37  C   UNL     1       4.228  -3.785  24.676  0.00  0.00    +0.055 C 
ATOM     38  C   UNL     1       2.767  -5.232  23.286  0.00  0.00    +0.055 C 
ENDBRANCH  34  36
ENDBRANCH  32  34
ENDBRANCH  31  32
ENDBRANCH  30  31
ENDBRANCH  29  30
ENDBRANCH   1  29
TORSDOF 18
ENDMDL
MODEL 8
REMARK VINA RESULT:      -5.8      0.800      7.108
REMARK  Name = 
REMARK  24 active torsions:
REMARK  status: ('A' for Active; 'I' for Inactive)
REMARK    1  A    between atoms: C_1  and  C_2
REMARK    2  A    between atoms: C_2  and  C_3
REMARK    3  A    between atoms: C_2  and  C_4
REMARK    4  A    between atoms: C_2  and  O_5
REMARK    5  A    between atoms: O_5  and  C_6
REMARK    6  A    between atoms: C_6  and  O_8
REMARK    7  A    between atoms: O_8  and  C_9
REMARK    8  A    between atoms: C_9  and  O_10
REMARK    9  A    between atoms: O_10  and  P_11
REMARK   10  A    between atoms: P_11  and  C_13
REMARK   11  A    between atoms: P_11  and  O_27
REMARK   12  A    between atoms: C_13  and  O_14
REMARK   13  A    between atoms: O_14  and  C_15
REMARK   14  A    between atoms: C_15  and  C_16
REMARK   15  A    between atoms: C_16  and  N_17
REMARK   16  A    between atoms: C_21  and  N_26
REMARK   17  A    between atoms: O_27  and  C_28
REMARK   18  A    between atoms: C_28  and  O_29
REMARK   19  A    between atoms: O_29  and  C_30
REMARK   20  A    between atoms: C_30  and  O_32
REMARK   21  A    between atoms: O_32  and  C_33
REMARK   22  A    between atoms: C_33  and  C_34
REMARK   23  A    between atoms: C_33  and  C_35
REMARK   24  A    between atoms: C_33  and  C_36
REMARK                            x       y       z     vdW  Elec       q    Type
REMARK                         _______ _______ _______ _____ _____    ______ ____
ROOT
ATOM      1  P   UNL     1       8.963  -4.102  25.664  0.00  0.00    +0.363 P 
ATOM      2  O   UNL     1       7.964  -4.994  24.914  0.00  0.00    -0.256 OA
ENDROOT
BRANCH   1   3
ATOM      3  C   UNL     1       8.252  -2.363  25.683  0.00  0.00    +0.286 C 
BRANCH   3   4
ATOM      4  O   UNL     1       7.197  -2.312  26.655  0.00  0.00    -0.366 OA
BRANCH   4   5
ATOM      5  C   UNL     1       6.223  -1.317  26.311  0.00  0.00    +0.182 C 
BRANCH   5   6
ATOM      6  C   UNL     1       5.769  -1.427  24.855  0.00  0.00    +0.153 C 
BRANCH   6   7
ATOM      7  N   UNL     1       4.956  -2.591  24.614  0.00  0.00    -0.313 N 
ATOM      8  C   UNL     1       5.172  -3.516  23.632  0.00  0.00    +0.165 A 
ATOM      9  C   UNL     1       4.159  -4.446  23.800  0.00  0.00    +0.147 A 
ATOM     10  C   UNL     1       4.140  -5.520  22.897  0.00  0.00    +0.147 A 
ATOM     11  N   UNL     1       5.114  -5.595  21.961  0.00  0.00    -0.219 NA
ATOM     12  C   UNL     1       6.043  -4.613  21.918  0.00  0.00    +0.225 A 
ATOM     13  N   UNL     1       3.359  -4.111  24.879  0.00  0.00    -0.231 NA
ATOM     14  N   UNL     1       6.145  -3.525  22.708  0.00  0.00    -0.216 NA
ATOM     15  C   UNL     1       3.876  -2.994  25.346  0.00  0.00    +0.201 A 
BRANCH  10  16
ATOM     16  N   UNL     1       3.179  -6.522  22.931  0.00  0.00    -0.341 N 
ATOM     17  H   UNL     1       3.480  -7.319  23.477  0.00  0.00    +0.144 HD
ATOM     18  H   UNL     1       2.241  -6.169  23.087  0.00  0.00    +0.144 HD
ENDBRANCH  10  16
ENDBRANCH   6   7
ENDBRANCH   5   6
ENDBRANCH   4   5
ENDBRANCH   3   4
ENDBRANCH   1   3
BRANCH   1  19
ATOM     19  O   UNL     1       9.749  -3.724  24.170  0.00  0.00    -0.268 OA
BRANCH  19  20
ATOM     20  C   UNL     1      10.037  -2.353  24.002  0.00  0.00    +0.410 C 
BRANCH  20  21
ATOM     21  O   UNL     1      10.411  -2.064  22.651  0.00  0.00    -0.406 OA
BRANCH  21  22
ATOM     22  C   UNL     1       9.518  -1.249  22.042  0.00  0.00    +0.513 C 
ATOM     23  O   UNL     1       8.395  -1.567  21.697  0.00  0.00    -0.203 OA
BRANCH  22  24
ATOM     24  O   UNL     1      10.092  -0.025  21.836  0.00  0.00    -0.428 OA
BRANCH  24  25
ATOM     25  C   UNL     1       9.451   1.140  22.423  0.00  0.00    +0.109 C 
ATOM     26  C   UNL     1       8.723   0.778  23.727  0.00  0.00    +0.055 C 
ATOM     27  C   UNL     1       8.386   1.616  21.418  0.00  0.00    +0.055 C 
ATOM     28  C   UNL     1      10.461   2.281  22.615  0.00  0.00    +0.055 C 
ENDBRANCH  24  25
ENDBRANCH  22  24
ENDBRANCH  21  22
ENDBRANCH  20  21
ENDBRANCH  19  20
ENDBRANCH   1  19
BRANCH   1  29
ATOM     29  O   UNL     1       8.177  -4.482  27.158  0.00  0.00    -0.268 OA
BRANCH  29  30
ATOM     30  C   UNL     1       7.221  -5.514  27.009  0.00  0.00    +0.410 C 
BRANCH  30  31
ATOM     31  O   UNL     1       6.973  -6.205  28.227  0.00  0.00    -0.406 OA
BRANCH  31  32
ATOM     32  C   UNL     1       6.014  -5.611  28.990  0.00  0.00    +0.513 C 
ATOM     33  O   UNL     1       6.073  -5.462  30.199  0.00  0.00    -0.203 OA
BRANCH  32  34
ATOM     34  O   UNL     1       4.982  -5.241  28.186  0.00  0.00    -0.428 OA
BRANCH  34  36
ATOM     35  C   UNL     1       2.536  -5.079  28.278  0.00  0.00    +0.055 C 
ATOM     36  C   UNL     1       3.751  -6.013  28.219  0.00  0.00    +0.109 C 
ATOM     37  C   UNL     1       3.687  -6.791  26.891  0.00  0.00    +0.055 C 
ATOM     38  C   UNL     1       3.750  -7.041  29.360  0.00  0.00    +0.055 C 
ENDBRANCH  34  36
ENDBRANCH  32  34
ENDBRANCH  31  32
ENDBRANCH  30  31
ENDBRANCH  29  30
ENDBRANCH   1  29
TORSDOF 18
ENDMDL
MODEL 9
REMARK VINA RESULT:      -5.8      2.392      7.329
REMARK  Name = 
REMARK  24 active torsions:
REMARK  status: ('A' for Active; 'I' for Inactive)
REMARK    1  A    between atoms: C_1  and  C_2
REMARK    2  A    between atoms: C_2  and  C_3
REMARK    3  A    between atoms: C_2  and  C_4
REMARK    4  A    between atoms: C_2  and  O_5
REMARK    5  A    between atoms: O_5  and  C_6
REMARK    6  A    between atoms: C_6  and  O_8
REMARK    7  A    between atoms: O_8  and  C_9
REMARK    8  A    between atoms: C_9  and  O_10
REMARK    9  A    between atoms: O_10  and  P_11
REMARK   10  A    between atoms: P_11  and  C_13
REMARK   11  A    between atoms: P_11  and  O_27
REMARK   12  A    between atoms: C_13  and  O_14
REMARK   13  A    between atoms: O_14  and  C_15
REMARK   14  A    between atoms: C_15  and  C_16
REMARK   15  A    between atoms: C_16  and  N_17
REMARK   16  A    between atoms: C_21  and  N_26
REMARK   17  A    between atoms: O_27  and  C_28
REMARK   18  A    between atoms: C_28  and  O_29
REMARK   19  A    between atoms: O_29  and  C_30
REMARK   20  A    between atoms: C_30  and  O_32
REMARK   21  A    between atoms: O_32  and  C_33
REMARK   22  A    between atoms: C_33  and  C_34
REMARK   23  A    between atoms: C_33  and  C_35
REMARK   24  A    between atoms: C_33  and  C_36
REMARK                            x       y       z     vdW  Elec       q    Type
REMARK                         _______ _______ _______ _____ _____    ______ ____
ROOT
ATOM      1  P   UNL     1       8.519  -2.291  23.227  0.00  0.00    +0.363 P 
ATOM      2  O   UNL     1       9.626  -3.208  23.764  0.00  0.00    -0.256 OA
ENDROOT
BRANCH   1   3
ATOM      3  C   UNL     1       7.332  -3.366  22.243  0.00  0.00    +0.286 C 
BRANCH   3   4
ATOM      4  O   UNL     1       7.662  -4.743  22.477  0.00  0.00    -0.366 OA
BRANCH   4   5
ATOM      5  C   UNL     1       6.483  -5.557  22.531  0.00  0.00    +0.182 C 
BRANCH   5   6
ATOM      6  C   UNL     1       5.378  -4.923  23.376  0.00  0.00    +0.153 C 
BRANCH   6   7
ATOM      7  N   UNL     1       5.085  -5.681  24.566  0.00  0.00    -0.313 N 
ATOM      8  C   UNL     1       5.836  -5.682  25.707  0.00  0.00    +0.165 A 
ATOM      9  C   UNL     1       5.162  -6.531  26.568  0.00  0.00    +0.147 A 
ATOM     10  C   UNL     1       5.736  -6.724  27.834  0.00  0.00    +0.147 A 
ATOM     11  N   UNL     1       6.870  -6.051  28.139  0.00  0.00    -0.219 NA
ATOM     12  C   UNL     1       7.416  -5.249  27.197  0.00  0.00    +0.225 A 
ATOM     13  N   UNL     1       4.010  -7.018  25.976  0.00  0.00    -0.231 NA
ATOM     14  N   UNL     1       6.974  -5.011  25.945  0.00  0.00    -0.216 NA
ATOM     15  C   UNL     1       3.995  -6.476  24.775  0.00  0.00    +0.201 A 
BRANCH  10  16
ATOM     16  N   UNL     1       5.184  -7.557  28.799  0.00  0.00    -0.341 N 
ATOM     17  H   UNL     1       5.265  -7.167  29.729  0.00  0.00    +0.144 HD
ATOM     18  H   UNL     1       4.287  -7.943  28.524  0.00  0.00    +0.144 HD
ENDBRANCH  10  16
ENDBRANCH   6   7
ENDBRANCH   5   6
ENDBRANCH   4   5
ENDBRANCH   3   4
ENDBRANCH   1   3
BRANCH   1  19
ATOM     19  O   UNL     1       9.429  -2.034  21.779  0.00  0.00    -0.268 OA
BRANCH  19  20
ATOM     20  C   UNL     1       9.488  -0.686  21.367  0.00  0.00    +0.410 C 
BRANCH  20  21
ATOM     21  O   UNL     1       8.555   0.118  22.096  0.00  0.00    -0.406 OA
BRANCH  21  22
ATOM     22  C   UNL     1       8.705   1.437  21.826  0.00  0.00    +0.513 C 
ATOM     23  O   UNL     1       7.856   2.156  21.333  0.00  0.00    -0.203 OA
BRANCH  22  24
ATOM     24  O   UNL     1       9.973   1.824  22.157  0.00  0.00    -0.428 OA
BRANCH  24  25
ATOM     25  C   UNL     1      10.230   2.233  23.528  0.00  0.00    +0.109 C 
ATOM     26  C   UNL     1       8.933   2.655  24.236  0.00  0.00    +0.055 C 
ATOM     27  C   UNL     1      11.141   3.472  23.460  0.00  0.00    +0.055 C 
ATOM     28  C   UNL     1      10.984   1.136  24.295  0.00  0.00    +0.055 C 
ENDBRANCH  24  25
ENDBRANCH  22  24
ENDBRANCH  21  22
ENDBRANCH  20  21
ENDBRANCH  19  20
ENDBRANCH   1  19
BRANCH   1  29
ATOM     29  O   UNL     1       7.609  -2.547  24.676  0.00  0.00    -0.268 OA
BRANCH  29  30
ATOM     30  C   UNL     1       7.723  -1.460  25.575  0.00  0.00    +0.410 C 
BRANCH  30  31
ATOM     31  O   UNL     1       6.653  -1.414  26.512  0.00  0.00    -0.406 OA
BRANCH  31  32
ATOM     32  C   UNL     1       5.432  -1.300  25.920  0.00  0.00    +0.513 C 
ATOM     33  O   UNL     1       5.069  -0.356  25.237  0.00  0.00    -0.203 OA
BRANCH  32  34
ATOM     34  O   UNL     1       4.687  -2.393  26.237  0.00  0.00    -0.428 OA
BRANCH  34  36
ATOM     35  C   UNL     1       2.352  -2.734  26.906  0.00  0.00    +0.055 C 
ATOM     36  C   UNL     1       3.758  -2.313  27.351  0.00  0.00    +0.109 C 
ATOM     37  C   UNL     1       4.247  -3.328  28.401  0.00  0.00    +0.055 C 
ATOM     38  C   UNL     1       3.768  -0.924  28.008  0.00  0.00    +0.055 C 
ENDBRANCH  34  36
ENDBRANCH  32  34
ENDBRANCH  31  32
ENDBRANCH  30  31
ENDBRANCH  29  30
ENDBRANCH   1  29
TORSDOF 18
ENDMDL
