MODEL 1
REMARK VINA RESULT:      -6.4      0.000      0.000
REMARK  Name = 
REMARK  3 active torsions:
REMARK  status: ('A' for Active; 'I' for Inactive)
REMARK    1  A    between atoms: C_3  and  C_4
REMARK    2  A    between atoms: C_5  and  C_6
REMARK    3  A    between atoms: C_6  and  C_18
REMARK                            x       y       z     vdW  Elec       q    Type
REMARK                         _______ _______ _______ _____ _____    ______ ____
ROOT
ATOM      1  C   UNL     1       8.177  -4.229  24.466  0.00  0.00    +0.296 C 
ATOM      2  O   UNL     1       8.158  -5.273  23.451  0.00  0.00    -0.417 OA
ATOM      3  C   UNL     1       7.183  -5.369  22.527  0.00  0.00    +0.407 C 
ATOM      4  O   UNL     1       7.334  -6.000  21.488  0.00  0.00    -0.226 OA
ATOM      5  N   UNL     1       5.985  -4.798  22.830  0.00  0.00    -0.251 N 
ATOM      6  H   UNL     1       5.255  -4.971  22.152  0.00  0.00    +0.158 HD
ATOM      7  C   UNL     1       5.725  -4.064  23.976  0.00  0.00    +0.045 A 
ATOM      8  C   UNL     1       4.421  -3.638  24.236  0.00  0.00    +0.025 A 
ATOM      9  C   UNL     1       4.161  -2.859  25.361  0.00  0.00    +0.022 A 
ATOM     10  C   UNL     1       5.210  -2.487  26.196  0.00  0.00    +0.042 A 
ATOM     11 CL   UNL     1       4.901  -1.494  27.566  0.00  0.00    -0.084 Cl
ATOM     12  C   UNL     1       6.515  -2.909  25.926  0.00  0.00    +0.030 A 
ATOM     13  C   UNL     1       6.782  -3.741  24.822  0.00  0.00    +0.040 A 
ENDROOT
BRANCH   1  14
ATOM     14  C   UNL     1       8.971  -4.816  25.687  0.00  0.00    +0.446 C 
ATOM     15  F   UNL     1       8.282  -5.801  26.321  0.00  0.00    -0.165 F 
ATOM     16  F   UNL     1       9.248  -3.890  26.640  0.00  0.00    -0.165 F 
ATOM     17  F   UNL     1      10.165  -5.355  25.327  0.00  0.00    -0.165 F 
ENDBRANCH   1  14
BRANCH   1  19
ATOM     18  C   UNL     1       9.615  -2.104  23.287  0.00  0.00    -0.094 C 
ATOM     19  C   UNL     1       8.951  -3.085  23.832  0.00  0.00    -0.041 C 
BRANCH  18  21
ATOM     20  C   UNL     1      10.017   0.373  23.005  0.00  0.00    +0.017 C 
ATOM     21  C   UNL     1      10.356  -1.053  22.657  0.00  0.00    +0.064 C 
ATOM     22  C   UNL     1       9.662  -0.173  21.653  0.00  0.00    +0.017 C 
ENDBRANCH  18  21
ENDBRANCH   1  19
TORSDOF 3
ENDMDL
MODEL 2
REMARK VINA RESULT:      -6.0      3.509      4.995
REMARK  Name = 
REMARK  3 active torsions:
REMARK  status: ('A' for Active; 'I' for Inactive)
REMARK    1  A    between atoms: C_3  and  C_4
REMARK    2  A    between atoms: C_5  and  C_6
REMARK    3  A    between atoms: C_6  and  C_18
REMARK                            x       y       z     vdW  Elec       q    Type
REMARK                         _______ _______ _______ _____ _____    ______ ____
ROOT
ATOM      1  C   UNL     1       8.552  -1.695  23.552  0.00  0.00    +0.296 C 
ATOM      2  O   UNL     1       9.103  -2.428  24.682  0.00  0.00    -0.417 OA
ATOM      3  C   UNL     1       8.476  -2.505  25.872  0.00  0.00    +0.407 C 
ATOM      4  O   UNL     1       8.742  -3.378  26.689  0.00  0.00    -0.226 OA
ATOM      5  N   UNL     1       7.585  -1.520  26.166  0.00  0.00    -0.251 N 
ATOM      6  H   UNL     1       7.206  -1.564  27.103  0.00  0.00    +0.158 HD
ATOM      7  C   UNL     1       7.220  -0.498  25.305  0.00  0.00    +0.045 A 
ATOM      8  C   UNL     1       6.393   0.528  25.768  0.00  0.00    +0.025 A 
ATOM      9  C   UNL     1       5.984   1.532  24.895  0.00  0.00    +0.022 A 
ATOM     10  C   UNL     1       6.379   1.485  23.561  0.00  0.00    +0.042 A 
ATOM     11 CL   UNL     1       5.847   2.703  22.469  0.00  0.00    -0.084 Cl
ATOM     12  C   UNL     1       7.200   0.452  23.101  0.00  0.00    +0.030 A 
ATOM     13  C   UNL     1       7.664  -0.539  23.986  0.00  0.00    +0.040 A 
ENDROOT
BRANCH   1  14
ATOM     14  C   UNL     1       9.777  -1.253  22.674  0.00  0.00    +0.446 C 
ATOM     15  F   UNL     1      10.798  -2.147  22.732  0.00  0.00    -0.165 F 
ATOM     16  F   UNL     1      10.308  -0.063  23.056  0.00  0.00    -0.165 F 
ATOM     17  F   UNL     1       9.459  -1.118  21.360  0.00  0.00    -0.165 F 
ENDBRANCH   1  14
BRANCH   1  19
ATOM     18  C   UNL     1       6.978  -3.585  22.165  0.00  0.00    -0.094 C 
ATOM     19  C   UNL     1       7.704  -2.712  22.805  0.00  0.00    -0.041 C 
BRANCH  18  21
ATOM     20  C   UNL     1       5.537  -5.654  22.297  0.00  0.00    +0.017 C 
ATOM     21  C   UNL     1       6.200  -4.575  21.483  0.00  0.00    +0.064 C 
ATOM     22  C   UNL     1       6.711  -5.990  21.425  0.00  0.00    +0.017 C 
ENDBRANCH  18  21
ENDBRANCH   1  19
TORSDOF 3
ENDMDL
MODEL 3
REMARK VINA RESULT:      -6.0      3.332      5.336
REMARK  Name = 
REMARK  3 active torsions:
REMARK  status: ('A' for Active; 'I' for Inactive)
REMARK    1  A    between atoms: C_3  and  C_4
REMARK    2  A    between atoms: C_5  and  C_6
REMARK    3  A    between atoms: C_6  and  C_18
REMARK                            x       y       z     vdW  Elec       q    Type
REMARK                         _______ _______ _______ _____ _____    ______ ____
ROOT
ATOM      1  C   UNL     1       8.172  -4.040  25.714  0.00  0.00    +0.296 C 
ATOM      2  O   UNL     1       8.495  -2.797  26.399  0.00  0.00    -0.417 OA
ATOM      3  C   UNL     1       7.749  -1.682  26.270  0.00  0.00    +0.407 C 
ATOM      4  O   UNL     1       7.801  -0.770  27.086  0.00  0.00    -0.226 OA
ATOM      5  N   UNL     1       6.989  -1.575  25.147  0.00  0.00    -0.251 N 
ATOM      6  H   UNL     1       6.516  -0.686  25.045  0.00  0.00    +0.158 HD
ATOM      7  C   UNL     1       6.866  -2.555  24.176  0.00  0.00    +0.045 A 
ATOM      8  C   UNL     1       6.157  -2.276  23.005  0.00  0.00    +0.025 A 
ATOM      9  C   UNL     1       5.989  -3.271  22.046  0.00  0.00    +0.022 A 
ATOM     10  C   UNL     1       6.503  -4.544  22.280  0.00  0.00    +0.042 A 
ATOM     11 CL   UNL     1       6.267  -5.787  21.116  0.00  0.00    -0.084 Cl
ATOM     12  C   UNL     1       7.204  -4.819  23.457  0.00  0.00    +0.030 A 
ATOM     13  C   UNL     1       7.426  -3.807  24.410  0.00  0.00    +0.040 A 
ENDROOT
BRANCH   1  14
ATOM     14  C   UNL     1       9.530  -4.809  25.535  0.00  0.00    +0.446 C 
ATOM     15  F   UNL     1       9.342  -6.094  25.136  0.00  0.00    -0.165 F 
ATOM     16  F   UNL     1      10.258  -4.883  26.678  0.00  0.00    -0.165 F 
ATOM     17  F   UNL     1      10.341  -4.235  24.609  0.00  0.00    -0.165 F 
ENDBRANCH   1  14
BRANCH   1  19
ATOM     18  C   UNL     1       6.481  -5.429  27.497  0.00  0.00    -0.094 C 
ATOM     19  C   UNL     1       7.262  -4.788  26.674  0.00  0.00    -0.041 C 
BRANCH  18  21
ATOM     20  C   UNL     1       5.218  -5.375  29.684  0.00  0.00    +0.017 C 
ATOM     21  C   UNL     1       5.614  -6.096  28.422  0.00  0.00    +0.064 C 
ATOM     22  C   UNL     1       6.166  -6.537  29.751  0.00  0.00    +0.017 C 
ENDBRANCH  18  21
ENDBRANCH   1  19
TORSDOF 3
ENDMDL
MODEL 4
REMARK VINA RESULT:      -5.9      5.493      7.362
REMARK  Name = 
REMARK  3 active torsions:
REMARK  status: ('A' for Active; 'I' for Inactive)
REMARK    1  A    between atoms: C_3  and  C_4
REMARK    2  A    between atoms: C_5  and  C_6
REMARK    3  A    between atoms: C_6  and  C_18
REMARK                            x       y       z     vdW  Elec       q    Type
REMARK                         _______ _______ _______ _____ _____    ______ ____
ROOT
ATOM      1  C   UNL     1       9.019   1.678  22.840  0.00  0.00    +0.296 C 
ATOM      2  O   UNL     1      10.374   2.210  22.808  0.00  0.00    -0.417 OA
ATOM      3  C   UNL     1      10.688   3.426  23.297  0.00  0.00    +0.407 C 
ATOM      4  O   UNL     1      11.838   3.729  23.590  0.00  0.00    -0.226 OA
ATOM      5  N   UNL     1       9.681   4.338  23.379  0.00  0.00    -0.251 N 
ATOM      6  H   UNL     1       9.976   5.262  23.664  0.00  0.00    +0.158 HD
ATOM      7  C   UNL     1       8.354   4.083  23.074  0.00  0.00    +0.045 A 
ATOM      8  C   UNL     1       7.436   5.135  23.074  0.00  0.00    +0.025 A 
ATOM      9  C   UNL     1       6.092   4.878  22.816  0.00  0.00    +0.022 A 
ATOM     10  C   UNL     1       5.674   3.570  22.592  0.00  0.00    +0.042 A 
ATOM     11 CL   UNL     1       4.010   3.241  22.308  0.00  0.00    -0.084 Cl
ATOM     12  C   UNL     1       6.596   2.519  22.601  0.00  0.00    +0.030 A 
ATOM     13  C   UNL     1       7.965   2.773  22.808  0.00  0.00    +0.040 A 
ENDROOT
BRANCH   1  14
ATOM     14  C   UNL     1       8.915   0.668  21.642  0.00  0.00    +0.446 C 
ATOM     15  F   UNL     1       8.467   1.263  20.506  0.00  0.00    -0.165 F 
ATOM     16  F   UNL     1       8.059  -0.358  21.881  0.00  0.00    -0.165 F 
ATOM     17  F   UNL     1      10.108   0.097  21.332  0.00  0.00    -0.165 F 
ENDBRANCH   1  14
BRANCH   1  19
ATOM     18  C   UNL     1       8.840   0.307  25.302  0.00  0.00    -0.094 C 
ATOM     19  C   UNL     1       8.922   0.940  24.165  0.00  0.00    -0.041 C 
BRANCH  18  21
ATOM     20  C   UNL     1       8.439  -1.894  26.472  0.00  0.00    +0.017 C 
ATOM     21  C   UNL     1       8.762  -0.425  26.530  0.00  0.00    +0.064 C 
ATOM     22  C   UNL     1       7.421  -0.925  26.997  0.00  0.00    +0.017 C 
ENDBRANCH  18  21
ENDBRANCH   1  19
TORSDOF 3
ENDMDL
MODEL 5
REMARK VINA RESULT:      -5.9      4.124      5.892
REMARK  Name = 
REMARK  3 active torsions:
REMARK  status: ('A' for Active; 'I' for Inactive)
REMARK    1  A    between atoms: C_3  and  C_4
REMARK    2  A    between atoms: C_5  and  C_6
REMARK    3  A    between atoms: C_6  and  C_18
REMARK                            x       y       z     vdW  Elec       q    Type
REMARK                         _______ _______ _______ _____ _____    ______ ____
ROOT
ATOM      1  C   UNL     1       8.830  -0.506  23.578  0.00  0.00    +0.296 C 
ATOM      2  O   UNL     1       9.336  -1.192  24.757  0.00  0.00    -0.417 OA
ATOM      3  C   UNL     1       8.865  -0.949  25.996  0.00  0.00    +0.407 C 
ATOM      4  O   UNL     1       9.023  -1.742  26.917  0.00  0.00    -0.226 OA
ATOM      5  N   UNL     1       8.270   0.257  26.206  0.00  0.00    -0.251 N 
ATOM      6  H   UNL     1       8.013   0.435  27.168  0.00  0.00    +0.158 HD
ATOM      7  C   UNL     1       8.045   1.210  25.227  0.00  0.00    +0.045 A 
ATOM      8  C   UNL     1       7.543   2.461  25.591  0.00  0.00    +0.025 A 
ATOM      9  C   UNL     1       7.269   3.408  24.606  0.00  0.00    +0.022 A 
ATOM     10  C   UNL     1       7.470   3.084  23.268  0.00  0.00    +0.042 A 
ATOM     11 CL   UNL     1       7.099   4.236  22.045  0.00  0.00    -0.084 Cl
ATOM     12  C   UNL     1       7.965   1.827  22.909  0.00  0.00    +0.030 A 
ATOM     13  C   UNL     1       8.296   0.882  23.897  0.00  0.00    +0.040 A 
ENDROOT
BRANCH   1  14
ATOM     14  C   UNL     1      10.002  -0.504  22.533  0.00  0.00    +0.446 C 
ATOM     15  F   UNL     1      10.741  -1.643  22.589  0.00  0.00    -0.165 F 
ATOM     16  F   UNL     1      10.882   0.514  22.716  0.00  0.00    -0.165 F 
ATOM     17  F   UNL     1       9.563  -0.395  21.252  0.00  0.00    -0.165 F 
ENDBRANCH   1  14
BRANCH   1  19
ATOM     18  C   UNL     1       6.698  -2.117  22.665  0.00  0.00    -0.094 C 
ATOM     19  C   UNL     1       7.683  -1.373  23.086  0.00  0.00    -0.041 C 
BRANCH  18  21
ATOM     20  C   UNL     1       4.906  -3.788  23.273  0.00  0.00    +0.017 C 
ATOM     21  C   UNL     1       5.619  -2.955  22.240  0.00  0.00    +0.064 C 
ATOM     22  C   UNL     1       5.802  -4.450  22.267  0.00  0.00    +0.017 C 
ENDBRANCH  18  21
ENDBRANCH   1  19
TORSDOF 3
ENDMDL
MODEL 6
REMARK VINA RESULT:      -5.8      2.277      2.569
REMARK  Name = 
REMARK  3 active torsions:
REMARK  status: ('A' for Active; 'I' for Inactive)
REMARK    1  A    between atoms: C_3  and  C_4
REMARK    2  A    between atoms: C_5  and  C_6
REMARK    3  A    between atoms: C_6  and  C_18
REMARK                            x       y       z     vdW  Elec       q    Type
REMARK                         _______ _______ _______ _____ _____    ______ ____
ROOT
ATOM      1  C   UNL     1       7.606  -4.573  24.471  0.00  0.00    +0.296 C 
ATOM      2  O   UNL     1       7.806  -5.034  23.106  0.00  0.00    -0.417 OA
ATOM      3  C   UNL     1       6.817  -5.578  22.370  0.00  0.00    +0.407 C 
ATOM      4  O   UNL     1       6.877  -5.641  21.149  0.00  0.00    -0.226 OA
ATOM      5  N   UNL     1       5.774  -6.130  23.049  0.00  0.00    -0.251 N 
ATOM      6  H   UNL     1       5.100  -6.606  22.465  0.00  0.00    +0.158 HD
ATOM      7  C   UNL     1       5.621  -6.101  24.426  0.00  0.00    +0.045 A 
ATOM      8  C   UNL     1       4.575  -6.815  25.014  0.00  0.00    +0.025 A 
ATOM      9  C   UNL     1       4.385  -6.752  26.392  0.00  0.00    +0.022 A 
ATOM     10  C   UNL     1       5.224  -5.953  27.164  0.00  0.00    +0.042 A 
ATOM     11 CL   UNL     1       4.973  -5.843  28.862  0.00  0.00    -0.084 Cl
ATOM     12  C   UNL     1       6.265  -5.235  26.569  0.00  0.00    +0.030 A 
ATOM     13  C   UNL     1       6.498  -5.332  25.185  0.00  0.00    +0.040 A 
ENDROOT
BRANCH   1  14
ATOM     14  C   UNL     1       9.002  -4.679  25.182  0.00  0.00    +0.446 C 
ATOM     15  F   UNL     1       8.978  -4.166  26.440  0.00  0.00    -0.165 F 
ATOM     16  F   UNL     1       9.987  -4.008  24.531  0.00  0.00    -0.165 F 
ATOM     17  F   UNL     1       9.435  -5.961  25.299  0.00  0.00    -0.165 F 
ENDBRANCH   1  14
BRANCH   1  19
ATOM     18  C   UNL     1       6.837  -1.868  24.214  0.00  0.00    -0.094 C 
ATOM     19  C   UNL     1       7.192  -3.117  24.332  0.00  0.00    -0.041 C 
BRANCH  18  21
ATOM     20  C   UNL     1       7.019   0.357  23.033  0.00  0.00    +0.017 C 
ATOM     21  C   UNL     1       6.424  -0.500  24.120  0.00  0.00    +0.064 C 
ATOM     22  C   UNL     1       7.410   0.585  24.464  0.00  0.00    +0.017 C 
ENDBRANCH  18  21
ENDBRANCH   1  19
TORSDOF 3
ENDMDL
MODEL 7
REMARK VINA RESULT:      -5.8      3.001      5.398
REMARK  Name = 
REMARK  3 active torsions:
REMARK  status: ('A' for Active; 'I' for Inactive)
REMARK    1  A    between atoms: C_3  and  C_4
REMARK    2  A    between atoms: C_5  and  C_6
REMARK    3  A    between atoms: C_6  and  C_18
REMARK                            x       y       z     vdW  Elec       q    Type
REMARK                         _______ _______ _______ _____ _____    ______ ____
ROOT
ATOM      1  C   UNL     1       7.032  -4.130  23.355  0.00  0.00    +0.296 C 
ATOM      2  O   UNL     1       7.501  -5.264  24.137  0.00  0.00    -0.417 OA
ATOM      3  C   UNL     1       8.486  -5.159  25.050  0.00  0.00    +0.407 C 
ATOM      4  O   UNL     1       8.642  -5.992  25.934  0.00  0.00    -0.226 OA
ATOM      5  N   UNL     1       9.357  -4.123  24.903  0.00  0.00    -0.251 N 
ATOM      6  H   UNL     1      10.131  -4.132  25.552  0.00  0.00    +0.158 HD
ATOM      7  C   UNL     1       9.256  -3.134  23.938  0.00  0.00    +0.045 A 
ATOM      8  C   UNL     1      10.283  -2.197  23.806  0.00  0.00    +0.025 A 
ATOM      9  C   UNL     1      10.166  -1.171  22.871  0.00  0.00    +0.022 A 
ATOM     10  C   UNL     1       9.012  -1.074  22.100  0.00  0.00    +0.042 A 
ATOM     11 CL   UNL     1       8.846   0.211  20.969  0.00  0.00    -0.084 Cl
ATOM     12  C   UNL     1       7.984  -2.011  22.241  0.00  0.00    +0.030 A 
ATOM     13  C   UNL     1       8.113  -3.082  23.145  0.00  0.00    +0.040 A 
ENDROOT
BRANCH   1  14
ATOM     14  C   UNL     1       6.460  -4.722  22.018  0.00  0.00    +0.446 C 
ATOM     15  F   UNL     1       5.469  -5.625  22.239  0.00  0.00    -0.165 F 
ATOM     16  F   UNL     1       7.394  -5.376  21.280  0.00  0.00    -0.165 F 
ATOM     17  F   UNL     1       5.936  -3.770  21.203  0.00  0.00    -0.165 F 
ENDBRANCH   1  14
BRANCH   1  19
ATOM     18  C   UNL     1       4.954  -3.001  24.898  0.00  0.00    -0.094 C 
ATOM     19  C   UNL     1       5.913  -3.522  24.185  0.00  0.00    -0.041 C 
BRANCH  18  21
ATOM     20  C   UNL     1       3.490  -3.208  26.945  0.00  0.00    +0.017 C 
ATOM     21  C   UNL     1       3.891  -2.468  25.696  0.00  0.00    +0.064 C 
ATOM     22  C   UNL     1       2.580  -3.206  25.752  0.00  0.00    +0.017 C 
ENDBRANCH  18  21
ENDBRANCH   1  19
TORSDOF 3
ENDMDL
MODEL 8
REMARK VINA RESULT:      -5.8      2.489      3.773
REMARK  Name = 
REMARK  3 active torsions:
REMARK  status: ('A' for Active; 'I' for Inactive)
REMARK    1  A    between atoms: C_3  and  C_4
REMARK    2  A    between atoms: C_5  and  C_6
REMARK    3  A    between atoms: C_6  and  C_18
REMARK                            x       y       z     vdW  Elec       q    Type
REMARK                         _______ _______ _______ _____ _____    ______ ____
ROOT
ATOM      1  C   UNL     1       8.005  -3.857  25.232  0.00  0.00    +0.296 C 
ATOM      2  O   UNL     1       9.102  -3.187  24.548  0.00  0.00    -0.417 OA
ATOM      3  C   UNL     1       8.982  -2.680  23.306  0.00  0.00    +0.407 C 
ATOM      4  O   UNL     1       9.754  -1.833  22.873  0.00  0.00    -0.226 OA
ATOM      5  N   UNL     1       8.007  -3.207  22.515  0.00  0.00    -0.251 N 
ATOM      6  H   UNL     1       8.009  -2.864  21.564  0.00  0.00    +0.158 HD
ATOM      7  C   UNL     1       7.088  -4.161  22.920  0.00  0.00    +0.045 A 
ATOM      8  C   UNL     1       6.218  -4.718  21.980  0.00  0.00    +0.025 A 
ATOM      9  C   UNL     1       5.260  -5.642  22.388  0.00  0.00    +0.022 A 
ATOM     10  C   UNL     1       5.159  -5.976  23.736  0.00  0.00    +0.042 A 
ATOM     11 CL   UNL     1       3.954  -7.090  24.252  0.00  0.00    -0.084 Cl
ATOM     12  C   UNL     1       6.028  -5.410  24.673  0.00  0.00    +0.030 A 
ATOM     13  C   UNL     1       7.034  -4.515  24.265  0.00  0.00    +0.040 A 
ENDROOT
BRANCH   1  14
ATOM     14  C   UNL     1       8.664  -4.860  26.245  0.00  0.00    +0.446 C 
ATOM     15  F   UNL     1       7.799  -5.249  27.217  0.00  0.00    -0.165 F 
ATOM     16  F   UNL     1       9.736  -4.337  26.894  0.00  0.00    -0.165 F 
ATOM     17  F   UNL     1       9.105  -5.996  25.646  0.00  0.00    -0.165 F 
ENDBRANCH   1  14
BRANCH   1  19
ATOM     18  C   UNL     1       6.658  -1.799  26.619  0.00  0.00    -0.094 C 
ATOM     19  C   UNL     1       7.280  -2.750  25.979  0.00  0.00    -0.041 C 
BRANCH  18  21
ATOM     20  C   UNL     1       5.871   0.600  26.609  0.00  0.00    +0.017 C 
ATOM     21  C   UNL     1       6.003  -0.728  27.307  0.00  0.00    +0.064 C 
ATOM     22  C   UNL     1       6.820   0.453  27.762  0.00  0.00    +0.017 C 
ENDBRANCH  18  21
ENDBRANCH   1  19
TORSDOF 3
ENDMDL
MODEL 9
REMARK VINA RESULT:      -5.7      3.386      5.187
REMARK  Name = 
REMARK  3 active torsions:
REMARK  status: ('A' for Active; 'I' for Inactive)
REMARK    1  A    between atoms: C_3  and  C_4
REMARK    2  A    between atoms: C_5  and  C_6
REMARK    3  A    between atoms: C_6  and  C_18
REMARK                            x       y       z     vdW  Elec       q    Type
REMARK                         _______ _______ _______ _____ _____    ______ ____
ROOT
ATOM      1  C   UNL     1       7.477  -1.732  24.694  0.00  0.00    +0.296 C 
ATOM      2  O   UNL     1       6.354  -1.818  25.616  0.00  0.00    -0.417 OA
ATOM      3  C   UNL     1       5.241  -1.071  25.476  0.00  0.00    +0.407 C 
ATOM      4  O   UNL     1       4.184  -1.376  26.015  0.00  0.00    -0.226 OA
ATOM      5  N   UNL     1       5.358   0.087  24.771  0.00  0.00    -0.251 N 
ATOM      6  H   UNL     1       4.525   0.660  24.767  0.00  0.00    +0.158 HD
ATOM      7  C   UNL     1       6.509   0.508  24.126  0.00  0.00    +0.045 A 
ATOM      8  C   UNL     1       6.543   1.777  23.543  0.00  0.00    +0.025 A 
ATOM      9  C   UNL     1       7.680   2.189  22.851  0.00  0.00    +0.022 A 
ATOM     10  C   UNL     1       8.757   1.318  22.722  0.00  0.00    +0.042 A 
ATOM     11 CL   UNL     1      10.149   1.807  21.838  0.00  0.00    -0.084 Cl
ATOM     12  C   UNL     1       8.714   0.047  23.300  0.00  0.00    +0.030 A 
ATOM     13  C   UNL     1       7.593  -0.361  24.046  0.00  0.00    +0.040 A 
ENDROOT
BRANCH   1  14
ATOM     14  C   UNL     1       8.750  -2.153  25.510  0.00  0.00    +0.446 C 
ATOM     15  F   UNL     1       9.298  -1.108  26.183  0.00  0.00    -0.165 F 
ATOM     16  F   UNL     1       9.745  -2.650  24.731  0.00  0.00    -0.165 F 
ATOM     17  F   UNL     1       8.487  -3.110  26.438  0.00  0.00    -0.165 F 
ENDBRANCH   1  14
BRANCH   1  19
ATOM     18  C   UNL     1       6.914  -3.643  22.693  0.00  0.00    -0.094 C 
ATOM     19  C   UNL     1       7.174  -2.760  23.617  0.00  0.00    -0.041 C 
BRANCH  18  21
ATOM     20  C   UNL     1       5.658  -5.730  22.028  0.00  0.00    +0.017 C 
ATOM     21  C   UNL     1       6.648  -4.643  21.703  0.00  0.00    +0.064 C 
ATOM     22  C   UNL     1       7.122  -6.051  21.943  0.00  0.00    +0.017 C 
ENDBRANCH  18  21
ENDBRANCH   1  19
TORSDOF 3
ENDMDL
