MODEL 1
REMARK VINA RESULT:      -7.1      0.000      0.000
REMARK  Name = 
REMARK  16 active torsions:
REMARK  status: ('A' for Active; 'I' for Inactive)
REMARK    1  A    between atoms: C_1  and  C_2
REMARK    2  A    between atoms: C_2  and  C_3
REMARK    3  A    between atoms: C_2  and  C_4
REMARK    4  A    between atoms: C_2  and  N_5
REMARK    5  A    between atoms: N_5  and  C_6
REMARK    6  A    between atoms: N_5  and  S_29
REMARK    7  A    between atoms: C_6  and  C_7
REMARK    8  A    between atoms: C_7  and  C_9
REMARK    9  A    between atoms: C_7  and  O_28
REMARK   10  A    between atoms: C_9  and  C_11
REMARK   11  A    between atoms: C_9  and  N_18
REMARK   12  A    between atoms: C_11  and  C_12
REMARK   13  A    between atoms: C_19  and  O_21
REMARK   14  A    between atoms: O_21  and  C_22
REMARK   15  A    between atoms: S_29  and  C_32
REMARK   16  A    between atoms: C_35  and  N_38
REMARK                            x       y       z     vdW  Elec       q    Type
REMARK                         _______ _______ _______ _____ _____    ______ ____
ROOT
ATOM      1  C   UNL     1       8.646   0.699  25.157  0.00  0.00    +0.151 C 
ENDROOT
BRANCH   1   2
ATOM      2  O   UNL     1       8.838   0.019  26.407  0.00  0.00    -0.389 OA
ATOM      3  H   UNL     1       9.360  -0.780  26.188  0.00  0.00    +0.210 HD
ENDBRANCH   1   2
BRANCH   1   4
ATOM      4  C   UNL     1       7.369   1.577  25.284  0.00  0.00    +0.143 C 
BRANCH   4   5
ATOM      5  N   UNL     1       7.635   3.078  25.720  0.00  0.00    -0.169 NA
BRANCH   5   7
ATOM      6  C   UNL     1       6.854   2.520  28.084  0.00  0.00    +0.029 C 
ATOM      7  C   UNL     1       6.708   3.504  26.899  0.00  0.00    +0.035 C 
ATOM      8  C   UNL     1       7.122   4.857  27.508  0.00  0.00    +0.029 C 
ATOM      9  C   UNL     1       5.233   3.576  26.487  0.00  0.00    +0.029 C 
ENDBRANCH   5   7
BRANCH   5  10
ATOM     10  S   UNL     1       7.777   4.106  24.316  0.00  0.00    +0.061 S 
ATOM     11  O   UNL     1       7.089   5.342  24.627  0.00  0.00    -0.153 OA
ATOM     12  O   UNL     1       7.373   3.312  23.171  0.00  0.00    -0.153 OA
BRANCH  10  13
ATOM     13  C   UNL     1       9.473   4.463  24.007  0.00  0.00    +0.106 A 
ATOM     14  C   UNL     1      10.331   3.460  23.550  0.00  0.00    +0.030 A 
ATOM     15  C   UNL     1      11.658   3.779  23.257  0.00  0.00    +0.024 A 
ATOM     16  C   UNL     1      12.123   5.091  23.393  0.00  0.00    +0.025 A 
ATOM     17  C   UNL     1      11.287   6.048  23.975  0.00  0.00    +0.024 A 
ATOM     18  C   UNL     1       9.961   5.745  24.279  0.00  0.00    +0.030 A 
BRANCH  16  19
ATOM     19  N   UNL     1      13.470   5.385  23.159  0.00  0.00    -0.358 N 
ATOM     20  H   UNL     1      13.803   6.205  23.657  0.00  0.00    +0.142 HD
ATOM     21  H   UNL     1      14.088   4.588  23.283  0.00  0.00    +0.142 HD
ENDBRANCH  16  19
ENDBRANCH  10  13
ENDBRANCH   5  10
ENDBRANCH   4   5
ENDBRANCH   1   4
BRANCH   1  22
ATOM     22  C   UNL     1       8.739  -0.348  24.001  0.00  0.00    +0.110 C 
BRANCH  22  23
ATOM     23  N   UNL     1       9.029  -1.698  24.483  0.00  0.00    -0.275 N 
ATOM     24  H   UNL     1       8.553  -2.071  25.292  0.00  0.00    +0.152 HD
ATOM     25  C   UNL     1       9.846  -2.564  23.815  0.00  0.00    +0.401 C 
ATOM     26  O   UNL     1      10.490  -2.269  22.822  0.00  0.00    -0.226 OA
BRANCH  25  27
ATOM     27  O   UNL     1       9.849  -3.776  24.418  0.00  0.00    -0.445 OA
BRANCH  27  28
ATOM     28  C   UNL     1       8.709  -4.022  25.252  0.00  0.00    +0.206 C 
ATOM     29  C   UNL     1       9.047  -4.650  26.600  0.00  0.00    +0.204 C 
ATOM     30  O   UNL     1       7.985  -5.560  26.935  0.00  0.00    -0.376 OA
ATOM     31  C   UNL     1       7.069  -5.599  25.835  0.00  0.00    +0.163 C 
ATOM     32  C   UNL     1       7.812  -5.071  24.634  0.00  0.00    +0.075 C 
ENDBRANCH  27  28
ENDBRANCH  25  27
ENDBRANCH  22  23
BRANCH  22  33
ATOM     33  C   UNL     1       7.363  -0.336  23.256  0.00  0.00    +0.060 C 
BRANCH  33  34
ATOM     34  C   UNL     1       6.444  -1.519  23.477  0.00  0.00    -0.046 A 
ATOM     35  C   UNL     1       6.220  -2.451  22.457  0.00  0.00    +0.004 A 
ATOM     36  C   UNL     1       5.313  -3.498  22.641  0.00  0.00    +0.000 A 
ATOM     37  C   UNL     1       4.617  -3.623  23.841  0.00  0.00    +0.000 A 
ATOM     38  C   UNL     1       4.822  -2.696  24.860  0.00  0.00    +0.000 A 
ATOM     39  C   UNL     1       5.727  -1.648  24.679  0.00  0.00    +0.004 A 
ENDBRANCH  33  34
ENDBRANCH  22  33
ENDBRANCH   1  22
TORSDOF 13
ENDMDL
MODEL 2
REMARK VINA RESULT:      -7.1      2.584      4.201
REMARK  Name = 
REMARK  16 active torsions:
REMARK  status: ('A' for Active; 'I' for Inactive)
REMARK    1  A    between atoms: C_1  and  C_2
REMARK    2  A    between atoms: C_2  and  C_3
REMARK    3  A    between atoms: C_2  and  C_4
REMARK    4  A    between atoms: C_2  and  N_5
REMARK    5  A    between atoms: N_5  and  C_6
REMARK    6  A    between atoms: N_5  and  S_29
REMARK    7  A    between atoms: C_6  and  C_7
REMARK    8  A    between atoms: C_7  and  C_9
REMARK    9  A    between atoms: C_7  and  O_28
REMARK   10  A    between atoms: C_9  and  C_11
REMARK   11  A    between atoms: C_9  and  N_18
REMARK   12  A    between atoms: C_11  and  C_12
REMARK   13  A    between atoms: C_19  and  O_21
REMARK   14  A    between atoms: O_21  and  C_22
REMARK   15  A    between atoms: S_29  and  C_32
REMARK   16  A    between atoms: C_35  and  N_38
REMARK                            x       y       z     vdW  Elec       q    Type
REMARK                         _______ _______ _______ _____ _____    ______ ____
ROOT
ATOM      1  C   UNL     1       8.452  -0.563  26.333  0.00  0.00    +0.151 C 
ENDROOT
BRANCH   1   2
ATOM      2  O   UNL     1       9.271  -0.505  27.511  0.00  0.00    -0.389 OA
ATOM      3  H   UNL     1       9.324  -1.428  27.833  0.00  0.00    +0.210 HD
ENDBRANCH   1   2
BRANCH   1   4
ATOM      4  C   UNL     1       6.987  -0.257  26.757  0.00  0.00    +0.143 C 
BRANCH   4   5
ATOM      5  N   UNL     1       6.513   1.230  26.481  0.00  0.00    -0.169 NA
BRANCH   5   7
ATOM      6  C   UNL     1       6.877   2.034  28.876  0.00  0.00    +0.029 C 
ATOM      7  C   UNL     1       5.841   1.859  27.740  0.00  0.00    +0.035 C 
ATOM      8  C   UNL     1       5.350   3.297  27.484  0.00  0.00    +0.029 C 
ATOM      9  C   UNL     1       4.667   1.020  28.257  0.00  0.00    +0.029 C 
ENDBRANCH   5   7
BRANCH   5  10
ATOM     10  S   UNL     1       5.718   1.341  24.930  0.00  0.00    +0.061 S 
ATOM     11  O   UNL     1       4.322   1.626  25.191  0.00  0.00    -0.153 OA
ATOM     12  O   UNL     1       6.096   0.158  24.179  0.00  0.00    -0.153 OA
BRANCH  10  13
ATOM     13  C   UNL     1       6.404   2.670  24.001  0.00  0.00    +0.106 A 
ATOM     14  C   UNL     1       6.070   2.833  22.655  0.00  0.00    +0.030 A 
ATOM     15  C   UNL     1       6.580   3.927  21.954  0.00  0.00    +0.024 A 
ATOM     16  C   UNL     1       7.398   4.864  22.592  0.00  0.00    +0.025 A 
ATOM     17  C   UNL     1       7.826   4.612  23.898  0.00  0.00    +0.024 A 
ATOM     18  C   UNL     1       7.331   3.522  24.612  0.00  0.00    +0.030 A 
BRANCH  16  19
ATOM     19  N   UNL     1       7.956   5.920  21.862  0.00  0.00    -0.358 N 
ATOM     20  H   UNL     1       8.780   6.326  22.295  0.00  0.00    +0.142 HD
ATOM     21  H   UNL     1       8.111   5.700  20.882  0.00  0.00    +0.142 HD
ENDBRANCH  16  19
ENDBRANCH  10  13
ENDBRANCH   5  10
ENDBRANCH   4   5
ENDBRANCH   1   4
BRANCH   1  22
ATOM     22  C   UNL     1       8.763  -1.893  25.575  0.00  0.00    +0.110 C 
BRANCH  22  23
ATOM     23  N   UNL     1       7.605  -2.412  24.846  0.00  0.00    -0.275 N 
ATOM     24  H   UNL     1       7.249  -1.932  24.033  0.00  0.00    +0.152 HD
ATOM     25  C   UNL     1       7.025  -3.614  25.136  0.00  0.00    +0.401 C 
ATOM     26  O   UNL     1       7.340  -4.315  26.083  0.00  0.00    -0.226 OA
BRANCH  25  27
ATOM     27  O   UNL     1       6.051  -3.899  24.240  0.00  0.00    -0.445 OA
BRANCH  27  28
ATOM     28  C   UNL     1       6.533  -4.232  22.932  0.00  0.00    +0.206 C 
ATOM     29  C   UNL     1       5.865  -3.451  21.805  0.00  0.00    +0.204 C 
ATOM     30  O   UNL     1       5.747  -4.332  20.675  0.00  0.00    -0.376 OA
ATOM     31  C   UNL     1       6.211  -5.628  21.070  0.00  0.00    +0.163 C 
ATOM     32  C   UNL     1       6.178  -5.659  22.578  0.00  0.00    +0.075 C 
ENDBRANCH  27  28
ENDBRANCH  25  27
ENDBRANCH  22  23
BRANCH  22  33
ATOM     33  C   UNL     1       9.927  -1.593  24.574  0.00  0.00    +0.060 C 
BRANCH  33  34
ATOM     34  C   UNL     1       9.821  -0.331  23.745  0.00  0.00    -0.046 A 
ATOM     35  C   UNL     1       9.134  -0.332  22.525  0.00  0.00    +0.004 A 
ATOM     36  C   UNL     1       9.103   0.816  21.728  0.00  0.00    +0.000 A 
ATOM     37  C   UNL     1       9.762   1.973  22.137  0.00  0.00    +0.000 A 
ATOM     38  C   UNL     1      10.459   1.984  23.342  0.00  0.00    +0.000 A 
ATOM     39  C   UNL     1      10.492   0.838  24.141  0.00  0.00    +0.004 A 
ENDBRANCH  33  34
ENDBRANCH  22  33
ENDBRANCH   1  22
TORSDOF 13
ENDMDL
MODEL 3
REMARK VINA RESULT:      -7.0      1.564      2.308
REMARK  Name = 
REMARK  16 active torsions:
REMARK  status: ('A' for Active; 'I' for Inactive)
REMARK    1  A    between atoms: C_1  and  C_2
REMARK    2  A    between atoms: C_2  and  C_3
REMARK    3  A    between atoms: C_2  and  C_4
REMARK    4  A    between atoms: C_2  and  N_5
REMARK    5  A    between atoms: N_5  and  C_6
REMARK    6  A    between atoms: N_5  and  S_29
REMARK    7  A    between atoms: C_6  and  C_7
REMARK    8  A    between atoms: C_7  and  C_9
REMARK    9  A    between atoms: C_7  and  O_28
REMARK   10  A    between atoms: C_9  and  C_11
REMARK   11  A    between atoms: C_9  and  N_18
REMARK   12  A    between atoms: C_11  and  C_12
REMARK   13  A    between atoms: C_19  and  O_21
REMARK   14  A    between atoms: O_21  and  C_22
REMARK   15  A    between atoms: S_29  and  C_32
REMARK   16  A    between atoms: C_35  and  N_38
REMARK                            x       y       z     vdW  Elec       q    Type
REMARK                         _______ _______ _______ _____ _____    ______ ____
ROOT
ATOM      1  C   UNL     1       9.101  -0.794  23.395  0.00  0.00    +0.151 C 
ENDROOT
BRANCH   1   2
ATOM      2  O   UNL     1       9.982  -0.471  24.483  0.00  0.00    -0.389 OA
ATOM      3  H   UNL     1       9.778  -1.125  25.182  0.00  0.00    +0.210 HD
ENDBRANCH   1   2
BRANCH   1   4
ATOM      4  C   UNL     1       7.825   0.082  23.540  0.00  0.00    +0.143 C 
BRANCH   4   5
ATOM      5  N   UNL     1       8.045   1.459  24.294  0.00  0.00    -0.169 NA
BRANCH   5   7
ATOM      6  C   UNL     1       5.680   1.343  25.243  0.00  0.00    +0.029 C 
ATOM      7  C   UNL     1       7.175   1.551  25.583  0.00  0.00    +0.035 C 
ATOM      8  C   UNL     1       7.475   0.410  26.574  0.00  0.00    +0.029 C 
ATOM      9  C   UNL     1       7.341   2.892  26.308  0.00  0.00    +0.029 C 
ENDBRANCH   5   7
BRANCH   5  10
ATOM     10  S   UNL     1       8.051   2.785  23.157  0.00  0.00    +0.061 S 
ATOM     11  O   UNL     1       6.860   3.567  23.416  0.00  0.00    -0.153 OA
ATOM     12  O   UNL     1       8.279   2.211  21.844  0.00  0.00    -0.153 OA
BRANCH  10  13
ATOM     13  C   UNL     1       9.465   3.798  23.429  0.00  0.00    +0.106 A 
ATOM     14  C   UNL     1      10.749   3.273  23.263  0.00  0.00    +0.030 A 
ATOM     15  C   UNL     1      11.854   4.110  23.427  0.00  0.00    +0.024 A 
ATOM     16  C   UNL     1      11.684   5.464  23.731  0.00  0.00    +0.025 A 
ATOM     17  C   UNL     1      10.401   5.937  24.022  0.00  0.00    +0.024 A 
ATOM     18  C   UNL     1       9.287   5.114  23.868  0.00  0.00    +0.030 A 
BRANCH  16  19
ATOM     19  N   UNL     1      12.800   6.277  23.958  0.00  0.00    -0.358 N 
ATOM     20  H   UNL     1      12.665   6.959  24.698  0.00  0.00    +0.142 HD
ATOM     21  H   UNL     1      13.666   5.757  24.071  0.00  0.00    +0.142 HD
ENDBRANCH  16  19
ENDBRANCH  10  13
ENDBRANCH   5  10
ENDBRANCH   4   5
ENDBRANCH   1   4
BRANCH   1  22
ATOM     22  C   UNL     1       8.953  -2.348  23.320  0.00  0.00    +0.110 C 
BRANCH  22  23
ATOM     23  N   UNL     1       8.484  -2.933  24.576  0.00  0.00    -0.275 N 
ATOM     24  H   UNL     1       7.639  -2.600  25.016  0.00  0.00    +0.152 HD
ATOM     25  C   UNL     1       9.073  -4.021  25.152  0.00  0.00    +0.401 C 
ATOM     26  O   UNL     1      10.098  -4.542  24.742  0.00  0.00    -0.226 OA
BRANCH  25  27
ATOM     27  O   UNL     1       8.374  -4.420  26.239  0.00  0.00    -0.445 OA
BRANCH  27  28
ATOM     28  C   UNL     1       6.950  -4.356  26.081  0.00  0.00    +0.206 C 
ATOM     29  C   UNL     1       6.233  -3.603  27.196  0.00  0.00    +0.204 C 
ATOM     30  O   UNL     1       4.973  -4.258  27.423  0.00  0.00    -0.376 OA
ATOM     31  C   UNL     1       4.917  -5.418  26.585  0.00  0.00    +0.163 C 
ATOM     32  C   UNL     1       6.337  -5.734  26.187  0.00  0.00    +0.075 C 
ENDBRANCH  27  28
ENDBRANCH  25  27
ENDBRANCH  22  23
BRANCH  22  33
ATOM     33  C   UNL     1       7.932  -2.659  22.176  0.00  0.00    +0.060 C 
BRANCH  33  34
ATOM     34  C   UNL     1       6.886  -3.719  22.450  0.00  0.00    -0.046 A 
ATOM     35  C   UNL     1       7.162  -5.072  22.218  0.00  0.00    +0.004 A 
ATOM     36  C   UNL     1       6.169  -6.039  22.400  0.00  0.00    +0.000 A 
ATOM     37  C   UNL     1       4.891  -5.665  22.810  0.00  0.00    +0.000 A 
ATOM     38  C   UNL     1       4.601  -4.322  23.033  0.00  0.00    +0.000 A 
ATOM     39  C   UNL     1       5.591  -3.353  22.851  0.00  0.00    +0.004 A 
ENDBRANCH  33  34
ENDBRANCH  22  33
ENDBRANCH   1  22
TORSDOF 13
ENDMDL
MODEL 4
REMARK VINA RESULT:      -7.0      2.348      3.374
REMARK  Name = 
REMARK  16 active torsions:
REMARK  status: ('A' for Active; 'I' for Inactive)
REMARK    1  A    between atoms: C_1  and  C_2
REMARK    2  A    between atoms: C_2  and  C_3
REMARK    3  A    between atoms: C_2  and  C_4
REMARK    4  A    between atoms: C_2  and  N_5
REMARK    5  A    between atoms: N_5  and  C_6
REMARK    6  A    between atoms: N_5  and  S_29
REMARK    7  A    between atoms: C_6  and  C_7
REMARK    8  A    between atoms: C_7  and  C_9
REMARK    9  A    between atoms: C_7  and  O_28
REMARK   10  A    between atoms: C_9  and  C_11
REMARK   11  A    between atoms: C_9  and  N_18
REMARK   12  A    between atoms: C_11  and  C_12
REMARK   13  A    between atoms: C_19  and  O_21
REMARK   14  A    between atoms: O_21  and  C_22
REMARK   15  A    between atoms: S_29  and  C_32
REMARK   16  A    between atoms: C_35  and  N_38
REMARK                            x       y       z     vdW  Elec       q    Type
REMARK                         _______ _______ _______ _____ _____    ______ ____
ROOT
ATOM      1  C   UNL     1       9.649  -1.620  23.112  0.00  0.00    +0.151 C 
ENDROOT
BRANCH   1   2
ATOM      2  O   UNL     1      10.928  -1.871  22.510  0.00  0.00    -0.389 OA
ATOM      3  H   UNL     1      10.764  -2.558  21.833  0.00  0.00    +0.210 HD
ENDBRANCH   1   2
BRANCH   1   4
ATOM      4  C   UNL     1       9.886  -0.780  24.400  0.00  0.00    +0.143 C 
BRANCH   4   5
ATOM      5  N   UNL     1       9.080   0.583  24.461  0.00  0.00    -0.169 NA
BRANCH   5   7
ATOM      6  C   UNL     1       8.154  -0.391  26.630  0.00  0.00    +0.029 C 
ATOM      7  C   UNL     1       7.830   0.469  25.385  0.00  0.00    +0.035 C 
ATOM      8  C   UNL     1       7.422   1.826  25.988  0.00  0.00    +0.029 C 
ATOM      9  C   UNL     1       6.621  -0.135  24.661  0.00  0.00    +0.029 C 
ENDBRANCH   5   7
BRANCH   5  10
ATOM     10  S   UNL     1       8.915   1.268  22.863  0.00  0.00    +0.061 S 
ATOM     11  O   UNL     1       7.758   0.645  22.255  0.00  0.00    -0.153 OA
ATOM     12  O   UNL     1      10.216   1.174  22.229  0.00  0.00    -0.153 OA
BRANCH  10  13
ATOM     13  C   UNL     1       8.628   3.002  22.984  0.00  0.00    +0.106 A 
ATOM     14  C   UNL     1       7.525   3.577  22.348  0.00  0.00    +0.030 A 
ATOM     15  C   UNL     1       7.284   4.943  22.505  0.00  0.00    +0.024 A 
ATOM     16  C   UNL     1       8.120   5.727  23.306  0.00  0.00    +0.025 A 
ATOM     17  C   UNL     1       9.289   5.160  23.823  0.00  0.00    +0.024 A 
ATOM     18  C   UNL     1       9.547   3.799  23.672  0.00  0.00    +0.030 A 
BRANCH  16  19
ATOM     19  N   UNL     1       7.907   7.107  23.402  0.00  0.00    -0.358 N 
ATOM     20  H   UNL     1       7.435   7.505  22.597  0.00  0.00    +0.142 HD
ATOM     21  H   UNL     1       7.475   7.392  24.277  0.00  0.00    +0.142 HD
ENDBRANCH  16  19
ENDBRANCH  10  13
ENDBRANCH   5  10
ENDBRANCH   4   5
ENDBRANCH   1   4
BRANCH   1  22
ATOM     22  C   UNL     1       8.874  -2.973  23.217  0.00  0.00    +0.110 C 
BRANCH  22  23
ATOM     23  N   UNL     1       8.437  -3.269  24.581  0.00  0.00    -0.275 N 
ATOM     24  H   UNL     1       7.677  -2.756  25.003  0.00  0.00    +0.152 HD
ATOM     25  C   UNL     1       8.930  -4.315  25.306  0.00  0.00    +0.401 C 
ATOM     26  O   UNL     1       9.847  -5.032  24.938  0.00  0.00    -0.226 OA
BRANCH  25  27
ATOM     27  O   UNL     1       8.275  -4.427  26.485  0.00  0.00    -0.445 OA
BRANCH  27  28
ATOM     28  C   UNL     1       6.846  -4.411  26.369  0.00  0.00    +0.206 C 
ATOM     29  C   UNL     1       6.120  -4.056  27.662  0.00  0.00    +0.204 C 
ATOM     30  O   UNL     1       4.908  -4.828  27.706  0.00  0.00    -0.376 OA
ATOM     31  C   UNL     1       4.894  -5.701  26.572  0.00  0.00    +0.163 C 
ATOM     32  C   UNL     1       6.317  -5.799  26.083  0.00  0.00    +0.075 C 
ENDBRANCH  27  28
ENDBRANCH  25  27
ENDBRANCH  22  23
BRANCH  22  33
ATOM     33  C   UNL     1       7.631  -2.867  22.274  0.00  0.00    +0.060 C 
BRANCH  33  34
ATOM     34  C   UNL     1       6.570  -3.939  22.402  0.00  0.00    -0.046 A 
ATOM     35  C   UNL     1       5.301  -3.633  22.907  0.00  0.00    +0.004 A 
ATOM     36  C   UNL     1       4.350  -4.640  23.094  0.00  0.00    +0.000 A 
ATOM     37  C   UNL     1       4.658  -5.963  22.783  0.00  0.00    +0.000 A 
ATOM     38  C   UNL     1       5.920  -6.283  22.290  0.00  0.00    +0.000 A 
ATOM     39  C   UNL     1       6.872  -5.278  22.104  0.00  0.00    +0.004 A 
ENDBRANCH  33  34
ENDBRANCH  22  33
ENDBRANCH   1  22
TORSDOF 13
ENDMDL
MODEL 5
REMARK VINA RESULT:      -6.9      3.808      8.952
REMARK  Name = 
REMARK  16 active torsions:
REMARK  status: ('A' for Active; 'I' for Inactive)
REMARK    1  A    between atoms: C_1  and  C_2
REMARK    2  A    between atoms: C_2  and  C_3
REMARK    3  A    between atoms: C_2  and  C_4
REMARK    4  A    between atoms: C_2  and  N_5
REMARK    5  A    between atoms: N_5  and  C_6
REMARK    6  A    between atoms: N_5  and  S_29
REMARK    7  A    between atoms: C_6  and  C_7
REMARK    8  A    between atoms: C_7  and  C_9
REMARK    9  A    between atoms: C_7  and  O_28
REMARK   10  A    between atoms: C_9  and  C_11
REMARK   11  A    between atoms: C_9  and  N_18
REMARK   12  A    between atoms: C_11  and  C_12
REMARK   13  A    between atoms: C_19  and  O_21
REMARK   14  A    between atoms: O_21  and  C_22
REMARK   15  A    between atoms: S_29  and  C_32
REMARK   16  A    between atoms: C_35  and  N_38
REMARK                            x       y       z     vdW  Elec       q    Type
REMARK                         _______ _______ _______ _____ _____    ______ ____
ROOT
ATOM      1  C   UNL     1       7.525  -4.526  27.124  0.00  0.00    +0.151 C 
ENDROOT
BRANCH   1   2
ATOM      2  O   UNL     1       7.907  -5.887  26.877  0.00  0.00    -0.389 OA
ATOM      3  H   UNL     1       7.087  -6.409  26.988  0.00  0.00    +0.210 HD
ENDBRANCH   1   2
BRANCH   1   4
ATOM      4  C   UNL     1       6.137  -4.541  27.826  0.00  0.00    +0.143 C 
BRANCH   4   5
ATOM      5  N   UNL     1       4.900  -4.689  26.847  0.00  0.00    -0.169 NA
BRANCH   5   7
ATOM      6  C   UNL     1       4.295  -2.578  28.148  0.00  0.00    +0.029 C 
ATOM      7  C   UNL     1       3.975  -3.435  26.900  0.00  0.00    +0.035 C 
ATOM      8  C   UNL     1       4.235  -2.467  25.730  0.00  0.00    +0.029 C 
ATOM      9  C   UNL     1       2.487  -3.805  26.915  0.00  0.00    +0.029 C 
ENDBRANCH   5   7
BRANCH   5  10
ATOM     10  S   UNL     1       4.202  -6.284  26.981  0.00  0.00    +0.061 S 
ATOM     11  O   UNL     1       3.221  -6.228  28.045  0.00  0.00    -0.153 OA
ATOM     12  O   UNL     1       5.307  -7.221  27.053  0.00  0.00    -0.153 OA
BRANCH  10  13
ATOM     13  C   UNL     1       3.386  -6.707  25.479  0.00  0.00    +0.106 A 
ATOM     14  C   UNL     1       3.708  -6.042  24.293  0.00  0.00    +0.030 A 
ATOM     15  C   UNL     1       3.091  -6.433  23.103  0.00  0.00    +0.024 A 
ATOM     16  C   UNL     1       2.178  -7.492  23.088  0.00  0.00    +0.025 A 
ATOM     17  C   UNL     1       1.772  -8.053  24.303  0.00  0.00    +0.024 A 
ATOM     18  C   UNL     1       2.374  -7.671  25.500  0.00  0.00    +0.030 A 
BRANCH  16  19
ATOM     19  N   UNL     1       1.517  -7.831  21.903  0.00  0.00    -0.358 N 
ATOM     20  H   UNL     1       1.216  -7.028  21.358  0.00  0.00    +0.142 HD
ATOM     21  H   UNL     1       2.019  -8.509  21.336  0.00  0.00    +0.142 HD
ENDBRANCH  16  19
ENDBRANCH  10  13
ENDBRANCH   5  10
ENDBRANCH   4   5
ENDBRANCH   1   4
BRANCH   1  22
ATOM     22  C   UNL     1       7.702  -3.711  25.802  0.00  0.00    +0.110 C 
BRANCH  22  23
ATOM     23  N   UNL     1       8.654  -2.609  25.940  0.00  0.00    -0.275 N 
ATOM     24  H   UNL     1       9.598  -2.696  25.595  0.00  0.00    +0.152 HD
ATOM     25  C   UNL     1       8.300  -1.380  26.418  0.00  0.00    +0.401 C 
ATOM     26  O   UNL     1       7.199  -1.112  26.870  0.00  0.00    -0.226 OA
BRANCH  25  27
ATOM     27  O   UNL     1       9.341  -0.519  26.333  0.00  0.00    -0.445 OA
BRANCH  27  28
ATOM     28  C   UNL     1       9.485   0.108  25.052  0.00  0.00    +0.206 C 
ATOM     29  C   UNL     1      10.907   0.557  24.734  0.00  0.00    +0.204 C 
ATOM     30  O   UNL     1      10.820   1.781  23.986  0.00  0.00    -0.376 OA
ATOM     31  C   UNL     1       9.441   2.159  23.909  0.00  0.00    +0.163 C 
ATOM     32  C   UNL     1       8.726   1.416  25.009  0.00  0.00    +0.075 C 
ENDBRANCH  27  28
ENDBRANCH  25  27
ENDBRANCH  22  23
BRANCH  22  33
ATOM     33  C   UNL     1       8.203  -4.710  24.708  0.00  0.00    +0.060 C 
BRANCH  33  34
ATOM     34  C   UNL     1       7.451  -4.735  23.394  0.00  0.00    -0.046 A 
ATOM     35  C   UNL     1       6.629  -3.665  23.020  0.00  0.00    +0.004 A 
ATOM     36  C   UNL     1       5.878  -3.725  21.843  0.00  0.00    +0.000 A 
ATOM     37  C   UNL     1       5.935  -4.855  21.031  0.00  0.00    +0.000 A 
ATOM     38  C   UNL     1       6.740  -5.932  21.397  0.00  0.00    +0.000 A 
ATOM     39  C   UNL     1       7.490  -5.874  22.573  0.00  0.00    +0.004 A 
ENDBRANCH  33  34
ENDBRANCH  22  33
ENDBRANCH   1  22
TORSDOF 13
ENDMDL
MODEL 6
REMARK VINA RESULT:      -6.9      2.998      6.364
REMARK  Name = 
REMARK  16 active torsions:
REMARK  status: ('A' for Active; 'I' for Inactive)
REMARK    1  A    between atoms: C_1  and  C_2
REMARK    2  A    between atoms: C_2  and  C_3
REMARK    3  A    between atoms: C_2  and  C_4
REMARK    4  A    between atoms: C_2  and  N_5
REMARK    5  A    between atoms: N_5  and  C_6
REMARK    6  A    between atoms: N_5  and  S_29
REMARK    7  A    between atoms: C_6  and  C_7
REMARK    8  A    between atoms: C_7  and  C_9
REMARK    9  A    between atoms: C_7  and  O_28
REMARK   10  A    between atoms: C_9  and  C_11
REMARK   11  A    between atoms: C_9  and  N_18
REMARK   12  A    between atoms: C_11  and  C_12
REMARK   13  A    between atoms: C_19  and  O_21
REMARK   14  A    between atoms: O_21  and  C_22
REMARK   15  A    between atoms: S_29  and  C_32
REMARK   16  A    between atoms: C_35  and  N_38
REMARK                            x       y       z     vdW  Elec       q    Type
REMARK                         _______ _______ _______ _____ _____    ______ ____
ROOT
ATOM      1  C   UNL     1       8.024  -1.196  26.783  0.00  0.00    +0.151 C 
ENDROOT
BRANCH   1   2
ATOM      2  O   UNL     1       9.136  -0.420  27.253  0.00  0.00    -0.389 OA
ATOM      3  H   UNL     1       9.859  -0.594  26.616  0.00  0.00    +0.210 HD
ENDBRANCH   1   2
BRANCH   1   4
ATOM      4  C   UNL     1       8.574  -2.276  25.808  0.00  0.00    +0.143 C 
BRANCH   4   5
ATOM      5  N   UNL     1       7.943  -2.243  24.355  0.00  0.00    -0.169 NA
BRANCH   5   7
ATOM      6  C   UNL     1       7.460  -4.629  23.589  0.00  0.00    +0.029 C 
ATOM      7  C   UNL     1       6.847  -3.338  24.182  0.00  0.00    +0.035 C 
ATOM      8  C   UNL     1       6.271  -3.807  25.532  0.00  0.00    +0.029 C 
ATOM      9  C   UNL     1       5.692  -2.874  23.286  0.00  0.00    +0.029 C 
ENDBRANCH   5   7
BRANCH   5  10
ATOM     10  S   UNL     1       9.194  -2.074  23.149  0.00  0.00    +0.061 S 
ATOM     11  O   UNL     1       8.596  -2.403  21.872  0.00  0.00    -0.153 OA
ATOM     12  O   UNL     1      10.346  -2.813  23.631  0.00  0.00    -0.153 OA
BRANCH  10  13
ATOM     13  C   UNL     1       9.754  -0.405  23.099  0.00  0.00    +0.106 A 
ATOM     14  C   UNL     1       9.556   0.369  21.953  0.00  0.00    +0.030 A 
ATOM     15  C   UNL     1       9.955   1.707  21.957  0.00  0.00    +0.024 A 
ATOM     16  C   UNL     1      10.526   2.277  23.099  0.00  0.00    +0.025 A 
ATOM     17  C   UNL     1      10.835   1.454  24.185  0.00  0.00    +0.024 A 
ATOM     18  C   UNL     1      10.448   0.115  24.196  0.00  0.00    +0.030 A 
BRANCH  16  19
ATOM     19  N   UNL     1      10.982   3.600  23.068  0.00  0.00    -0.358 N 
ATOM     20  H   UNL     1      10.893   4.084  23.956  0.00  0.00    +0.142 HD
ATOM     21  H   UNL     1      11.912   3.701  22.671  0.00  0.00    +0.142 HD
ENDBRANCH  16  19
ENDBRANCH  10  13
ENDBRANCH   5  10
ENDBRANCH   4   5
ENDBRANCH   1   4
BRANCH   1  22
ATOM     22  C   UNL     1       6.909  -0.220  26.287  0.00  0.00    +0.110 C 
BRANCH  22  23
ATOM     23  N   UNL     1       5.791  -0.115  27.224  0.00  0.00    -0.275 N 
ATOM     24  H   UNL     1       5.921   0.289  28.140  0.00  0.00    +0.152 HD
ATOM     25  C   UNL     1       4.508  -0.432  26.884  0.00  0.00    +0.401 C 
ATOM     26  O   UNL     1       4.184  -0.927  25.817  0.00  0.00    -0.226 OA
BRANCH  25  27
ATOM     27  O   UNL     1       3.661  -0.136  27.898  0.00  0.00    -0.445 OA
BRANCH  27  28
ATOM     28  C   UNL     1       3.878   1.151  28.491  0.00  0.00    +0.206 C 
ATOM     29  C   UNL     1       3.319   1.289  29.903  0.00  0.00    +0.204 C 
ATOM     30  O   UNL     1       2.834   2.635  30.050  0.00  0.00    -0.376 OA
ATOM     31  C   UNL     1       2.974   3.299  28.789  0.00  0.00    +0.163 C 
ATOM     32  C   UNL     1       3.111   2.220  27.744  0.00  0.00    +0.075 C 
ENDBRANCH  27  28
ENDBRANCH  25  27
ENDBRANCH  22  23
BRANCH  22  33
ATOM     33  C   UNL     1       7.575   1.183  26.098  0.00  0.00    +0.060 C 
BRANCH  33  34
ATOM     34  C   UNL     1       7.191   1.973  24.865  0.00  0.00    -0.046 A 
ATOM     35  C   UNL     1       6.558   1.349  23.784  0.00  0.00    +0.004 A 
ATOM     36  C   UNL     1       6.274   2.065  22.618  0.00  0.00    +0.000 A 
ATOM     37  C   UNL     1       6.623   3.410  22.518  0.00  0.00    +0.000 A 
ATOM     38  C   UNL     1       7.264   4.041  23.581  0.00  0.00    +0.000 A 
ATOM     39  C   UNL     1       7.550   3.326  24.747  0.00  0.00    +0.004 A 
ENDBRANCH  33  34
ENDBRANCH  22  33
ENDBRANCH   1  22
TORSDOF 13
ENDMDL
MODEL 7
REMARK VINA RESULT:      -6.8      3.113      5.890
REMARK  Name = 
REMARK  16 active torsions:
REMARK  status: ('A' for Active; 'I' for Inactive)
REMARK    1  A    between atoms: C_1  and  C_2
REMARK    2  A    between atoms: C_2  and  C_3
REMARK    3  A    between atoms: C_2  and  C_4
REMARK    4  A    between atoms: C_2  and  N_5
REMARK    5  A    between atoms: N_5  and  C_6
REMARK    6  A    between atoms: N_5  and  S_29
REMARK    7  A    between atoms: C_6  and  C_7
REMARK    8  A    between atoms: C_7  and  C_9
REMARK    9  A    between atoms: C_7  and  O_28
REMARK   10  A    between atoms: C_9  and  C_11
REMARK   11  A    between atoms: C_9  and  N_18
REMARK   12  A    between atoms: C_11  and  C_12
REMARK   13  A    between atoms: C_19  and  O_21
REMARK   14  A    between atoms: O_21  and  C_22
REMARK   15  A    between atoms: S_29  and  C_32
REMARK   16  A    between atoms: C_35  and  N_38
REMARK                            x       y       z     vdW  Elec       q    Type
REMARK                         _______ _______ _______ _____ _____    ______ ____
ROOT
ATOM      1  C   UNL     1       8.193  -1.220  26.708  0.00  0.00    +0.151 C 
ENDROOT
BRANCH   1   2
ATOM      2  O   UNL     1       9.338  -0.397  26.976  0.00  0.00    -0.389 OA
ATOM      3  H   UNL     1       9.593  -0.019  26.110  0.00  0.00    +0.210 HD
ENDBRANCH   1   2
BRANCH   1   4
ATOM      4  C   UNL     1       8.638  -2.354  25.742  0.00  0.00    +0.143 C 
BRANCH   4   5
ATOM      5  N   UNL     1       8.037  -2.256  24.279  0.00  0.00    -0.169 NA
BRANCH   5   7
ATOM      6  C   UNL     1       7.564  -4.607  23.405  0.00  0.00    +0.029 C 
ATOM      7  C   UNL     1       6.941  -3.339  24.036  0.00  0.00    +0.035 C 
ATOM      8  C   UNL     1       6.334  -3.860  25.352  0.00  0.00    +0.029 C 
ATOM      9  C   UNL     1       5.809  -2.834  23.134  0.00  0.00    +0.029 C 
ENDBRANCH   5   7
BRANCH   5  10
ATOM     10  S   UNL     1       9.312  -2.039  23.106  0.00  0.00    +0.061 S 
ATOM     11  O   UNL     1       8.766  -2.404  21.816  0.00  0.00    -0.153 OA
ATOM     12  O   UNL     1      10.482  -2.722  23.626  0.00  0.00    -0.153 OA
BRANCH  10  13
ATOM     13  C   UNL     1       9.797  -0.346  23.059  0.00  0.00    +0.106 A 
ATOM     14  C   UNL     1       9.518   0.434  21.934  0.00  0.00    +0.030 A 
ATOM     15  C   UNL     1       9.860   1.787  21.942  0.00  0.00    +0.024 A 
ATOM     16  C   UNL     1      10.453   2.366  23.067  0.00  0.00    +0.025 A 
ATOM     17  C   UNL     1      10.843   1.542  24.127  0.00  0.00    +0.024 A 
ATOM     18  C   UNL     1      10.515   0.188  24.134  0.00  0.00    +0.030 A 
BRANCH  16  19
ATOM     19  N   UNL     1      10.851   3.708  23.038  0.00  0.00    -0.358 N 
ATOM     20  H   UNL     1      11.858   3.837  23.067  0.00  0.00    +0.142 HD
ATOM     21  H   UNL     1      10.420   4.244  22.290  0.00  0.00    +0.142 HD
ENDBRANCH  16  19
ENDBRANCH  10  13
ENDBRANCH   5  10
ENDBRANCH   4   5
ENDBRANCH   1   4
BRANCH   1  22
ATOM     22  C   UNL     1       7.000  -0.296  26.299  0.00  0.00    +0.110 C 
BRANCH  22  23
ATOM     23  N   UNL     1       5.872  -0.386  27.226  0.00  0.00    -0.275 N 
ATOM     24  H   UNL     1       5.979  -0.123  28.195  0.00  0.00    +0.152 HD
ATOM     25  C   UNL     1       4.606  -0.700  26.825  0.00  0.00    +0.401 C 
ATOM     26  O   UNL     1       4.312  -1.038  25.690  0.00  0.00    -0.226 OA
BRANCH  25  27
ATOM     27  O   UNL     1       3.741  -0.602  27.861  0.00  0.00    -0.445 OA
BRANCH  27  28
ATOM     28  C   UNL     1       3.934  -1.586  28.885  0.00  0.00    +0.206 C 
ATOM     29  C   UNL     1       3.849  -3.026  28.390  0.00  0.00    +0.204 C 
ATOM     30  O   UNL     1       3.234  -3.808  29.428  0.00  0.00    -0.376 OA
ATOM     31  C   UNL     1       2.850  -2.922  30.485  0.00  0.00    +0.163 C 
ATOM     32  C   UNL     1       2.808  -1.535  29.894  0.00  0.00    +0.075 C 
ENDBRANCH  27  28
ENDBRANCH  25  27
ENDBRANCH  22  23
BRANCH  22  33
ATOM     33  C   UNL     1       7.543   1.170  26.264  0.00  0.00    +0.060 C 
BRANCH  33  34
ATOM     34  C   UNL     1       7.285   1.976  25.009  0.00  0.00    -0.046 A 
ATOM     35  C   UNL     1       7.620   3.334  24.950  0.00  0.00    +0.004 A 
ATOM     36  C   UNL     1       7.311   4.092  23.816  0.00  0.00    +0.000 A 
ATOM     37  C   UNL     1       6.661   3.503  22.734  0.00  0.00    +0.000 A 
ATOM     38  C   UNL     1       6.312   2.156  22.785  0.00  0.00    +0.000 A 
ATOM     39  C   UNL     1       6.619   1.397  23.917  0.00  0.00    +0.004 A 
ENDBRANCH  33  34
ENDBRANCH  22  33
ENDBRANCH   1  22
TORSDOF 13
ENDMDL
MODEL 8
REMARK VINA RESULT:      -6.8      2.882      4.795
REMARK  Name = 
REMARK  16 active torsions:
REMARK  status: ('A' for Active; 'I' for Inactive)
REMARK    1  A    between atoms: C_1  and  C_2
REMARK    2  A    between atoms: C_2  and  C_3
REMARK    3  A    between atoms: C_2  and  C_4
REMARK    4  A    between atoms: C_2  and  N_5
REMARK    5  A    between atoms: N_5  and  C_6
REMARK    6  A    between atoms: N_5  and  S_29
REMARK    7  A    between atoms: C_6  and  C_7
REMARK    8  A    between atoms: C_7  and  C_9
REMARK    9  A    between atoms: C_7  and  O_28
REMARK   10  A    between atoms: C_9  and  C_11
REMARK   11  A    between atoms: C_9  and  N_18
REMARK   12  A    between atoms: C_11  and  C_12
REMARK   13  A    between atoms: C_19  and  O_21
REMARK   14  A    between atoms: O_21  and  C_22
REMARK   15  A    between atoms: S_29  and  C_32
REMARK   16  A    between atoms: C_35  and  N_38
REMARK                            x       y       z     vdW  Elec       q    Type
REMARK                         _______ _______ _______ _____ _____    ______ ____
ROOT
ATOM      1  C   UNL     1       7.334  -3.082  23.762  0.00  0.00    +0.151 C 
ENDROOT
BRANCH   1   2
ATOM      2  O   UNL     1       7.391  -3.074  22.327  0.00  0.00    -0.389 OA
ATOM      3  H   UNL     1       6.826  -3.821  22.043  0.00  0.00    +0.210 HD
ENDBRANCH   1   2
BRANCH   1   4
ATOM      4  C   UNL     1       8.372  -2.049  24.285  0.00  0.00    +0.143 C 
BRANCH   4   5
ATOM      5  N   UNL     1       8.326  -0.637  23.567  0.00  0.00    -0.169 NA
BRANCH   5   7
ATOM      6  C   UNL     1      10.610   0.429  23.967  0.00  0.00    +0.029 C 
ATOM      7  C   UNL     1       9.702  -0.274  22.930  0.00  0.00    +0.035 C 
ATOM      8  C   UNL     1      10.513  -1.523  22.537  0.00  0.00    +0.029 C 
ATOM      9  C   UNL     1       9.556   0.629  21.699  0.00  0.00    +0.029 C 
ENDBRANCH   5   7
BRANCH   5  10
ATOM     10  S   UNL     1       7.500   0.531  24.568  0.00  0.00    +0.061 S 
ATOM     11  O   UNL     1       8.278   0.671  25.782  0.00  0.00    -0.153 OA
ATOM     12  O   UNL     1       6.110   0.122  24.632  0.00  0.00    -0.153 OA
BRANCH  10  13
ATOM     13  C   UNL     1       7.446   2.088  23.747  0.00  0.00    +0.106 A 
ATOM     14  C   UNL     1       8.282   3.129  24.158  0.00  0.00    +0.030 A 
ATOM     15  C   UNL     1       8.263   4.336  23.456  0.00  0.00    +0.024 A 
ATOM     16  C   UNL     1       7.437   4.499  22.339  0.00  0.00    +0.025 A 
ATOM     17  C   UNL     1       6.516   3.494  22.027  0.00  0.00    +0.024 A 
ATOM     18  C   UNL     1       6.517   2.286  22.720  0.00  0.00    +0.030 A 
BRANCH  16  19
ATOM     19  N   UNL     1       7.379   5.734  21.684  0.00  0.00    -0.358 N 
ATOM     20  H   UNL     1       8.065   5.836  20.943  0.00  0.00    +0.142 HD
ATOM     21  H   UNL     1       6.445   5.987  21.376  0.00  0.00    +0.142 HD
ENDBRANCH  16  19
ENDBRANCH  10  13
ENDBRANCH   5  10
ENDBRANCH   4   5
ENDBRANCH   1   4
BRANCH   1  22
ATOM     22  C   UNL     1       7.417  -4.562  24.255  0.00  0.00    +0.110 C 
BRANCH  22  23
ATOM     23  N   UNL     1       6.954  -4.725  25.633  0.00  0.00    -0.275 N 
ATOM     24  H   UNL     1       5.969  -4.802  25.841  0.00  0.00    +0.152 HD
ATOM     25  C   UNL     1       7.805  -4.907  26.684  0.00  0.00    +0.401 C 
ATOM     26  O   UNL     1       9.021  -4.845  26.600  0.00  0.00    -0.226 OA
BRANCH  25  27
ATOM     27  O   UNL     1       7.111  -5.143  27.823  0.00  0.00    -0.445 OA
BRANCH  27  28
ATOM     28  C   UNL     1       5.698  -5.284  27.632  0.00  0.00    +0.206 C 
ATOM     29  C   UNL     1       4.854  -4.426  28.570  0.00  0.00    +0.204 C 
ATOM     30  O   UNL     1       3.672  -5.175  28.900  0.00  0.00    -0.376 OA
ATOM     31  C   UNL     1       3.784  -6.471  28.301  0.00  0.00    +0.163 C 
ATOM     32  C   UNL     1       5.246  -6.681  27.994  0.00  0.00    +0.075 C 
ENDBRANCH  27  28
ENDBRANCH  25  27
ENDBRANCH  22  23
BRANCH  22  33
ATOM     33  C   UNL     1       6.531  -5.420  23.293  0.00  0.00    +0.060 C 
BRANCH  33  34
ATOM     34  C   UNL     1       5.098  -5.674  23.711  0.00  0.00    -0.046 A 
ATOM     35  C   UNL     1       4.729  -6.888  24.302  0.00  0.00    +0.004 A 
ATOM     36  C   UNL     1       3.392  -7.146  24.617  0.00  0.00    +0.000 A 
ATOM     37  C   UNL     1       2.410  -6.198  24.341  0.00  0.00    +0.000 A 
ATOM     38  C   UNL     1       2.761  -4.990  23.743  0.00  0.00    +0.000 A 
ATOM     39  C   UNL     1       4.097  -4.730  23.427  0.00  0.00    +0.004 A 
ENDBRANCH  33  34
ENDBRANCH  22  33
ENDBRANCH   1  22
TORSDOF 13
ENDMDL
MODEL 9
REMARK VINA RESULT:      -6.6      2.772      3.493
REMARK  Name = 
REMARK  16 active torsions:
REMARK  status: ('A' for Active; 'I' for Inactive)
REMARK    1  A    between atoms: C_1  and  C_2
REMARK    2  A    between atoms: C_2  and  C_3
REMARK    3  A    between atoms: C_2  and  C_4
REMARK    4  A    between atoms: C_2  and  N_5
REMARK    5  A    between atoms: N_5  and  C_6
REMARK    6  A    between atoms: N_5  and  S_29
REMARK    7  A    between atoms: C_6  and  C_7
REMARK    8  A    between atoms: C_7  and  C_9
REMARK    9  A    between atoms: C_7  and  O_28
REMARK   10  A    between atoms: C_9  and  C_11
REMARK   11  A    between atoms: C_9  and  N_18
REMARK   12  A    between atoms: C_11  and  C_12
REMARK   13  A    between atoms: C_19  and  O_21
REMARK   14  A    between atoms: O_21  and  C_22
REMARK   15  A    between atoms: S_29  and  C_32
REMARK   16  A    between atoms: C_35  and  N_38
REMARK                            x       y       z     vdW  Elec       q    Type
REMARK                         _______ _______ _______ _____ _____    ______ ____
ROOT
ATOM      1  C   UNL     1       6.063   0.559  25.067  0.00  0.00    +0.151 C 
ENDROOT
BRANCH   1   2
ATOM      2  O   UNL     1       4.729   0.249  25.500  0.00  0.00    -0.389 OA
ATOM      3  H   UNL     1       4.738  -0.711  25.693  0.00  0.00    +0.210 HD
ENDBRANCH   1   2
BRANCH   1   4
ATOM      4  C   UNL     1       5.961   1.623  23.938  0.00  0.00    +0.143 C 
BRANCH   4   5
ATOM      5  N   UNL     1       6.490   3.064  24.332  0.00  0.00    -0.169 NA
BRANCH   5   7
ATOM      6  C   UNL     1       4.488   3.913  25.667  0.00  0.00    +0.029 C 
ATOM      7  C   UNL     1       5.331   4.105  24.384  0.00  0.00    +0.035 C 
ATOM      8  C   UNL     1       5.848   5.550  24.512  0.00  0.00    +0.029 C 
ATOM      9  C   UNL     1       4.409   4.016  23.162  0.00  0.00    +0.029 C 
ENDBRANCH   5   7
BRANCH   5  10
ATOM     10  S   UNL     1       7.952   3.441  23.455  0.00  0.00    +0.061 S 
ATOM     11  O   UNL     1       8.779   4.239  24.336  0.00  0.00    -0.153 OA
ATOM     12  O   UNL     1       7.545   3.960  22.163  0.00  0.00    -0.153 OA
BRANCH  10  13
ATOM     13  C   UNL     1       8.812   1.955  23.062  0.00  0.00    +0.106 A 
ATOM     14  C   UNL     1       9.641   1.351  24.010  0.00  0.00    +0.030 A 
ATOM     15  C   UNL     1      10.267   0.143  23.697  0.00  0.00    +0.024 A 
ATOM     16  C   UNL     1      10.052  -0.472  22.460  0.00  0.00    +0.025 A 
ATOM     17  C   UNL     1       9.327   0.213  21.480  0.00  0.00    +0.024 A 
ATOM     18  C   UNL     1       8.700   1.422  21.774  0.00  0.00    +0.030 A 
BRANCH  16  19
ATOM     19  N   UNL     1      10.736  -1.648  22.133  0.00  0.00    -0.358 N 
ATOM     20  H   UNL     1      10.127  -2.442  21.962  0.00  0.00    +0.142 HD
ATOM     21  H   UNL     1      11.422  -1.528  21.393  0.00  0.00    +0.142 HD
ENDBRANCH  16  19
ENDBRANCH  10  13
ENDBRANCH   5  10
ENDBRANCH   4   5
ENDBRANCH   1   4
BRANCH   1  22
ATOM     22  C   UNL     1       6.820  -0.779  24.787  0.00  0.00    +0.110 C 
BRANCH  22  23
ATOM     23  N   UNL     1       6.466  -1.837  25.733  0.00  0.00    -0.275 N 
ATOM     24  H   UNL     1       5.516  -2.172  25.801  0.00  0.00    +0.152 HD
ATOM     25  C   UNL     1       7.395  -2.510  26.473  0.00  0.00    +0.401 C 
ATOM     26  O   UNL     1       8.582  -2.230  26.500  0.00  0.00    -0.226 OA
BRANCH  25  27
ATOM     27  O   UNL     1       6.810  -3.508  27.176  0.00  0.00    -0.445 OA
BRANCH  27  28
ATOM     28  C   UNL     1       5.843  -4.263  26.435  0.00  0.00    +0.206 C 
ATOM     29  C   UNL     1       4.580  -4.599  27.221  0.00  0.00    +0.204 C 
ATOM     30  O   UNL     1       4.145  -5.906  26.806  0.00  0.00    -0.376 OA
ATOM     31  C   UNL     1       5.113  -6.428  25.889  0.00  0.00    +0.163 C 
ATOM     32  C   UNL     1       6.379  -5.637  26.100  0.00  0.00    +0.075 C 
ENDBRANCH  27  28
ENDBRANCH  25  27
ENDBRANCH  22  23
BRANCH  22  33
ATOM     33  C   UNL     1       6.449  -1.223  23.333  0.00  0.00    +0.060 C 
BRANCH  33  34
ATOM     34  C   UNL     1       6.408  -2.710  23.051  0.00  0.00    -0.046 A 
ATOM     35  C   UNL     1       7.588  -3.430  22.833  0.00  0.00    +0.004 A 
ATOM     36  C   UNL     1       7.540  -4.786  22.499  0.00  0.00    +0.000 A 
ATOM     37  C   UNL     1       6.314  -5.435  22.373  0.00  0.00    +0.000 A 
ATOM     38  C   UNL     1       5.132  -4.728  22.575  0.00  0.00    +0.000 A 
ATOM     39  C   UNL     1       5.177  -3.372  22.909  0.00  0.00    +0.004 A 
ENDBRANCH  33  34
ENDBRANCH  22  33
ENDBRANCH   1  22
TORSDOF 13
ENDMDL
