REMARK  Name = 
REMARK  7 active torsions:
REMARK  status: ('A' for Active; 'I' for Inactive)
REMARK    1  A    between atoms: C_1  and  C_2
REMARK    2  A    between atoms: C_2  and  C_3
REMARK    3  A    between atoms: C_2  and  C_4
REMARK    4  A    between atoms: C_8  and  C_9
REMARK    5  A    between atoms: C_9  and  C_10
REMARK    6  A    between atoms: C_9  and  C_11
REMARK    7  A    between atoms: C_12  and  O_13
REMARK                            x       y       z     vdW  Elec       q    Type
REMARK                         _______ _______ _______ _____ _____    ______ ____
ROOT
ATOM      1  C   UNL     1       2.836   0.953   1.126  0.00  0.00    -0.003 A 
ATOM      2  C   UNL     1       3.174   0.303   2.332  0.00  0.00    +0.124 A 
ATOM      3  C   UNL     1       3.522   1.012   3.496  0.00  0.00    -0.003 A 
ATOM      4  C   UNL     1       3.461   2.416   3.438  0.00  0.00    +0.007 A 
ATOM      5  C   UNL     1       3.105   3.080   2.266  0.00  0.00    +0.001 A 
ATOM      6  C   UNL     1       2.801   2.354   1.117  0.00  0.00    +0.007 A 
ENDROOT
BRANCH   1   8
ATOM      7  C   UNL     1       0.926  -0.151  -0.043  0.00  0.00    +0.012 C 
ATOM      8  C   UNL     1       2.427   0.146  -0.103  0.00  0.00    +0.016 C 
ATOM      9  C   UNL     1       2.779   0.796  -1.447  0.00  0.00    +0.012 C 
ENDBRANCH   1   8
BRANCH   3  10
ATOM     10  C   UNL     1       3.941   0.401   4.827  0.00  0.00    +0.016 C 
ATOM     11  C   UNL     1       4.853  -0.828   4.745  0.00  0.00    +0.012 C 
ATOM     12  C   UNL     1       2.722   0.121   5.710  0.00  0.00    +0.012 C 
ENDBRANCH   3  10
BRANCH   2  13
ATOM     13  O   UNL     1       3.109  -1.064   2.329  0.00  0.00    -0.506 OA
ATOM     14  H   UNL     1       2.758  -1.335   3.190  0.00  0.00    +0.292 HD
ENDBRANCH   2  13
TORSDOF 3
