REMARK  Name = 
REMARK  8 active torsions:
REMARK  status: ('A' for Active; 'I' for Inactive)
REMARK    1  A    between atoms: C_4  and  C_5
REMARK    2  A    between atoms: C_4  and  C_6
REMARK    3  A    between atoms: CA_7  and  C_31
REMARK    4  A    between atoms: CA_12  and  N_14
REMARK    5  A    between atoms: C_15  and  C_17
REMARK    6  A    between atoms: C_18  and  C_19
REMARK    7  A    between atoms: C_22  and  C_23
REMARK    8  A    between atoms: C_31  and  O_32
REMARK                            x       y       z     vdW  Elec       q    Type
REMARK                         _______ _______ _______ _____ _____    ______ ____
ROOT
ATOM      1  N   UNL     1       3.420  -0.802   2.364  0.00  0.00    -0.298 N 
ATOM      2  H   UNL     1       4.306  -0.306   2.334  0.00  0.00    +0.150 HD
ATOM      3  C   UNL     1       2.966  -1.249   3.578  0.00  0.00    +0.250 C 
ATOM      4  O   UNL     1       2.029  -2.032   3.676  0.00  0.00    -0.270 OA
ENDROOT
BRANCH   1   6
ATOM      5  C   UNL     1       3.593  -0.787  -0.177  0.00  0.00    +0.165 C 
ATOM      6  CA  UNL     1       2.740  -1.111   1.079  0.00  0.00    +0.190 C 
ATOM      7  C   UNL     1       2.807  -2.576   0.557  0.00  0.00    +0.240 C 
ATOM      8  O   UNL     1       2.589  -3.689   0.955  0.00  0.00    -0.273 OA
ATOM      9  N   UNL     1       3.472  -2.200  -0.581  0.00  0.00    -0.271 N 
ATOM     10  CA  UNL     1       4.726  -2.881  -0.949  0.00  0.00    +0.201 C 
ATOM     11  C   UNL     1       5.847  -2.285  -0.064  0.00  0.00    +0.042 C 
ATOM     12  C   UNL     1       5.882  -2.950   1.331  0.00  0.00    +0.025 C 
ATOM     13  C   UNL     1       7.266  -2.385  -0.627  0.00  0.00    +0.025 C 
ATOM     14  S   UNL     1       5.388  -0.500   0.148  0.00  0.00    -0.127 S 
BRANCH  10  15
ATOM     15  C   UNL     1       4.866  -2.715  -2.472  0.00  0.00    +0.327 C 
ATOM     16  OXT UNL     1       5.903  -2.800  -3.110  0.00  0.00    -0.249 OA
BRANCH  15  17
ATOM     17  O   UNL     1       3.662  -2.595  -3.099  0.00  0.00    -0.479 OA
ATOM     18  H   UNL     1       2.930  -2.658  -2.449  0.00  0.00    +0.295 HD
ENDBRANCH  15  17
ENDBRANCH  10  15
ENDBRANCH   1   6
BRANCH   3  19
ATOM     19  C   UNL     1       3.668  -0.713   4.728  0.00  0.00    +0.106 A 
ATOM     20  C   UNL     1       4.254   0.584   4.983  0.00  0.00    +0.128 A 
ATOM     21  N   UNL     1       4.751   0.611   6.230  0.00  0.00    -0.077 NA
ATOM     22  O   UNL     1       4.544  -0.630   6.777  0.00  0.00    -0.359 OA
ATOM     23  C   UNL     1       3.880  -1.416   5.898  0.00  0.00    +0.147 A 
ATOM     24  C   UNL     1       3.578  -2.784   6.366  0.00  0.00    +0.090 C 
BRANCH  20  25
ATOM     25  C   UNL     1       4.378   1.762   4.096  0.00  0.00    +0.041 A 
ATOM     26  C   UNL     1       3.327   2.158   3.241  0.00  0.00    +0.052 A 
ATOM     27 CL   UNL     1       1.681   1.657   3.462  0.00  0.00    -0.083 Cl
ATOM     28  C   UNL     1       3.544   3.053   2.183  0.00  0.00    +0.021 A 
ATOM     29  C   UNL     1       4.769   3.690   2.043  0.00  0.00    +0.003 A 
ATOM     30  C   UNL     1       5.763   3.457   2.985  0.00  0.00    +0.021 A 
ATOM     31  C   UNL     1       5.584   2.493   3.991  0.00  0.00    +0.052 A 
ATOM     32 CL   UNL     1       6.947   2.283   5.042  0.00  0.00    -0.083 Cl
ENDBRANCH  20  25
ENDBRANCH   3  19
TORSDOF 5
