REMARK  Name = 
REMARK  5 active torsions:
REMARK  status: ('A' for Active; 'I' for Inactive)
REMARK    1  A    between atoms: C_1  and  C_2
REMARK    2  A    between atoms: C_2  and  O_4
REMARK    3  A    between atoms: O_4  and  C_5
REMARK    4  A    between atoms: C_10  and  C_11
REMARK    5  A    between atoms: C_11  and  O_12
REMARK                            x       y       z     vdW  Elec       q    Type
REMARK                         _______ _______ _______ _____ _____    ______ ____
ROOT
ATOM      1  C   UNL     1       4.724  -0.617  -0.923  0.00  0.00    +0.146 A 
ATOM      2  C   UNL     1       5.347  -0.278  -2.134  0.00  0.00    +0.101 A 
ATOM      3  C   UNL     1       6.749  -0.190  -2.172  0.00  0.00    +0.018 A 
ATOM      4  C   UNL     1       7.510  -0.432  -1.026  0.00  0.00    +0.001 A 
ATOM      5  C   UNL     1       6.882  -0.778   0.168  0.00  0.00    +0.004 A 
ATOM      6  C   UNL     1       5.494  -0.883   0.219  0.00  0.00    +0.047 A 
ENDROOT
BRANCH   2   7
ATOM      7  C   UNL     1       4.629  -0.047  -3.413  0.00  0.00    +0.340 C 
ATOM      8  O   UNL     1       5.136  -0.273  -4.500  0.00  0.00    -0.245 OA
BRANCH   7   9
ATOM      9  O   UNL     1       3.403   0.499  -3.279  0.00  0.00    -0.477 OA
ATOM     10  H   UNL     1       3.161   0.710  -2.361  0.00  0.00    +0.295 HD
ENDBRANCH   7   9
ENDBRANCH   2   7
BRANCH   1  11
ATOM     11  O   UNL     1       3.333  -0.849  -0.887  0.00  0.00    -0.425 OA
BRANCH  11  13
ATOM     12  C   UNL     1       1.328  -1.154   0.323  0.00  0.00    +0.136 C 
ATOM     13  C   UNL     1       2.630  -0.417   0.238  0.00  0.00    +0.309 C 
ATOM     14  O   UNL     1       2.992   0.453   1.019  0.00  0.00    -0.251 OA
ENDBRANCH  11  13
ENDBRANCH   1  11
TORSDOF 4
