REMARK  Name = 
REMARK  2 active torsions:
REMARK  status: ('A' for Active; 'I' for Inactive)
REMARK    1  A    between atoms: C_8  and  O_9
REMARK    2  A    between atoms: O_9  and  C_10
REMARK                            x       y       z     vdW  Elec       q    Type
REMARK                         _______ _______ _______ _____ _____    ______ ____
ROOT
ATOM      1  N   UNL     1       1.036  -0.104  -0.032  0.00  0.00    -0.337 N 
ATOM      2  H   UNL     1       0.419   0.678   0.144  0.00  0.00    +0.144 HD
ATOM      3  H   UNL     1       0.652  -1.028   0.122  0.00  0.00    +0.144 HD
ATOM      4  C   UNL     1       2.366   0.045   0.028  0.00  0.00    +0.157 A 
ATOM      5  S   UNL     1       3.084   1.601   0.077  0.00  0.00    -0.053 S 
ATOM      6  C   UNL     1       4.647   0.882   0.085  0.00  0.00    +0.044 A 
ATOM      7  C   UNL     1       5.910   1.495   0.102  0.00  0.00    +0.063 A 
ATOM      8  C   UNL     1       7.055   0.688   0.104  0.00  0.00    +0.131 A 
ATOM      9  C   UNL     1       6.933  -0.697   0.039  0.00  0.00    +0.048 A 
ATOM     10  C   UNL     1       5.667  -1.301   0.042  0.00  0.00    +0.032 A 
ATOM     11  C   UNL     1       4.504  -0.504   0.064  0.00  0.00    +0.080 A 
ATOM     12  N   UNL     1       3.198  -0.965   0.049  0.00  0.00    -0.225 NA
ENDROOT
BRANCH   8  13
ATOM     13  O   UNL     1       8.227   1.382   0.089  0.00  0.00    -0.406 OA
BRANCH  13  14
ATOM     14  C   UNL     1       9.371   0.852   0.746  0.00  0.00    +0.575 C 
ATOM     15  F   UNL     1       9.816   1.767   1.637  0.00  0.00    -0.133 F 
ATOM     16  F   UNL     1      10.348   0.643  -0.163  0.00  0.00    -0.133 F 
ATOM     17  F   UNL     1       9.148  -0.299   1.414  0.00  0.00    -0.133 F 
ENDBRANCH  13  14
ENDBRANCH   8  13
TORSDOF 2
