REMARK  Name = 
REMARK  5 active torsions:
REMARK  status: ('A' for Active; 'I' for Inactive)
REMARK    1  A    between atoms: C_1  and  C_2
REMARK    2  A    between atoms: C_5  and  N_6
REMARK    3  A    between atoms: N_6  and  C_7
REMARK    4  A    between atoms: C_12  and  C_13
REMARK    5  A    between atoms: C_13  and  O_14
REMARK                            x       y       z     vdW  Elec       q    Type
REMARK                         _______ _______ _______ _____ _____    ______ ____
ROOT
ATOM      1  N   UNL     1       5.023  -2.453   0.430  0.00  0.00    -0.312 N 
ATOM      2  H   UNL     1       6.045  -2.356   0.398  0.00  0.00    +0.152 HD
ENDROOT
BRANCH   1   9
ATOM      3  C   UNL     1       0.897   0.384   0.302  0.00  0.00    +0.045 C 
ATOM      4  C   UNL     1       2.394   0.228   0.362  0.00  0.00    -0.030 A 
ATOM      5  C   UNL     1       3.190   1.347   0.086  0.00  0.00    +0.006 A 
ATOM      6  C   UNL     1       4.577   1.236   0.034  0.00  0.00    +0.022 A 
ATOM      7  C   UNL     1       5.181  -0.010   0.186  0.00  0.00    +0.064 A 
ATOM      8 CL   UNL     1       6.900  -0.116   0.018  0.00  0.00    -0.082 Cl
ATOM      9  C   UNL     1       4.412  -1.161   0.453  0.00  0.00    +0.069 A 
ATOM     10  C   UNL     1       3.019  -0.998   0.649  0.00  0.00    +0.066 A 
ATOM     11 CL   UNL     1       2.091  -2.311   1.318  0.00  0.00    -0.081 Cl
ENDBRANCH   1   9
BRANCH   1  12
ATOM     12  C   UNL     1       4.623  -3.547  -0.398  0.00  0.00    +0.045 A 
ATOM     13  C   UNL     1       5.128  -4.842  -0.165  0.00  0.00    +0.080 A 
ATOM     14  C   UNL     1       4.763  -5.914  -0.996  0.00  0.00    +0.017 A 
ATOM     15  C   UNL     1       3.843  -5.725  -2.024  0.00  0.00    +0.001 A 
ATOM     16  C   UNL     1       3.299  -4.464  -2.238  0.00  0.00    +0.002 A 
ATOM     17  C   UNL     1       3.702  -3.384  -1.449  0.00  0.00    +0.024 A 
BRANCH  13  18
ATOM     18  C   UNL     1       6.017  -5.160   0.979  0.00  0.00    +0.339 C 
ATOM     19  O   UNL     1       6.896  -6.002   0.923  0.00  0.00    -0.245 OA
BRANCH  18  20
ATOM     20  O   UNL     1       5.707  -4.484   2.107  0.00  0.00    -0.477 OA
ATOM     21  H   UNL     1       4.970  -3.845   1.985  0.00  0.00    +0.295 HD
ENDBRANCH  18  20
ENDBRANCH  13  18
ENDBRANCH   1  12
TORSDOF 4
