REMARK  Name = 
REMARK  7 active torsions:
REMARK  status: ('A' for Active; 'I' for Inactive)
REMARK    1  A    between atoms: C_1  and  O_2
REMARK    2  A    between atoms: O_2  and  C_3
REMARK    3  A    between atoms: C_13  and  C_15
REMARK    4  A    between atoms: C_15  and  O_16
REMARK    5  A    between atoms: O_16  and  C_17
REMARK    6  A    between atoms: C_22  and  N_23
REMARK    7  A    between atoms: C_24  and  C_25
REMARK                            x       y       z     vdW  Elec       q    Type
REMARK                         _______ _______ _______ _____ _____    ______ ____
ROOT
ATOM      1  C   UNL     1      -0.000  -0.000   0.000  0.00  0.00    +0.163 C 
ATOM      2  C   UNL     1      -0.000  -0.000   0.000  0.00  0.00    +0.114 C 
ATOM      3  C   UNL     1      -0.000  -0.000   0.000  0.00  0.00    +0.037 C 
ATOM      4  C   UNL     1      -0.000  -0.000   0.000  0.00  0.00    +0.205 C 
ATOM      5  C   UNL     1      -0.000  -0.000   0.000  0.00  0.00    +0.079 C 
ATOM      6  C   UNL     1      -0.000  -0.000   0.000  0.00  0.00    +0.022 C 
ATOM      7  C   UNL     1      -0.000  -0.000  -0.000  0.00  0.00    +0.205 C 
ATOM      8  O   UNL     1      -0.000  -0.000   0.000  0.00  0.00    -0.286 OA
ATOM      9  C   UNL     1      -0.000  -0.000  -0.000  0.00  0.00    +0.050 C 
ATOM     10  O   UNL     1      -0.000  -0.000   0.000  0.00  0.00    -0.286 OA
ATOM     11  C   UNL     1      -0.000  -0.000  -0.000  0.00  0.00    +0.087 C 
ATOM     12  N   UNL     1      -0.000  -0.000   0.000  0.00  0.00    -0.295 N 
ATOM     13  C   UNL     1      -0.000  -0.000   0.000  0.00  0.00    +0.128 C 
ATOM     14  C   UNL     1      -0.000  -0.000   0.000  0.00  0.00    +0.093 C 
ATOM     15  N   UNL     1      -0.000  -0.000   0.000  0.00  0.00    -0.302 NA
ATOM     16  H   UNL     1       0.000   0.000   0.000  0.00  0.00    +0.123 HD
ATOM     17  C   UNL     1      -0.000  -0.000   0.000  0.00  0.00    +0.124 C 
ENDROOT
BRANCH   5  18
ATOM     18  N   UNL     1      -0.000  -0.000   0.000  0.00  0.00    -0.355 N 
ATOM     19  H   UNL     1       0.000   0.000   0.000  0.00  0.00    +0.142 HD
ATOM     20  H   UNL     1       0.000   0.000   0.000  0.00  0.00    +0.142 HD
ENDBRANCH   5  18
BRANCH   1  22
ATOM     21  C   UNL     1       0.000   0.000   0.000  0.00  0.00    +0.196 C 
ATOM     22  O   UNL     1      -0.000  -0.000  -0.000  0.00  0.00    -0.357 OA
ENDBRANCH   1  22
BRANCH   2  23
ATOM     23  C   UNL     1      -0.000  -0.000  -0.000  0.00  0.00    +0.246 C 
BRANCH  23  24
ATOM     24  O   UNL     1      -0.000  -0.000   0.000  0.00  0.00    -0.450 OA
BRANCH  24  25
ATOM     25  C   UNL     1      -0.000  -0.000   0.000  0.00  0.00    +0.398 C 
ATOM     26  O   UNL     1      -0.000  -0.000   0.000  0.00  0.00    -0.227 OA
ATOM     27  N   UNL     1      -0.000  -0.000   0.000  0.00  0.00    -0.295 N 
ATOM     28  H   UNL     1      -0.000  -0.000   0.000  0.00  0.00    +0.148 HD
ATOM     29  H   UNL     1      -0.000  -0.000   0.000  0.00  0.00    +0.148 HD
ENDBRANCH  24  25
ENDBRANCH  23  24
ENDBRANCH   2  23
TORSDOF 5
