REMARK  Name = 
REMARK  12 active torsions:
REMARK  status: ('A' for Active; 'I' for Inactive)
REMARK    1  A    between atoms: C_1  and  C_2
REMARK    2  A    between atoms: C_2  and  C_4
REMARK    3  A    between atoms: C_2  and  C_11
REMARK    4  A    between atoms: C_4  and  C_5
REMARK    5  A    between atoms: C_5  and  C_6
REMARK    6  A    between atoms: C_6  and  C_7
REMARK    7  A    between atoms: C_7  and  C_8
REMARK    8  A    between atoms: C_7  and  C_9
REMARK    9  A    between atoms: C_7  and  O_10
REMARK   10  A    between atoms: C_21  and  C_22
REMARK   11  A    between atoms: C_23  and  C_24
REMARK   12  A    between atoms: C_27  and  O_29
REMARK                            x       y       z     vdW  Elec       q    Type
REMARK                         _______ _______ _______ _____ _____    ______ ____
ROOT
ATOM      1  C   UNL     1      -0.000  -0.000  -0.000  0.00  0.00    -0.002 C 
ATOM      2  C   UNL     1      -0.000  -0.000  -0.000  0.00  0.00    -0.022 C 
ATOM      3  C   UNL     1      -0.000  -0.000  -0.000  0.00  0.00    +0.012 C 
ATOM      4  C   UNL     1      -0.000  -0.000  -0.000  0.00  0.00    +0.021 C 
ATOM      5  C   UNL     1      -0.000  -0.000  -0.000  0.00  0.00    -0.066 C 
ATOM      6  C   UNL     1       0.000   0.000  -0.000  0.00  0.00    -0.000 C 
ATOM      7  C   UNL     1      -0.000  -0.000  -0.000  0.00  0.00    +0.031 C 
ATOM      8  C   UNL     1      -0.000  -0.000  -0.000  0.00  0.00    +0.005 C 
ATOM      9  C   UNL     1      -0.000  -0.000  -0.000  0.00  0.00    +0.009 C 
ATOM     10  C   UNL     1      -0.000  -0.000  -0.000  0.00  0.00    +0.008 C 
ATOM     11  C   UNL     1      -0.000  -0.000  -0.000  0.00  0.00    +0.005 C 
ENDROOT
BRANCH   6  12
ATOM     12  C   UNL     1      -0.000  -0.000  -0.000  0.00  0.00    +0.004 C 
ATOM     13  C   UNL     1      -0.000  -0.000  -0.000  0.00  0.00    -0.042 C 
ATOM     14  C   UNL     1      -0.000  -0.000  -0.000  0.00  0.00    -0.051 C 
ATOM     15  C   UNL     1      -0.000  -0.000  -0.000  0.00  0.00    +0.012 C 
ATOM     16  C   UNL     1      -0.000  -0.000  -0.000  0.00  0.00    +0.037 C 
ATOM     17  C   UNL     1      -0.000  -0.000  -0.000  0.00  0.00    +0.036 C 
ATOM     18  C   UNL     1      -0.000  -0.000  -0.000  0.00  0.00    +0.119 C 
ATOM     19  C   UNL     1      -0.000  -0.000  -0.000  0.00  0.00    +0.066 C 
BRANCH  18  20
ATOM     20  O   UNL     1      -0.000  -0.000  -0.000  0.00  0.00    -0.391 OA
ATOM     21  H   UNL     1       0.000   0.000  -0.000  0.00  0.00    +0.210 HD
ENDBRANCH  18  20
ENDBRANCH   6  12
BRANCH   1  23
ATOM     22  C   UNL     1      -0.000  -0.000  -0.000  0.00  0.00    +0.008 C 
ATOM     23  C   UNL     1      -0.000  -0.000  -0.000  0.00  0.00    -0.010 C 
BRANCH  23  24
ATOM     24  C   UNL     1      -0.000  -0.000  -0.000  0.00  0.00    +0.003 C 
BRANCH  24  25
ATOM     25  C   UNL     1      -0.000  -0.000  -0.000  0.00  0.00    +0.003 C 
BRANCH  25  26
ATOM     26  C   UNL     1      -0.000  -0.000  -0.000  0.00  0.00    +0.034 C 
BRANCH  26  27
ATOM     27  C   UNL     1      -0.000  -0.000  -0.000  0.00  0.00    +0.061 C 
ATOM     28  C   UNL     1      -0.000  -0.000  -0.000  0.00  0.00    +0.041 C 
ATOM     29  C   UNL     1      -0.000  -0.000  -0.000  0.00  0.00    +0.041 C 
BRANCH  27  30
ATOM     30  O   UNL     1      -0.000  -0.000  -0.000  0.00  0.00    -0.389 OA
ATOM     31  H   UNL     1      -0.000  -0.000  -0.000  0.00  0.00    +0.210 HD
ENDBRANCH  27  30
ENDBRANCH  26  27
ENDBRANCH  25  26
ENDBRANCH  24  25
ENDBRANCH  23  24
ENDBRANCH   1  23
TORSDOF 8
