REMARK  Name = 
REMARK  3 active torsions:
REMARK  status: ('A' for Active; 'I' for Inactive)
REMARK    1  A    between atoms: N_4  and  N_5
REMARK    2  A    between atoms: C_6  and  C_7
REMARK    3  A    between atoms: C_10  and  N_12
REMARK                            x       y       z     vdW  Elec       q    Type
REMARK                         _______ _______ _______ _____ _____    ______ ____
ROOT
ATOM      1  N   UNL     1       4.789  -0.916  -0.794  0.00  0.00    -0.183 NA
ATOM      2  C   UNL     1       5.386  -1.668  -1.661  0.00  0.00    +0.176 C 
ENDROOT
BRANCH   1   7
ATOM      3  N   UNL     1       3.422   0.581   0.895  0.00  0.00    -0.312 N 
ATOM      4  H   UNL     1       4.426   0.526   0.804  0.00  0.00    +0.147 HD
ATOM      5  H   UNL     1       2.978   1.211   1.544  0.00  0.00    +0.147 HD
ATOM      6  C   UNL     1       2.682  -0.101  -0.015  0.00  0.00    +0.317 C 
ATOM      7  N   UNL     1       3.425  -0.868  -0.879  0.00  0.00    -0.191 N 
ATOM      8  H   UNL     1       2.912  -1.404  -1.571  0.00  0.00    +0.179 HD
ATOM      9  O   UNL     1       1.460  -0.038  -0.058  0.00  0.00    -0.251 OA
ENDBRANCH   1   7
BRANCH   2  10
ATOM     10  C   UNL     1       6.817  -1.778  -1.620  0.00  0.00    +0.154 A 
ATOM     11  O   UNL     1       7.449  -2.559  -2.550  0.00  0.00    -0.399 OA
ATOM     12  C   UNL     1       8.780  -2.479  -2.269  0.00  0.00    +0.438 A 
ATOM     13  C   UNL     1       9.024  -1.670  -1.186  0.00  0.00    +0.132 A 
ATOM     14  C   UNL     1       7.751  -1.214  -0.767  0.00  0.00    +0.058 A 
BRANCH  12  15
ATOM     15  N   UNL     1       9.664  -3.219  -3.114  0.00  0.00    +0.119 N 
ATOM     16  O   UNL     1       9.165  -3.880  -4.032  0.00  0.00    +0.045 OA
ATOM     17  O   UNL     1      10.871  -3.133  -2.851  0.00  0.00    -0.573 OA
ENDBRANCH  12  15
ENDBRANCH   2  10
TORSDOF 3
