REMARK  Name = 
REMARK  10 active torsions:
REMARK  status: ('A' for Active; 'I' for Inactive)
REMARK    1  A    between atoms: C_1  and  C_2
REMARK    2  A    between atoms: C_2  and  C_3
REMARK    3  A    between atoms: C_3  and  C_4
REMARK    4  A    between atoms: C_4  and  C_5
REMARK    5  A    between atoms: C_9  and  C_10
REMARK    6  A    between atoms: C_10  and  O_11
REMARK    7  A    between atoms: N_12  and  C_13
REMARK    8  A    between atoms: C_13  and  C_14
REMARK    9  A    between atoms: C_17  and  C_20
REMARK   10  A    between atoms: C_25  and  C_26
REMARK                            x       y       z     vdW  Elec       q    Type
REMARK                         _______ _______ _______ _____ _____    ______ ____
ROOT
ATOM      1  C   UNL     1       6.169  -0.752   2.667  0.00  0.00    -0.028 A 
ATOM      2  C   UNL     1       5.081  -1.597   2.427  0.00  0.00    +0.006 A 
ATOM      3  C   UNL     1       5.103  -2.522   1.372  0.00  0.00    +0.009 A 
ATOM      4  C   UNL     1       6.222  -2.660   0.528  0.00  0.00    -0.017 A 
ATOM      5  C   UNL     1       7.337  -1.868   0.844  0.00  0.00    +0.009 A 
ATOM      6  C   UNL     1       7.303  -0.909   1.866  0.00  0.00    +0.006 A 
ENDROOT
BRANCH   4   7
ATOM      7  C   UNL     1       6.206  -3.600  -0.633  0.00  0.00    -0.007 A 
ATOM      8  C   UNL     1       6.761  -3.311  -1.910  0.00  0.00    +0.030 A 
ATOM      9  C   UNL     1       6.716  -4.286  -2.935  0.00  0.00    +0.012 A 
ATOM     10  C   UNL     1       6.102  -5.521  -2.739  0.00  0.00    +0.001 A 
ATOM     11  C   UNL     1       5.536  -5.812  -1.508  0.00  0.00    +0.001 A 
ATOM     12  C   UNL     1       5.602  -4.871  -0.473  0.00  0.00    +0.009 A 
BRANCH   8  13
ATOM     13  C   UNL     1       7.375  -2.033  -2.263  0.00  0.00    +0.205 A 
ATOM     14  N   UNL     1       6.881  -0.807  -1.879  0.00  0.00    -0.108 NA
ATOM     15  N   UNL     1       7.707   0.111  -2.360  0.00  0.00    -0.049 NA
ATOM     16  N   UNL     1       8.622  -0.585  -3.038  0.00  0.00    -0.176 N 
ATOM     17  H   UNL     1       9.379  -0.127  -3.534  0.00  0.00    +0.214 HD
ATOM     18  N   UNL     1       8.482  -1.918  -3.022  0.00  0.00    -0.133 NA
ENDBRANCH   8  13
ENDBRANCH   4   7
BRANCH   1  19
ATOM     19  C   UNL     1       6.154   0.253   3.789  0.00  0.00    +0.158 C 
BRANCH  19  21
ATOM     20  C   UNL     1       6.134   2.680   3.043  0.00  0.00    +0.112 A 
ATOM     21  N   UNL     1       5.502   1.522   3.467  0.00  0.00    -0.324 N 
ATOM     22  C   UNL     1       4.188   1.862   3.757  0.00  0.00    +0.083 A 
ATOM     23  C   UNL     1       4.111   3.218   3.525  0.00  0.00    +0.153 A 
ATOM     24 CL   UNL     1       2.755   4.224   3.746  0.00  0.00    -0.060 Cl
ATOM     25  N   UNL     1       5.311   3.705   3.108  0.00  0.00    -0.220 NA
BRANCH  20  26
ATOM     26  C   UNL     1       7.557   2.811   2.593  0.00  0.00    +0.074 C 
BRANCH  26  27
ATOM     27  C   UNL     1       7.716   2.782   1.072  0.00  0.00    +0.007 C 
BRANCH  27  29
ATOM     28  C   UNL     1       7.185   3.849  -1.160  0.00  0.00    +0.004 C 
ATOM     29  C   UNL     1       6.957   3.898   0.343  0.00  0.00    -0.003 C 
ENDBRANCH  27  29
ENDBRANCH  26  27
ENDBRANCH  20  26
BRANCH  22  30
ATOM     30  C   UNL     1       3.138   0.940   4.242  0.00  0.00    +0.212 C 
BRANCH  30  31
ATOM     31  O   UNL     1       2.466   0.427   3.105  0.00  0.00    -0.389 OA
ATOM     32  H   UNL     1       2.043   1.183   2.660  0.00  0.00    +0.210 HD
ENDBRANCH  30  31
ENDBRANCH  22  30
ENDBRANCH  19  21
ENDBRANCH   1  19
TORSDOF 9
