REMARK  Name = 
REMARK  8 active torsions:
REMARK  status: ('A' for Active; 'I' for Inactive)
REMARK    1  A    between atoms: C_1  and  O_2
REMARK    2  A    between atoms: O_2  and  C_3
REMARK    3  A    between atoms: C_4  and  O_5
REMARK    4  A    between atoms: O_5  and  C_6
REMARK    5  A    between atoms: C_6  and  C_7
REMARK    6  A    between atoms: C_7  and  C_8
REMARK    7  A    between atoms: C_8  and  N_9
REMARK    8  A    between atoms: N_18  and  C_19
REMARK                            x       y       z     vdW  Elec       q    Type
REMARK                         _______ _______ _______ _____ _____    ______ ____
ROOT
ATOM      1  C   UNL     1       2.915  -0.951  -0.868  0.00  0.00    +0.164 A 
ATOM      2  C   UNL     1       2.735  -2.258  -1.326  0.00  0.00    +0.078 A 
ATOM      3  C   UNL     1       3.506  -2.795  -2.335  0.00  0.00    +0.080 A 
ATOM      4  C   UNL     1       4.467  -1.988  -2.971  0.00  0.00    +0.044 A 
ATOM      5  C   UNL     1       5.196  -2.631  -4.001  0.00  0.00    +0.134 A 
ATOM      6  N   UNL     1       4.981  -3.923  -4.306  0.00  0.00    -0.220 NA
ATOM      7  C   UNL     1       4.042  -4.577  -3.626  0.00  0.00    +0.223 A 
ATOM      8  N   UNL     1       6.083  -1.887  -4.819  0.00  0.00    -0.299 N 
ATOM      9  H   UNL     1       6.488  -1.085  -4.361  0.00  0.00    +0.154 HD
ATOM     10  C   UNL     1       4.609  -0.634  -2.541  0.00  0.00    +0.062 A 
ATOM     11  N   UNL     1       3.282  -4.068  -2.656  0.00  0.00    -0.235 NA
ATOM     12  C   UNL     1       3.844  -0.112  -1.490  0.00  0.00    +0.163 A 
ENDROOT
BRANCH   8  13
ATOM     13  C   UNL     1       6.700  -2.206  -6.049  0.00  0.00    +0.034 A 
ATOM     14  C   UNL     1       6.601  -3.460  -6.672  0.00  0.00    +0.026 A 
ATOM     15  C   UNL     1       7.037  -3.668  -7.983  0.00  0.00    +0.041 A 
ATOM     16  C   UNL     1       7.590  -2.617  -8.694  0.00  0.00    +0.142 A 
ATOM     17  F   UNL     1       7.952  -2.818  -9.969  0.00  0.00    -0.204 F 
ATOM     18  C   UNL     1       7.746  -1.373  -8.091  0.00  0.00    +0.078 A 
ATOM     19 CL   UNL     1       8.442  -0.060  -8.964  0.00  0.00    -0.081 Cl
ATOM     20  C   UNL     1       7.309  -1.169  -6.777  0.00  0.00    +0.046 A 
ENDBRANCH   8  13
BRANCH   1  22
ATOM     21  C   UNL     1       2.737   0.118   1.219  0.00  0.00    +0.277 C 
ATOM     22  O   UNL     1       2.091  -0.602   0.172  0.00  0.00    -0.491 OA
ENDBRANCH   1  22
BRANCH  12  23
ATOM     23  O   UNL     1       3.912   1.179  -1.042  0.00  0.00    -0.488 OA
BRANCH  23  24
ATOM     24  C   UNL     1       4.941   2.024  -1.551  0.00  0.00    +0.230 C 
BRANCH  24  25
ATOM     25  C   UNL     1       4.814   3.405  -0.905  0.00  0.00    +0.056 C 
BRANCH  25  26
ATOM     26  C   UNL     1       5.138   3.447   0.599  0.00  0.00    +0.088 C 
BRANCH  26  27
ATOM     27  N   UNL     1       6.497   3.017   0.965  0.00  0.00    -0.298 NA
ATOM     28  C   UNL     1       6.688   3.042   2.439  0.00  0.00    +0.112 C 
ATOM     29  C   UNL     1       6.912   4.445   3.040  0.00  0.00    +0.175 C 
ATOM     30  O   UNL     1       7.975   5.144   2.381  0.00  0.00    -0.377 OA
ATOM     31  C   UNL     1       7.725   5.230   0.975  0.00  0.00    +0.175 C 
ATOM     32  C   UNL     1       7.576   3.829   0.361  0.00  0.00    +0.112 C 
ENDBRANCH  26  27
ENDBRANCH  25  26
ENDBRANCH  24  25
ENDBRANCH  23  24
ENDBRANCH  12  23
TORSDOF 7
