REMARK  Name = 
REMARK  9 active torsions:
REMARK  status: ('A' for Active; 'I' for Inactive)
REMARK    1  A    between atoms: C_1  and  O_2
REMARK    2  A    between atoms: O_2  and  C_3
REMARK    3  A    between atoms: C_8  and  S_10
REMARK    4  A    between atoms: S_10  and  C_12
REMARK    5  A    between atoms: C_12  and  C_13
REMARK    6  A    between atoms: C_16  and  C_17
REMARK    7  A    between atoms: C_18  and  O_19
REMARK    8  A    between atoms: O_19  and  C_20
REMARK    9  A    between atoms: C_21  and  C_22
REMARK                            x       y       z     vdW  Elec       q    Type
REMARK                         _______ _______ _______ _____ _____    ______ ____
ROOT
ATOM      1  S   UNL     1       4.283   7.189  -1.734  0.00  0.00    +0.095 S 
ATOM      2  O   UNL     1       4.392   7.336  -3.226  0.00  0.00    -0.249 OA
ENDROOT
BRANCH   1   9
ATOM      3  C   UNL     1       2.843   1.219  -0.500  0.00  0.00    +0.122 A 
ATOM      4  C   UNL     1       3.646   0.984  -1.620  0.00  0.00    +0.048 A 
ATOM      5  C   UNL     1       4.243   2.030  -2.330  0.00  0.00    +0.031 A 
ATOM      6  C   UNL     1       3.995   3.320  -1.861  0.00  0.00    +0.067 A 
ATOM      7  N   UNL     1       4.395   4.548  -2.312  0.00  0.00    -0.331 N 
ATOM      8  H   UNL     1       4.969   4.737  -3.120  0.00  0.00    +0.168 HD
ATOM      9  C   UNL     1       3.890   5.515  -1.484  0.00  0.00    +0.198 A 
ATOM     10  N   UNL     1       3.162   4.977  -0.521  0.00  0.00    -0.220 NA
ATOM     11  C   UNL     1       3.215   3.605  -0.746  0.00  0.00    +0.093 A 
ATOM     12  C   UNL     1       2.628   2.532  -0.042  0.00  0.00    +0.075 A 
BRANCH   3  14
ATOM     13  C   UNL     1       1.509   0.230   1.209  0.00  0.00    +0.277 C 
ATOM     14  O   UNL     1       2.332   0.077   0.061  0.00  0.00    -0.495 OA
ENDBRANCH   3  14
ENDBRANCH   1   9
BRANCH   1  15
ATOM     15  C   UNL     1       2.807   8.020  -1.108  0.00  0.00    +0.167 C 
BRANCH  15  16
ATOM     16  C   UNL     1       2.871   9.521  -1.356  0.00  0.00    +0.060 A 
ATOM     17  C   UNL     1       2.321  10.154  -2.495  0.00  0.00    +0.014 A 
ATOM     18  C   UNL     1       1.620   9.341  -3.544  0.00  0.00    +0.049 C 
ATOM     19  C   UNL     1       2.460  11.558  -2.599  0.00  0.00    +0.129 A 
ATOM     20  C   UNL     1       3.083  12.282  -1.571  0.00  0.00    +0.010 A 
ATOM     21  C   UNL     1       3.218  13.776  -1.607  0.00  0.00    +0.049 C 
ATOM     22  C   UNL     1       3.580  11.563  -0.495  0.00  0.00    +0.118 A 
ATOM     23  N   UNL     1       3.496  10.222  -0.371  0.00  0.00    -0.258 NA
BRANCH  19  24
ATOM     24  O   UNL     1       1.873  12.336  -3.569  0.00  0.00    -0.494 OA
ATOM     25  C   UNL     1       2.164  12.030  -4.929  0.00  0.00    +0.277 C 
ENDBRANCH  19  24
ENDBRANCH  15  16
ENDBRANCH   1  15
TORSDOF 5
