REMARK  Name = 
REMARK  4 active torsions:
REMARK  status: ('A' for Active; 'I' for Inactive)
REMARK    1  A    between atoms: O_1  and  C_2
REMARK    2  A    between atoms: C_3  and  C_4
REMARK    3  A    between atoms: C_4  and  C_5
REMARK    4  A    between atoms: C_6  and  O_7
REMARK                            x       y       z     vdW  Elec       q    Type
REMARK                         _______ _______ _______ _____ _____    ______ ____
ROOT
ATOM      1  C   UNL     1       2.191   2.260   0.042  0.00  0.00    +0.080 C 
ENDROOT
BRANCH   1  10
ATOM      2  C   UNL     1       3.826   0.409   0.643  0.00  0.00    +0.140 A 
ATOM      3  C   UNL     1       4.829  -0.504   0.280  0.00  0.00    +0.084 A 
ATOM      4 CL   UNL     1       5.802  -1.289   1.471  0.00  0.00    -0.080 Cl
ATOM      5  C   UNL     1       5.072  -0.788  -1.060  0.00  0.00    +0.045 A 
ATOM      6  C   UNL     1       4.288  -0.186  -2.046  0.00  0.00    +0.061 A 
ATOM      7 CL   UNL     1       4.625  -0.623  -3.688  0.00  0.00    -0.082 Cl
ATOM      8  C   UNL     1       3.301   0.751  -1.696  0.00  0.00    +0.066 A 
ATOM      9 CL   UNL     1       2.337   1.492  -2.941  0.00  0.00    -0.082 Cl
ATOM     10  C   UNL     1       3.090   1.098  -0.341  0.00  0.00    +0.020 A 
BRANCH   2  11
ATOM     11  O   UNL     1       3.593   0.596   1.981  0.00  0.00    -0.505 OA
ATOM     12  H   UNL     1       2.746   1.032   2.155  0.00  0.00    +0.292 HD
ENDBRANCH   2  11
ENDBRANCH   1  10
BRANCH   1  13
ATOM     13  C   UNL     1       0.683   2.097   0.155  0.00  0.00    +0.020 A 
ATOM     14  C   UNL     1      -0.091   3.274   0.370  0.00  0.00    +0.066 A 
ATOM     15 CL   UNL     1       0.709   4.793   0.680  0.00  0.00    -0.082 Cl
ATOM     16  C   UNL     1      -1.497   3.237   0.351  0.00  0.00    +0.061 A 
ATOM     17 CL   UNL     1      -2.473   4.646   0.585  0.00  0.00    -0.082 Cl
ATOM     18  C   UNL     1      -2.161   2.034   0.129  0.00  0.00    +0.045 A 
ATOM     19  C   UNL     1      -1.424   0.864  -0.031  0.00  0.00    +0.084 A 
ATOM     20 CL   UNL     1      -2.296  -0.610  -0.262  0.00  0.00    -0.080 Cl
ATOM     21  C   UNL     1      -0.019   0.888   0.003  0.00  0.00    +0.140 A 
BRANCH  21  22
ATOM     22  O   UNL     1       0.630  -0.308  -0.133  0.00  0.00    -0.505 OA
ATOM     23  H   UNL     1       1.246  -0.430   0.607  0.00  0.00    +0.292 HD
ENDBRANCH  21  22
ENDBRANCH   1  13
TORSDOF 4
