REMARK  Name = 
REMARK  3 active torsions:
REMARK  status: ('A' for Active; 'I' for Inactive)
REMARK    1  A    between atoms: C_1  and  N_2
REMARK    2  A    between atoms: N_5  and  C_6
REMARK    3  A    between atoms: C_6  and  C_7
REMARK                            x       y       z     vdW  Elec       q    Type
REMARK                         _______ _______ _______ _____ _____    ______ ____
ROOT
ATOM      1  C   UNL     1       4.797  -0.595  -4.403  0.00  0.00    +0.248 C 
ATOM      2  N   UNL     1       6.111  -0.709  -4.912  0.00  0.00    -0.262 N 
ATOM      3  C   UNL     1       6.639  -2.038  -5.181  0.00  0.00    +0.164 A 
ATOM      4  N   UNL     1       5.816  -3.102  -5.000  0.00  0.00    -0.236 NA
ATOM      5  C   UNL     1       6.263  -4.347  -5.319  0.00  0.00    +0.113 A 
ATOM      6  C   UNL     1       7.525  -4.629  -5.803  0.00  0.00    +0.022 A 
ATOM      7  C   UNL     1       8.387  -3.563  -5.974  0.00  0.00    +0.031 A 
ATOM      8  C   UNL     1       7.943  -2.277  -5.660  0.00  0.00    +0.085 A 
ATOM      9  N   UNL     1       8.819  -1.229  -5.995  0.00  0.00    -0.319 N 
ATOM     10  H   UNL     1       8.858  -0.583  -5.207  0.00  0.00    +0.169 HD
ATOM     11  C   UNL     1       8.303  -0.560  -7.093  0.00  0.00    +0.258 A 
ATOM     12  O   UNL     1       8.527  -0.838  -8.260  0.00  0.00    -0.267 OA
ATOM     13  C   UNL     1       7.462   0.569  -6.696  0.00  0.00    +0.063 A 
ATOM     14  C   UNL     1       7.691   1.767  -7.397  0.00  0.00    +0.015 A 
ATOM     15  C   UNL     1       7.254   2.971  -6.867  0.00  0.00    +0.001 A 
ATOM     16  C   UNL     1       6.623   2.971  -5.633  0.00  0.00    +0.002 A 
ATOM     17  C   UNL     1       6.319   1.758  -5.002  0.00  0.00    +0.027 A 
ATOM     18  C   UNL     1       6.650   0.504  -5.549  0.00  0.00    +0.064 A 
ATOM     19  O   UNL     1       3.963   0.192  -4.870  0.00  0.00    -0.271 OA
ENDROOT
BRANCH   1  20
ATOM     20  C   UNL     1       4.418  -1.337  -3.096  0.00  0.00    +0.184 C 
BRANCH  20  25
ATOM     21  C   UNL     1       3.427   0.847   1.177  0.00  0.00    +0.105 C 
ATOM     22  N   UNL     1       2.753   0.181   0.061  0.00  0.00    -0.303 NA
ATOM     23  C   UNL     1       3.197  -1.218  -0.092  0.00  0.00    +0.099 C 
ATOM     24  C   UNL     1       4.631  -1.400  -0.664  0.00  0.00    +0.100 C 
ATOM     25  N   UNL     1       4.947  -0.635  -1.895  0.00  0.00    -0.291 NA
ATOM     26  C   UNL     1       4.430   0.744  -1.744  0.00  0.00    +0.100 C 
ATOM     27  C   UNL     1       2.991   0.889  -1.207  0.00  0.00    +0.099 C 
ENDBRANCH  20  25
ENDBRANCH   1  20
TORSDOF 2
