REMARK  Name = 
REMARK  5 active torsions:
REMARK  status: ('A' for Active; 'I' for Inactive)
REMARK    1  A    between atoms: N_1  and  CA_2
REMARK    2  A    between atoms: CA_2  and  CB_4
REMARK    3  A    between atoms: CA_2  and  C_14
REMARK    4  A    between atoms: CB_4  and  CG_5
REMARK    5  A    between atoms: C_14  and  O_15
REMARK                            x       y       z     vdW  Elec       q    Type
REMARK                         _______ _______ _______ _____ _____    ______ ____
ROOT
ATOM      1  CG  TRP A   1       2.543  -2.339   0.997  0.00  0.00    -0.020 A 
ATOM      2  CD2 TRP A   1       1.930  -2.041   2.259  0.00  0.00    +0.003 A 
ATOM      3  CE2 TRP A   1       1.752  -3.251   2.931  0.00  0.00    +0.047 A 
ATOM      4  CZ2 TRP A   1       1.169  -3.340   4.201  0.00  0.00    +0.026 A 
ATOM      5  CH2 TRP A   1       0.745  -2.154   4.804  0.00  0.00    +0.002 A 
ATOM      6  CZ3 TRP A   1       0.904  -0.929   4.162  0.00  0.00    +0.001 A 
ATOM      7  NE1 TRP A   1       2.244  -4.245   2.119  0.00  0.00    -0.360 N 
ATOM      8  HE1 TRP A   1       2.244  -5.229   2.349  0.00  0.00    +0.165 HD
ATOM      9  CE3 TRP A   1       1.499  -0.857   2.895  0.00  0.00    +0.010 A 
ATOM     10  CD1 TRP A   1       2.723  -3.709   0.958  0.00  0.00    +0.087 A 
ENDROOT
BRANCH   1  11
ATOM     11  CB  TRP A   1       2.936  -1.384  -0.093  0.00  0.00    +0.067 C 
BRANCH  11  12
ATOM     12  CA  TRP A   1       1.858  -1.150  -1.164  0.00  0.00    +0.165 C 
BRANCH  12  13
ATOM     13  N   TRP A   1       0.600  -0.527  -0.630  0.00  0.00    -0.318 NA
ATOM     14  H1  TRP A   1       0.407  -0.955   0.285  0.00  0.00    +0.119 HD
ATOM     15  H2  TRP A   1       0.819   0.446  -0.399  0.00  0.00    +0.119 HD
ENDBRANCH  12  13
BRANCH  12  16
ATOM     16  C   TRP A   1       1.497  -2.451  -1.901  0.00  0.00    +0.322 C 
ATOM     17  OXT TRP A   1       2.295  -3.225  -2.407  0.00  0.00    -0.249 OA
BRANCH  16  18
ATOM     18  O   TRP A   1       0.149  -2.622  -1.968  0.00  0.00    -0.480 OA
ATOM     19  H   TRP A   1      -0.239  -1.828  -1.521  0.00  0.00    +0.295 HD
ENDBRANCH  16  18
ENDBRANCH  12  16
ENDBRANCH  11  12
ENDBRANCH   1  11
TORSDOF 5
