REMARK  Name = 
REMARK  7 active torsions:
REMARK  status: ('A' for Active; 'I' for Inactive)
REMARK    1  A    between atoms: C_2  and  C_4
REMARK    2  A    between atoms: C_4  and  C_5
REMARK    3  A    between atoms: C_4  and  C_22
REMARK    4  A    between atoms: C_4  and  C_28
REMARK    5  A    between atoms: N_9  and  C_10
REMARK    6  A    between atoms: C_10  and  C_11
REMARK    7  A    between atoms: C_11  and  C_12
REMARK                            x       y       z     vdW  Elec       q    Type
REMARK                         _______ _______ _______ _____ _____    ______ ____
ROOT
ATOM      1  C   UNL     1       1.533  -0.691   3.001  0.00  0.00    +0.100 C 
ENDROOT
BRANCH   1   2
ATOM      2  C   UNL     1       1.680  -2.256   2.920  0.00  0.00    -0.028 A 
ATOM      3  C   UNL     1       0.780  -3.091   3.616  0.00  0.00    +0.005 A 
ATOM      4  C   UNL     1       0.801  -4.481   3.459  0.00  0.00    +0.000 A 
ATOM      5  C   UNL     1       1.704  -5.072   2.583  0.00  0.00    +0.000 A 
ATOM      6  C   UNL     1       2.589  -4.274   1.869  0.00  0.00    +0.000 A 
ATOM      7  C   UNL     1       2.579  -2.884   2.035  0.00  0.00    +0.005 A 
ENDBRANCH   1   2
BRANCH   1   8
ATOM      8  C   UNL     1       1.044  -0.236   4.427  0.00  0.00    -0.028 A 
ATOM      9  C   UNL     1       1.769  -0.586   5.585  0.00  0.00    +0.005 A 
ATOM     10  C   UNL     1       1.408  -0.124   6.858  0.00  0.00    +0.000 A 
ATOM     11  C   UNL     1       0.248   0.618   7.026  0.00  0.00    +0.000 A 
ATOM     12  C   UNL     1      -0.533   0.919   5.918  0.00  0.00    +0.000 A 
ATOM     13  C   UNL     1      -0.130   0.517   4.638  0.00  0.00    +0.005 A 
ENDBRANCH   1   8
BRANCH   1  17
ATOM     14  N   UNL     1       0.806  -0.027   0.635  0.00  0.00    -0.328 N 
ATOM     15  H   UNL     1       1.681  -0.355   0.253  0.00  0.00    +0.145 HD
ATOM     16  H   UNL     1       0.038  -0.004  -0.027  0.00  0.00    +0.145 HD
ATOM     17  C   UNL     1       0.414  -0.408   1.890  0.00  0.00    +0.226 C 
ATOM     18  O   UNL     1      -0.795  -0.593   2.045  0.00  0.00    -0.275 OA
ENDBRANCH   1  17
BRANCH   1  19
ATOM     19  C   UNL     1       2.891   0.056   2.585  0.00  0.00    +0.028 C 
ATOM     20  C   UNL     1       2.839   1.582   2.445  0.00  0.00    +0.089 C 
ATOM     21  N   UNL     1       3.576   2.194   3.557  0.00  0.00    -0.302 NA
ATOM     22  C   UNL     1       4.223   1.121   4.320  0.00  0.00    +0.085 C 
ATOM     23  C   UNL     1       4.136  -0.131   3.456  0.00  0.00    +0.022 C 
BRANCH  21  24
ATOM     24  C   UNL     1       2.697   3.061   4.364  0.00  0.00    +0.089 C 
BRANCH  24  25
ATOM     25  C   UNL     1       3.383   3.773   5.545  0.00  0.00    +0.050 C 
BRANCH  25  26
ATOM     26  C   UNL     1       2.434   4.675   6.313  0.00  0.00    -0.046 A 
ATOM     27  C   UNL     1       1.315   4.125   6.975  0.00  0.00    +0.007 A 
ATOM     28  C   UNL     1       0.419   4.921   7.694  0.00  0.00    +0.046 A 
ATOM     29  C   UNL     1       0.668   6.275   7.746  0.00  0.00    +0.124 A 
ATOM     30  O   UNL     1      -0.118   7.168   8.415  0.00  0.00    -0.491 OA
ATOM     31  C   UNL     1       0.516   8.448   8.206  0.00  0.00    +0.234 C 
ATOM     32  C   UNL     1       1.782   8.290   7.356  0.00  0.00    +0.080 C 
ATOM     33  C   UNL     1       1.774   6.834   7.121  0.00  0.00    -0.002 A 
ATOM     34  C   UNL     1       2.663   6.054   6.395  0.00  0.00    +0.011 A 
ENDBRANCH  25  26
ENDBRANCH  24  25
ENDBRANCH  21  24
ENDBRANCH   1  19
TORSDOF 7
