REMARK  Name = 
REMARK  6 active torsions:
REMARK  status: ('A' for Active; 'I' for Inactive)
REMARK    1  A    between atoms: O_1  and  C_2
REMARK    2  A    between atoms: C_2  and  C_3
REMARK    3  A    between atoms: C_2  and  C_9
REMARK    4  A    between atoms: C_2  and  C_15
REMARK    5  A    between atoms: C_3  and  N_4
REMARK    6  A    between atoms: C_9  and  N_10
REMARK                            x       y       z     vdW  Elec       q    Type
REMARK                         _______ _______ _______ _____ _____    ______ ____
ROOT
ATOM      1  C   UNL     1       2.378   0.108  -0.017  0.00  0.00    +0.132 C 
ENDROOT
BRANCH   1   2
ATOM      2  C   UNL     1       2.756   1.073  -1.152  0.00  0.00    +0.023 A 
ATOM      3  C   UNL     1       1.921   2.154  -1.498  0.00  0.00    +0.012 A 
ATOM      4  C   UNL     1       2.224   2.981  -2.585  0.00  0.00    +0.039 A 
ATOM      5  C   UNL     1       3.361   2.731  -3.343  0.00  0.00    +0.126 A 
ATOM      6  F   UNL     1       3.628   3.500  -4.407  0.00  0.00    -0.205 F 
ATOM      7  C   UNL     1       4.229   1.709  -3.002  0.00  0.00    +0.077 A 
ATOM      8  C   UNL     1       3.938   0.916  -1.896  0.00  0.00    +0.132 A 
ATOM      9  F   UNL     1       4.841  -0.002  -1.531  0.00  0.00    -0.205 F 
ENDBRANCH   1   2
BRANCH   1  10
ATOM     10  O   UNL     1       0.938   0.175   0.133  0.00  0.00    -0.380 OA
ATOM     11  H   UNL     1       0.717  -0.279   0.979  0.00  0.00    +0.211 HD
ENDBRANCH   1  10
BRANCH   1  12
ATOM     12  C   UNL     1       2.760  -1.377  -0.278  0.00  0.00    +0.186 C 
BRANCH  12  13
ATOM     13  N   UNL     1       2.276  -1.910  -1.535  0.00  0.00    -0.249 N 
ATOM     14  N   UNL     1       3.135  -2.361  -2.468  0.00  0.00    -0.158 NA
ATOM     15  C   UNL     1       2.293  -2.827  -3.393  0.00  0.00    +0.244 A 
ATOM     16  N   UNL     1       0.967  -2.720  -3.083  0.00  0.00    -0.223 NA
ATOM     17  C   UNL     1       0.990  -2.149  -1.900  0.00  0.00    +0.219 A 
ENDBRANCH  12  13
ENDBRANCH   1  12
BRANCH   1  18
ATOM     18  C   UNL     1       3.021   0.624   1.302  0.00  0.00    +0.186 C 
BRANCH  18  19
ATOM     19  N   UNL     1       2.735  -0.192   2.469  0.00  0.00    -0.249 N 
ATOM     20  N   UNL     1       1.569  -0.866   2.581  0.00  0.00    -0.158 NA
ATOM     21  C   UNL     1       1.749  -1.511   3.740  0.00  0.00    +0.244 A 
ATOM     22  N   UNL     1       2.933  -1.252   4.365  0.00  0.00    -0.223 NA
ATOM     23  C   UNL     1       3.526  -0.406   3.553  0.00  0.00    +0.219 A 
ENDBRANCH  18  19
ENDBRANCH   1  18
TORSDOF 6
