REMARK  Name = 
REMARK  18 active torsions:
REMARK  status: ('A' for Active; 'I' for Inactive)
REMARK    1  A    between atoms: C_5  and  O_7
REMARK    2  A    between atoms: C_8  and  C_9
REMARK    3  A    between atoms: C_15  and  C_17
REMARK    4  A    between atoms: C_17  and  C_18
REMARK    5  A    between atoms: C_18  and  C_19
REMARK    6  A    between atoms: C_19  and  C_20
REMARK    7  A    between atoms: C_20  and  C_21
REMARK    8  A    between atoms: C_21  and  C_22
REMARK    9  A    between atoms: C_22  and  C_23
REMARK   10  A    between atoms: C_23  and  C_24
REMARK   11  A    between atoms: C_24  and  C_25
REMARK   12  A    between atoms: C_25  and  S_26
REMARK   13  A    between atoms: S_26  and  C_28
REMARK   14  A    between atoms: C_28  and  C_29
REMARK   15  A    between atoms: C_29  and  C_30
REMARK   16  A    between atoms: C_30  and  C_31
REMARK   17  A    between atoms: C_31  and  C_34
REMARK   18  A    between atoms: C_41  and  O_42
REMARK                            x       y       z     vdW  Elec       q    Type
REMARK                         _______ _______ _______ _____ _____    ______ ____
ROOT
ATOM      1  C   UNL     1      -0.000  -0.000  -0.000  0.00  0.00    +0.001 C 
ATOM      2  C   UNL     1      -0.000  -0.000  -0.000  0.00  0.00    +0.004 C 
ATOM      3  C   UNL     1      -0.000  -0.000  -0.000  0.00  0.00    -0.003 C 
ATOM      4  C   UNL     1      -0.000  -0.000  -0.000  0.00  0.00    +0.039 C 
ATOM      5  C   UNL     1      -0.000  -0.000  -0.000  0.00  0.00    -0.040 A 
ATOM      6  C   UNL     1      -0.000  -0.000  -0.000  0.00  0.00    -0.041 A 
ATOM      7  C   UNL     1      -0.000  -0.000  -0.000  0.00  0.00    +0.008 A 
ATOM      8  C   UNL     1      -0.000  -0.000  -0.000  0.00  0.00    +0.046 A 
ATOM      9  C   UNL     1      -0.000  -0.000  -0.000  0.00  0.00    +0.117 A 
ATOM     10  C   UNL     1      -0.000  -0.000  -0.000  0.00  0.00    +0.049 A 
ATOM     11  C   UNL     1      -0.000  -0.000  -0.000  0.00  0.00    +0.023 C 
ATOM     12  C   UNL     1      -0.000  -0.000  -0.000  0.00  0.00    +0.009 C 
ATOM     13  C   UNL     1      -0.000  -0.000  -0.000  0.00  0.00    +0.010 C 
ATOM     14  C   UNL     1      -0.000  -0.000  -0.000  0.00  0.00    -0.003 C 
ATOM     15  C   UNL     1      -0.000  -0.000  -0.000  0.00  0.00    +0.014 C 
ATOM     16  C   UNL     1      -0.000  -0.000  -0.000  0.00  0.00    +0.121 C 
ATOM     17  C   UNL     1      -0.000  -0.000  -0.000  0.00  0.00    +0.032 C 
ATOM     18  C   UNL     1      -0.000  -0.000  -0.000  0.00  0.00    +0.007 C 
ENDROOT
BRANCH  16  19
ATOM     19  O   UNL     1      -0.000  -0.000  -0.000  0.00  0.00    -0.391 OA
ATOM     20  H   UNL     1      -0.000  -0.000  -0.000  0.00  0.00    +0.210 HD
ENDBRANCH  16  19
BRANCH   9  21
ATOM     21  O   UNL     1      -0.000  -0.000  -0.000  0.00  0.00    -0.507 OA
ATOM     22  H   UNL     1      -0.000  -0.000  -0.000  0.00  0.00    +0.292 HD
ENDBRANCH   9  21
BRANCH   3  23
ATOM     23  C   UNL     1      -0.000  -0.000  -0.000  0.00  0.00    +0.004 C 
BRANCH  23  24
ATOM     24  C   UNL     1      -0.000  -0.000  -0.000  0.00  0.00    +0.000 C 
BRANCH  24  25
ATOM     25  C   UNL     1      -0.000  -0.000  -0.000  0.00  0.00    +0.000 C 
BRANCH  25  26
ATOM     26  C   UNL     1      -0.000  -0.000  -0.000  0.00  0.00    +0.000 C 
BRANCH  26  27
ATOM     27  C   UNL     1      -0.000  -0.000  -0.000  0.00  0.00    +0.000 C 
BRANCH  27  28
ATOM     28  C   UNL     1      -0.000  -0.000  -0.000  0.00  0.00    +0.000 C 
BRANCH  28  29
ATOM     29  C   UNL     1      -0.000  -0.000  -0.000  0.00  0.00    +0.001 C 
BRANCH  29  30
ATOM     30  C   UNL     1      -0.000  -0.000  -0.000  0.00  0.00    +0.013 C 
BRANCH  30  31
ATOM     31  C   UNL     1      -0.000  -0.000  -0.000  0.00  0.00    +0.104 C 
BRANCH  31  32
ATOM     32  S   UNL     1      -0.000  -0.000  -0.000  0.00  0.00    +0.022 S 
ATOM     33  O   UNL     1      -0.000  -0.000  -0.000  0.00  0.00    -0.257 OA
BRANCH  32  34
ATOM     34  C   UNL     1      -0.000  -0.000  -0.000  0.00  0.00    +0.104 C 
BRANCH  34  35
ATOM     35  C   UNL     1      -0.000  -0.000  -0.000  0.00  0.00    +0.019 C 
BRANCH  35  36
ATOM     36  C   UNL     1      -0.000  -0.000  -0.000  0.00  0.00    +0.086 C 
BRANCH  36  37
ATOM     37  C   UNL     1      -0.000  -0.000  -0.000  0.00  0.00    +0.342 C 
ATOM     38  F   UNL     1      -0.000  -0.000  -0.000  0.00  0.00    -0.196 F 
ATOM     39  F   UNL     1      -0.000  -0.000  -0.000  0.00  0.00    -0.196 F 
BRANCH  37  40
ATOM     40  C   UNL     1      -0.000  -0.000  -0.000  0.00  0.00    +0.454 C 
ATOM     41  F   UNL     1      -0.000  -0.000  -0.000  0.00  0.00    -0.165 F 
ATOM     42  F   UNL     1      -0.000  -0.000  -0.000  0.00  0.00    -0.165 F 
ATOM     43  F   UNL     1      -0.000  -0.000  -0.000  0.00  0.00    -0.165 F 
ENDBRANCH  37  40
ENDBRANCH  36  37
ENDBRANCH  35  36
ENDBRANCH  34  35
ENDBRANCH  32  34
ENDBRANCH  31  32
ENDBRANCH  30  31
ENDBRANCH  29  30
ENDBRANCH  28  29
ENDBRANCH  27  28
ENDBRANCH  26  27
ENDBRANCH  25  26
ENDBRANCH  24  25
ENDBRANCH  23  24
ENDBRANCH   3  23
TORSDOF 17
