REMARK  Name = 
REMARK  16 active torsions:
REMARK  status: ('A' for Active; 'I' for Inactive)
REMARK    1  A    between atoms: C_1  and  C_2
REMARK    2  A    between atoms: C_2  and  C_3
REMARK    3  A    between atoms: C_2  and  C_4
REMARK    4  A    between atoms: C_4  and  N_5
REMARK    5  A    between atoms: N_5  and  C_6
REMARK    6  A    between atoms: N_5  and  S_29
REMARK    7  A    between atoms: C_6  and  C_7
REMARK    8  A    between atoms: C_7  and  O_9
REMARK    9  A    between atoms: C_7  and  C_10
REMARK   10  A    between atoms: C_10  and  C_12
REMARK   11  A    between atoms: C_10  and  N_19
REMARK   12  A    between atoms: C_12  and  C_13
REMARK   13  A    between atoms: C_20  and  O_22
REMARK   14  A    between atoms: O_22  and  C_23
REMARK   15  A    between atoms: S_29  and  C_32
REMARK   16  A    between atoms: C_35  and  N_36
REMARK                            x       y       z     vdW  Elec       q    Type
REMARK                         _______ _______ _______ _____ _____    ______ ____
ROOT
ATOM      1  C   UNL     1       4.129   0.744  -3.809  0.00  0.00    +0.151 C 
ENDROOT
BRANCH   1   2
ATOM      2  O   UNL     1       4.664   2.048  -4.058  0.00  0.00    -0.389 OA
ATOM      3  H   UNL     1       5.592   1.926  -4.326  0.00  0.00    +0.210 HD
ENDBRANCH   1   2
BRANCH   1   4
ATOM      4  C   UNL     1       2.752   0.874  -3.106  0.00  0.00    +0.142 C 
BRANCH   4   5
ATOM      5  N   UNL     1       1.572   1.278  -4.006  0.00  0.00    -0.174 NA
BRANCH   5   6
ATOM      6  S   UNL     1       1.280   0.093  -5.269  0.00  0.00    +0.061 S 
ATOM      7  O   UNL     1       0.971  -1.149  -4.589  0.00  0.00    -0.153 OA
ATOM      8  O   UNL     1       2.329   0.171  -6.254  0.00  0.00    -0.153 OA
BRANCH   6   9
ATOM      9  C   UNL     1      -0.202   0.649  -6.082  0.00  0.00    +0.106 A 
ATOM     10  C   UNL     1      -1.355  -0.137  -6.050  0.00  0.00    +0.030 A 
ATOM     11  C   UNL     1      -2.516   0.320  -6.678  0.00  0.00    +0.024 A 
ATOM     12  C   UNL     1      -2.545   1.570  -7.306  0.00  0.00    +0.025 A 
ATOM     13  C   UNL     1      -1.360   2.307  -7.395  0.00  0.00    +0.024 A 
ATOM     14  C   UNL     1      -0.189   1.864  -6.770  0.00  0.00    +0.030 A 
BRANCH  12  15
ATOM     15  N   UNL     1      -3.677   1.963  -8.029  0.00  0.00    -0.358 N 
ATOM     16  H   UNL     1      -4.547   1.574  -7.680  0.00  0.00    +0.142 HD
ATOM     17  H   UNL     1      -3.738   2.964  -8.185  0.00  0.00    +0.142 HD
ENDBRANCH  12  15
ENDBRANCH   6   9
ENDBRANCH   5   6
BRANCH   5  18
ATOM     18  C   UNL     1       0.316   1.516  -3.192  0.00  0.00    +0.112 C 
BRANCH  18  20
ATOM     19  C   UNL     1       0.743   4.014  -2.802  0.00  0.00    +0.008 C 
ATOM     20  C   UNL     1       0.388   2.666  -2.173  0.00  0.00    -0.001 C 
ATOM     21  C   UNL     1      -0.973   2.788  -1.472  0.00  0.00    +0.008 C 
ENDBRANCH  18  20
ENDBRANCH   5  18
ENDBRANCH   4   5
ENDBRANCH   1   4
BRANCH   1  22
ATOM     22  C   UNL     1       5.148  -0.145  -3.016  0.00  0.00    +0.110 C 
BRANCH  22  23
ATOM     23  N   UNL     1       6.302  -0.500  -3.851  0.00  0.00    -0.275 N 
ATOM     24  H   UNL     1       7.191  -0.026  -3.769  0.00  0.00    +0.152 HD
ATOM     25  C   UNL     1       6.179  -1.470  -4.807  0.00  0.00    +0.401 C 
ATOM     26  O   UNL     1       5.171  -2.148  -4.970  0.00  0.00    -0.226 OA
BRANCH  25  27
ATOM     27  O   UNL     1       7.319  -1.600  -5.527  0.00  0.00    -0.445 OA
BRANCH  27  28
ATOM     28  C   UNL     1       7.278  -2.652  -6.499  0.00  0.00    +0.206 C 
ATOM     29  C   UNL     1       8.637  -2.836  -7.156  0.00  0.00    +0.204 C 
ATOM     30  O   UNL     1       8.419  -3.282  -8.504  0.00  0.00    -0.376 OA
ATOM     31  C   UNL     1       7.011  -3.236  -8.767  0.00  0.00    +0.163 C 
ATOM     32  C   UNL     1       6.395  -2.363  -7.698  0.00  0.00    +0.075 C 
ENDBRANCH  27  28
ENDBRANCH  25  27
ENDBRANCH  22  23
BRANCH  22  33
ATOM     33  C   UNL     1       5.574   0.296  -1.597  0.00  0.00    +0.060 C 
BRANCH  33  34
ATOM     34  C   UNL     1       6.474   1.491  -1.375  0.00  0.00    -0.046 A 
ATOM     35  C   UNL     1       7.790   1.320  -0.912  0.00  0.00    +0.004 A 
ATOM     36  C   UNL     1       8.563   2.419  -0.521  0.00  0.00    +0.000 A 
ATOM     37  C   UNL     1       8.036   3.705  -0.598  0.00  0.00    +0.000 A 
ATOM     38  C   UNL     1       6.745   3.893  -1.083  0.00  0.00    +0.000 A 
ATOM     39  C   UNL     1       5.970   2.794  -1.462  0.00  0.00    +0.004 A 
ENDBRANCH  33  34
ENDBRANCH  22  33
ENDBRANCH   1  22
TORSDOF 14
