REMARK  Name = 
REMARK  3 active torsions:
REMARK  status: ('A' for Active; 'I' for Inactive)
REMARK    1  A    between atoms: N_1  and  S_2
REMARK    2  A    between atoms: S_2  and  C_5
REMARK    3  A    between atoms: C_5  and  C_6
REMARK                            x       y       z     vdW  Elec       q    Type
REMARK                         _______ _______ _______ _____ _____    ______ ____
ROOT
ATOM      1  C   UNL     1       4.802   1.717   0.105  0.00  0.00    +0.114 A 
ATOM      2  C   UNL     1       5.588   1.725   1.288  0.00  0.00    +0.046 A 
ATOM      3  C   UNL     1       6.890   1.739   0.818  0.00  0.00    +0.168 A 
ATOM      4  C   UNL     1       8.020   1.751   1.630  0.00  0.00    +0.049 A 
ATOM      5  C   UNL     1       7.792   1.737   3.009  0.00  0.00    +0.004 A 
ATOM      6  C   UNL     1       6.491   1.719   3.526  0.00  0.00    +0.001 A 
ATOM      7  O   UNL     1       6.878   1.733  -0.541  0.00  0.00    -0.354 OA
ATOM      8  C   UNL     1       5.373   1.718   2.677  0.00  0.00    +0.013 A 
ATOM      9  N   UNL     1       5.570   1.699  -0.994  0.00  0.00    -0.080 NA
ENDROOT
BRANCH   1  10
ATOM     10  C   UNL     1       3.328   1.669  -0.024  0.00  0.00    +0.244 C 
BRANCH  10  11
ATOM     11  S   UNL     1       2.608   3.306   0.117  0.00  0.00    +0.033 S 
ATOM     12  O   UNL     1       2.790   3.815   1.458  0.00  0.00    -0.158 OA
ATOM     13  O   UNL     1       2.875   4.106  -1.054  0.00  0.00    -0.158 OA
BRANCH  11  14
ATOM     14  N   UNL     1       0.958   2.964   0.031  0.00  0.00    -0.208 NA
ATOM     15  H   UNL     1       0.545   2.999   0.965  0.00  0.00    +0.144 HD
ATOM     16  H   UNL     1       0.518   3.618  -0.619  0.00  0.00    +0.144 HD
ENDBRANCH  11  14
ENDBRANCH  10  11
ENDBRANCH   1  10
TORSDOF 3
