REMARK  Name = 
REMARK  4 active torsions:
REMARK  status: ('A' for Active; 'I' for Inactive)
REMARK    1  A    between atoms: C_1  and  N_2
REMARK    2  A    between atoms: C_3  and  C_4
REMARK    3  A    between atoms: C_11  and  S_17
REMARK    4  A    between atoms: S_17  and  N_18
REMARK                            x       y       z     vdW  Elec       q    Type
REMARK                         _______ _______ _______ _____ _____    ______ ____
ROOT
ATOM      1  C   UNL     1       0.905  -0.023  -0.127  0.00  0.00    +0.134 C 
ATOM      2  N   UNL     1       2.368   0.061   0.079  0.00  0.00    -0.158 NA
ATOM      3  S   UNL     1       2.816   1.582   0.688  0.00  0.00    +0.064 S 
ATOM      4  O   UNL     1       2.237   1.708   2.008  0.00  0.00    -0.153 OA
ATOM      5  O   UNL     1       2.555   2.563  -0.342  0.00  0.00    -0.153 OA
ATOM      6  C   UNL     1       4.548   1.451   0.899  0.00  0.00    +0.128 A 
ATOM      7  C   UNL     1       5.128   0.188   0.929  0.00  0.00    +0.056 A 
ATOM      8  C   UNL     1       6.524   0.133   1.056  0.00  0.00    +0.047 A 
ATOM      9  C   UNL     1       7.301   1.295   1.217  0.00  0.00    +0.069 A 
ATOM     10  C   UNL     1       6.678   2.543   1.218  0.00  0.00    +0.125 A 
ATOM     11 CL   UNL     1       9.002   1.068   1.415  0.00  0.00    -0.081 Cl
ATOM     12  N   UNL     1       4.415  -0.985   0.695  0.00  0.00    -0.325 N 
ATOM     13  H   UNL     1       4.870  -1.819   1.066  0.00  0.00    +0.148 HD
ATOM     14  C   UNL     1       5.293   2.625   1.045  0.00  0.00    +0.060 A 
ATOM     15  C   UNL     1       2.964  -1.011   0.899  0.00  0.00    +0.177 C 
ENDROOT
BRANCH  10  16
ATOM     16  S   UNL     1       7.578   4.048   1.398  0.00  0.00    +0.057 S 
ATOM     17  O   UNL     1       6.638   5.137   1.546  0.00  0.00    -0.153 OA
ATOM     18  O   UNL     1       8.642   4.089   0.426  0.00  0.00    -0.153 OA
BRANCH  16  19
ATOM     19  N   UNL     1       8.287   3.899   2.911  0.00  0.00    -0.203 NA
ATOM     20  H   UNL     1       7.941   4.635   3.529  0.00  0.00    +0.144 HD
ATOM     21  H   UNL     1       9.304   3.888   2.814  0.00  0.00    +0.144 HD
ENDBRANCH  16  19
ENDBRANCH  10  16
BRANCH  15  22
ATOM     22  C   UNL     1       2.449  -2.417   0.508  0.00  0.00    +0.148 C 
ATOM     23 CL   UNL     1       3.193  -3.691   1.527  0.00  0.00    -0.122 Cl
ENDBRANCH  15  22
TORSDOF 3
