REMARK  Name = 
REMARK  3 active torsions:
REMARK  status: ('A' for Active; 'I' for Inactive)
REMARK    1  A    between atoms: N_1  and  S_2
REMARK    2  A    between atoms: S_2  and  C_5
REMARK    3  A    between atoms: C_16  and  C_17
REMARK                            x       y       z     vdW  Elec       q    Type
REMARK                         _______ _______ _______ _____ _____    ______ ____
ROOT
ATOM      1  C   UNL     1       3.333   1.063  -1.205  0.00  0.00    +0.119 A 
ATOM      2  C   UNL     1       3.995   0.639  -2.366  0.00  0.00    +0.083 A 
ATOM      3  C   UNL     1       4.309   1.617  -3.346  0.00  0.00    +0.039 A 
ATOM      4  C   UNL     1       3.949   2.966  -3.217  0.00  0.00    +0.055 A 
ATOM      5  N   UNL     1       4.354   3.880  -4.190  0.00  0.00    -0.328 N 
ATOM      6  H   UNL     1       4.491   3.470  -5.109  0.00  0.00    +0.147 HD
ATOM      7  C   UNL     1       3.688   5.160  -4.237  0.00  0.00    +0.209 C 
ATOM      8  N   UNL     1       3.808   5.819  -2.956  0.00  0.00    -0.173 NA
ATOM      9  H   UNL     1       3.491   6.785  -2.999  0.00  0.00    +0.150 HD
ATOM     10  S   UNL     1       2.920   5.026  -1.775  0.00  0.00    +0.062 S 
ATOM     11  O   UNL     1       1.526   5.199  -2.122  0.00  0.00    -0.153 OA
ATOM     12  O   UNL     1       3.439   5.444  -0.493  0.00  0.00    -0.153 OA
ATOM     13  C   UNL     1       3.322   3.339  -2.033  0.00  0.00    +0.128 A 
ATOM     14  C   UNL     1       3.003   2.420  -1.036  0.00  0.00    +0.059 A 
ENDROOT
BRANCH   2  15
ATOM     15  C   UNL     1       4.417  -0.780  -2.684  0.00  0.00    +0.419 C 
ATOM     16  F   UNL     1       5.753  -0.845  -2.967  0.00  0.00    -0.166 F 
ATOM     17  F   UNL     1       3.796  -1.238  -3.810  0.00  0.00    -0.166 F 
ATOM     18  F   UNL     1       4.212  -1.725  -1.738  0.00  0.00    -0.166 F 
ENDBRANCH   2  15
BRANCH   1  19
ATOM     19  S   UNL     1       2.872  -0.026   0.118  0.00  0.00    +0.057 S 
ATOM     20  O   UNL     1       2.359   0.760   1.215  0.00  0.00    -0.153 OA
ATOM     21  O   UNL     1       2.134  -1.133  -0.436  0.00  0.00    -0.153 OA
BRANCH  19  22
ATOM     22  N   UNL     1       4.362  -0.577   0.651  0.00  0.00    -0.203 NA
ATOM     23  H   UNL     1       4.619  -0.108   1.521  0.00  0.00    +0.144 HD
ATOM     24  H   UNL     1       4.339  -1.595   0.732  0.00  0.00    +0.144 HD
ENDBRANCH  19  22
ENDBRANCH   1  19
TORSDOF 3
