REMARK  Name = 
REMARK  11 active torsions:
REMARK  status: ('A' for Active; 'I' for Inactive)
REMARK    1  A    between atoms: N_1  and  CA_2
REMARK    2  A    between atoms: CA_2  and  CB_4
REMARK    3  A    between atoms: CA_2  and  C_14
REMARK    4  A    between atoms: CB_4  and  SG_5
REMARK    5  A    between atoms: SG_5  and  SG_6
REMARK    6  A    between atoms: SG_6  and  CB_7
REMARK    7  A    between atoms: CB_7  and  CA_8
REMARK    8  A    between atoms: CA_8  and  N_10
REMARK    9  A    between atoms: CA_8  and  C_11
REMARK   10  A    between atoms: C_11  and  O_12
REMARK   11  A    between atoms: C_14  and  O_15
REMARK                            x       y       z     vdW  Elec       q    Type
REMARK                         _______ _______ _______ _____ _____    ______ ____
ROOT
ATOM      1  SG  CYS A   1       0.555   5.477  -4.255  0.00  0.00    -0.091 S 
ENDROOT
BRANCH   1   2
ATOM      2  CB  CYS A   1      -0.400   5.117  -2.740  0.00  0.00    +0.111 C 
BRANCH   2   3
ATOM      3  CA  CYS A   1      -1.186   6.343  -2.260  0.00  0.00    +0.171 C 
BRANCH   3   4
ATOM      4  N   CYS A   1      -0.322   7.530  -1.938  0.00  0.00    -0.318 NA
ATOM      5  H1  CYS A   1       0.574   7.182  -1.580  0.00  0.00    +0.119 HD
ATOM      6  H2  CYS A   1      -0.060   7.954  -2.837  0.00  0.00    +0.119 HD
ENDBRANCH   3   4
BRANCH   3   7
ATOM      7  C   CYS A   1      -1.962   5.957  -0.991  0.00  0.00    +0.323 C 
ATOM      8  OXT CYS A   1      -2.632   4.943  -0.856  0.00  0.00    -0.249 OA
BRANCH   7   9
ATOM      9  O   CYS A   1      -1.816   6.892  -0.018  0.00  0.00    -0.480 OA
ATOM     10  H   CYS A   1      -1.244   7.601  -0.408  0.00  0.00    +0.295 HD
ENDBRANCH   7   9
ENDBRANCH   3   7
ENDBRANCH   2   3
ENDBRANCH   1   2
BRANCH   1  11
ATOM     11  SG  CYS A   1       1.501   3.679  -4.577  0.00  0.00    -0.091 S 
BRANCH  11  12
ATOM     12  CB  CYS A   1       2.474   4.028  -6.084  0.00  0.00    +0.111 C 
BRANCH  12  13
ATOM     13  CA  CYS A   1       3.321   2.813  -6.488  0.00  0.00    +0.171 C 
BRANCH  13  14
ATOM     14  N   CYS A   1       4.358   2.458  -5.465  0.00  0.00    -0.318 NA
ATOM     15  H1  CYS A   1       3.868   2.339  -4.570  0.00  0.00    +0.119 HD
ATOM     16  H2  CYS A   1       4.701   1.516  -5.686  0.00  0.00    +0.119 HD
ENDBRANCH  13  14
BRANCH  13  17
ATOM     17  C   CYS A   1       4.044   3.174  -7.789  0.00  0.00    +0.323 C 
ATOM     18  OXT CYS A   1       3.526   3.204  -8.893  0.00  0.00    -0.249 OA
BRANCH  17  19
ATOM     19  O   CYS A   1       5.340   3.510  -7.556  0.00  0.00    -0.480 OA
ATOM     20  H   CYS A   1       5.492   3.380  -6.586  0.00  0.00    +0.295 HD
ENDBRANCH  17  19
ENDBRANCH  13  17
ENDBRANCH  12  13
ENDBRANCH  11  12
ENDBRANCH   1  11
TORSDOF 11
