REMARK  Name = 
REMARK  17 active torsions:
REMARK  status: ('A' for Active; 'I' for Inactive)
REMARK    1  A    between atoms: C_1  and  C_2
REMARK    2  A    between atoms: C_2  and  O_3
REMARK    3  A    between atoms: O_3  and  C_4
REMARK    4  A    between atoms: C_4  and  C_6
REMARK    5  A    between atoms: C_6  and  C_8
REMARK    6  A    between atoms: C_6  and  N_16
REMARK    7  A    between atoms: C_8  and  C_9
REMARK    8  A    between atoms: C_9  and  C_10
REMARK    9  A    between atoms: N_16  and  CA_17
REMARK   10  A    between atoms: CA_17  and  CB_19
REMARK   11  A    between atoms: CA_17  and  C_20
REMARK   12  A    between atoms: C_26  and  O_27
REMARK   13  A    between atoms: O_27  and  C_28
REMARK   14  A    between atoms: C_29  and  O_30
REMARK   15  A    between atoms: O_30  and  C_31
REMARK   16  A    between atoms: C_35  and  C_37
REMARK   17  A    between atoms: C_37  and  O_38
REMARK                            x       y       z     vdW  Elec       q    Type
REMARK                         _______ _______ _______ _____ _____    ______ ____
ROOT
ATOM      1  C   ALA A   1       8.597  -3.343   2.861  0.00  0.00    +0.233 C 
ATOM      2  N   UNK A   2       9.491  -3.506   1.792  0.00  0.00    -0.282 N 
ATOM      3  C   UNK A   2       9.214  -3.394   0.363  0.00  0.00    +0.189 C 
ATOM      4  C   UNK A   2       9.451  -1.962  -0.133  0.00  0.00    +0.069 C 
ATOM      5  C   UNK A   2      10.897  -1.665   0.083  0.00  0.00    -0.037 A 
ATOM      6  C   UNK A   2      11.581  -2.323   1.110  0.00  0.00    -0.023 A 
ATOM      7  C   UNK A   2      12.938  -2.093   1.232  0.00  0.00    +0.054 A 
ATOM      8  C   UNK A   2      13.595  -1.164   0.408  0.00  0.00    +0.162 A 
ATOM      9  C   UNK A   2      12.883  -0.468  -0.586  0.00  0.00    +0.162 A 
ATOM     10  C   UNK A   2      11.531  -0.738  -0.747  0.00  0.00    +0.053 A 
ATOM     11  C   UNK A   2      10.924  -3.287   2.071  0.00  0.00    +0.144 C 
ATOM     12  O   ALA A   1       9.097  -3.260   4.000  0.00  0.00    -0.274 OA
ENDROOT
BRANCH   1  13
ATOM     13  CA  ALA A   1       7.001  -3.397   2.849  0.00  0.00    +0.138 C 
ATOM     14  CB  ALA A   1       6.352  -4.769   2.984  0.00  0.00    +0.034 C 
BRANCH  13  15
ATOM     15  N   ALA A   1       6.196  -2.456   2.046  0.00  0.00    -0.294 NA
ATOM     16  H   ALA A   1       5.222  -2.463   2.355  0.00  0.00    +0.123 HD
BRANCH  15  17
ATOM     17  C   UNK A   0       6.254  -2.435   0.587  0.00  0.00    +0.164 C 
BRANCH  17  18
ATOM     18  C   UNK A   0       5.719  -1.120  -0.034  0.00  0.00    +0.324 C 
ATOM     19  O   UNK A   0       6.006  -0.782  -1.180  0.00  0.00    -0.249 OA
BRANCH  18  20
ATOM     20  O   UNK A   0       5.112  -0.321   0.882  0.00  0.00    -0.464 OA
BRANCH  20  22
ATOM     21  C   UNK A   0       6.489   1.590   1.337  0.00  0.00    +0.048 C 
ATOM     22  C   UNK A   0       5.237   1.090   0.631  0.00  0.00    +0.229 C 
ENDBRANCH  20  22
ENDBRANCH  18  20
ENDBRANCH  17  18
BRANCH  17  23
ATOM     23  C   UNK A   0       5.883  -3.651  -0.311  0.00  0.00    +0.035 C 
BRANCH  23  24
ATOM     24  C   UNK A   0       6.529  -5.057  -0.185  0.00  0.00    +0.037 C 
BRANCH  24  25
ATOM     25  C   UNK A   0       5.910  -6.125  -1.034  0.00  0.00    -0.047 A 
ATOM     26  C   UNK A   0       5.737  -7.418  -0.519  0.00  0.00    +0.003 A 
ATOM     27  C   UNK A   0       5.197  -8.404  -1.332  0.00  0.00    +0.000 A 
ATOM     28  C   UNK A   0       4.850  -8.097  -2.652  0.00  0.00    +0.000 A 
ATOM     29  C   UNK A   0       5.097  -6.832  -3.190  0.00  0.00    +0.000 A 
ATOM     30  C   UNK A   0       5.656  -5.858  -2.375  0.00  0.00    +0.003 A 
ENDBRANCH  24  25
ENDBRANCH  23  24
ENDBRANCH  17  23
ENDBRANCH  15  17
ENDBRANCH  13  15
ENDBRANCH   1  13
BRANCH   3  31
ATOM     31  C   UNK A   2       9.815  -4.372  -0.677  0.00  0.00    +0.326 C 
ATOM     32  O   UNK A   2       9.688  -4.237  -1.889  0.00  0.00    -0.249 OA
BRANCH  31  33
ATOM     33  O   UNK A   2      10.337  -5.500  -0.143  0.00  0.00    -0.479 OA
ATOM     34  H   UNK A   2      10.220  -5.544   0.826  0.00  0.00    +0.295 HD
ENDBRANCH  31  33
ENDBRANCH   3  31
BRANCH   9  35
ATOM     35  O   UNK A   2      13.557   0.450  -1.353  0.00  0.00    -0.491 OA
ATOM     36  C   UNK A   2      12.764   1.208  -2.268  0.00  0.00    +0.277 C 
ENDBRANCH   9  35
BRANCH   8  37
ATOM     37  O   UNK A   2      14.940  -0.914   0.538  0.00  0.00    -0.491 OA
ATOM     38  C   UNK A   2      15.493  -1.285   1.799  0.00  0.00    +0.277 C 
ENDBRANCH   8  37
TORSDOF 13
