REMARK  Name = 
REMARK  4 active torsions:
REMARK  status: ('A' for Active; 'I' for Inactive)
REMARK    1  A    between atoms: C_1  and  C_2
REMARK    2  A    between atoms: C_5  and  P_7
REMARK    3  A    between atoms: P_7  and  O_8
REMARK    4  A    between atoms: P_7  and  O_9
REMARK                            x       y       z     vdW  Elec       q    Type
REMARK                         _______ _______ _______ _____ _____    ______ ____
ROOT
ATOM      1  P   UNL     1       4.887   1.617  -0.651  0.00  0.00    +0.359 P 
ATOM      2  O   UNL     1       6.177   2.391  -0.286  0.00  0.00    -0.256 OA
ENDROOT
BRANCH   1   5
ATOM      3  C   UNL     1       3.031  -0.078   1.410  0.00  0.00    +0.041 C 
ATOM      4  C   UNL     1       2.567   0.015   0.001  0.00  0.00    +0.157 C 
ATOM      5  C   UNL     1       3.362   0.702  -1.082  0.00  0.00    +0.260 C 
ATOM      6  O   UNL     1       3.321  -0.737  -0.953  0.00  0.00    -0.356 OA
ENDBRANCH   1   5
BRANCH   1   7
ATOM      7  O   UNL     1       4.984   2.033  -2.232  0.00  0.00    -0.322 OA
ATOM      8  H   UNL     1       5.898   2.369  -2.348  0.00  0.00    +0.220 HD
ENDBRANCH   1   7
BRANCH   1   9
ATOM      9  O   UNL     1       5.685   0.180  -0.794  0.00  0.00    -0.322 OA
ATOM     10  H   UNL     1       5.166  -0.538  -1.208  0.00  0.00    +0.220 HD
ENDBRANCH   1   9
TORSDOF 3
