REMARK  Name = 
REMARK  9 active torsions:
REMARK  status: ('A' for Active; 'I' for Inactive)
REMARK    1  A    between atoms: C_1  and  N_2
REMARK    2  A    between atoms: N_2  and  S_3
REMARK    3  A    between atoms: S_3  and  C_6
REMARK    4  A    between atoms: C_6  and  C_7
REMARK    5  A    between atoms: C_13  and  C_14
REMARK    6  A    between atoms: C_14  and  C_15
REMARK    7  A    between atoms: C_15  and  N_16
REMARK    8  A    between atoms: N_16  and  C_17
REMARK    9  A    between atoms: N_16  and  C_18
REMARK                            x       y       z     vdW  Elec       q    Type
REMARK                         _______ _______ _______ _____ _____    ______ ____
ROOT
ATOM      1  C   UNL     1       5.281  -2.627   1.700  0.00  0.00    -0.024 A 
ATOM      2  C   UNL     1       4.918  -3.911   1.271  0.00  0.00    +0.007 A 
ATOM      3  C   UNL     1       5.254  -5.050   2.009  0.00  0.00    +0.026 A 
ATOM      4  C   UNL     1       5.979  -4.869   3.191  0.00  0.00    +0.047 A 
ATOM      5  N   UNL     1       6.425  -5.794   4.103  0.00  0.00    -0.360 N 
ATOM      6  H   UNL     1       6.271  -6.789   4.031  0.00  0.00    +0.165 HD
ATOM      7  C   UNL     1       7.102  -5.172   5.115  0.00  0.00    +0.087 A 
ATOM      8  C   UNL     1       7.129  -3.814   4.857  0.00  0.00    -0.021 A 
ATOM      9  C   UNL     1       6.381  -3.615   3.650  0.00  0.00    +0.003 A 
ATOM     10  C   UNL     1       6.003  -2.483   2.902  0.00  0.00    +0.015 A 
ENDROOT
BRANCH   1  11
ATOM     11  C   UNL     1       4.810  -1.422   0.924  0.00  0.00    +0.220 C 
BRANCH  11  12
ATOM     12  S   UNL     1       6.202  -0.406   0.391  0.00  0.00    +0.033 S 
ATOM     13  O   UNL     1       6.881   0.184   1.524  0.00  0.00    -0.158 OA
ATOM     14  O   UNL     1       6.931  -1.081  -0.660  0.00  0.00    -0.158 OA
BRANCH  12  16
ATOM     15  C   UNL     1       4.667   1.813   0.472  0.00  0.00    +0.127 C 
ATOM     16  N   UNL     1       5.410   0.880  -0.384  0.00  0.00    -0.197 NA
ATOM     17  H   UNL     1       6.082   1.335  -1.008  0.00  0.00    +0.147 HD
ENDBRANCH  12  16
ENDBRANCH  11  12
ENDBRANCH   1  11
BRANCH   8  18
ATOM     18  C   UNL     1       7.811  -2.771   5.702  0.00  0.00    +0.052 C 
BRANCH  18  19
ATOM     19  C   UNL     1       9.325  -3.041   5.839  0.00  0.00    +0.088 C 
BRANCH  19  20
ATOM     20  N   UNL     1      10.076  -2.084   6.682  0.00  0.00    -0.308 NA
ATOM     21  C   UNL     1      11.500  -2.441   6.667  0.00  0.00    +0.104 C 
ATOM     22  C   UNL     1       9.595  -2.065   8.064  0.00  0.00    +0.104 C 
ENDBRANCH  19  20
ENDBRANCH  18  19
ENDBRANCH   8  18
TORSDOF 6
