REMARK  Name = 
REMARK  10 active torsions:
REMARK  status: ('A' for Active; 'I' for Inactive)
REMARK    1  A    between atoms: O_1  and  C_2
REMARK    2  A    between atoms: C_2  and  C_4
REMARK    3  A    between atoms: C_4  and  C_5
REMARK    4  A    between atoms: C_5  and  C_6
REMARK    5  A    between atoms: C_6  and  C_7
REMARK    6  A    between atoms: C_10  and  N_13
REMARK    7  A    between atoms: N_13  and  C_14
REMARK    8  A    between atoms: N_13  and  C_17
REMARK    9  A    between atoms: C_14  and  C_15
REMARK   10  A    between atoms: C_17  and  C_18
REMARK                            x       y       z     vdW  Elec       q    Type
REMARK                         _______ _______ _______ _____ _____    ______ ____
ROOT
ATOM      1  C   UNL     1       6.811   1.006  -1.772  0.00  0.00    -0.047 A 
ATOM      2  C   UNL     1       7.480  -0.218  -1.782  0.00  0.00    +0.005 A 
ATOM      3  C   UNL     1       8.876  -0.266  -1.665  0.00  0.00    +0.023 A 
ATOM      4  C   UNL     1       9.659   0.894  -1.545  0.00  0.00    +0.030 A 
ATOM      5  C   UNL     1       8.964   2.108  -1.478  0.00  0.00    +0.023 A 
ATOM      6  C   UNL     1       7.567   2.167  -1.592  0.00  0.00    +0.005 A 
ENDROOT
BRANCH   1   7
ATOM      7  C   UNL     1       5.312   1.070  -1.948  0.00  0.00    +0.035 C 
BRANCH   7   8
ATOM      8  C   UNL     1       4.905   1.840  -3.209  0.00  0.00    +0.016 C 
BRANCH   8   9
ATOM      9  C   UNL     1       3.386   1.901  -3.375  0.00  0.00    +0.121 C 
BRANCH   9  10
ATOM     10  C   UNL     1       2.991   2.683  -4.607  0.00  0.00    +0.305 C 
ATOM     11  O   UNL     1       3.765   3.203  -5.394  0.00  0.00    -0.251 OA
BRANCH  10  12
ATOM     12  O   UNL     1       1.650   2.755  -4.762  0.00  0.00    -0.481 OA
ATOM     13  H   UNL     1       1.144   2.301  -4.062  0.00  0.00    +0.295 HD
ENDBRANCH  10  12
ENDBRANCH   9  10
ENDBRANCH   8   9
ENDBRANCH   7   8
ENDBRANCH   1   7
BRANCH   4  14
ATOM     14  N   UNL     1      11.052   0.807  -1.514  0.00  0.00    -0.328 N 
BRANCH  14  15
ATOM     15  C   UNL     1      11.697  -0.039  -2.544  0.00  0.00    +0.121 C 
BRANCH  15  16
ATOM     16  C   UNL     1      11.409   0.390  -3.989  0.00  0.00    +0.127 C 
ATOM     17 CL   UNL     1      12.059   2.007  -4.371  0.00  0.00    -0.124 Cl
ENDBRANCH  15  16
ENDBRANCH  14  15
BRANCH  14  18
ATOM     18  C   UNL     1      11.886   1.887  -0.950  0.00  0.00    +0.121 C 
BRANCH  18  19
ATOM     19  C   UNL     1      11.765   2.013   0.572  0.00  0.00    +0.127 C 
ATOM     20 CL   UNL     1      12.259   0.520   1.416  0.00  0.00    -0.124 Cl
ENDBRANCH  18  19
ENDBRANCH  14  18
ENDBRANCH   4  14
TORSDOF 10
