REMARK  Name = 
REMARK  78 active torsions:
REMARK  status: ('A' for Active; 'I' for Inactive)
REMARK    1  A    between atoms: CD1_1  and  CG1_2
REMARK    2  A    between atoms: CG1_2  and  CB_3
REMARK    3  A    between atoms: CB_3  and  CG2_5
REMARK    4  A    between atoms: CB_3  and  CA_6
REMARK    5  A    between atoms: CA_6  and  N_8
REMARK    6  A    between atoms: CA_6  and  C_119
REMARK    7  A    between atoms: C_9  and  CA_11
REMARK    8  A    between atoms: CA_11  and  CB_13
REMARK    9  A    between atoms: CA_11  and  N_18
REMARK   10  A    between atoms: CB_13  and  CG_14
REMARK   11  A    between atoms: CG_14  and  CD_15
REMARK   12  A    between atoms: CD_15  and  OE1_16
REMARK   13  A    between atoms: C_19  and  CA_21
REMARK   14  A    between atoms: CA_21  and  CB_23
REMARK   15  A    between atoms: CA_21  and  N_28
REMARK   16  A    between atoms: CB_23  and  CG_24
REMARK   17  A    between atoms: CG_24  and  CD_25
REMARK   18  A    between atoms: CD_25  and  OE1_26
REMARK   19  A    between atoms: C_29  and  CA_31
REMARK   20  A    between atoms: CA_31  and  CB_33
REMARK   21  A    between atoms: CA_31  and  N_40
REMARK   22  A    between atoms: CB_33  and  CG_34
REMARK   23  A    between atoms: C_41  and  CA_43
REMARK   24  A    between atoms: CA_43  and  CB_45
REMARK   25  A    between atoms: CA_43  and  N_49
REMARK   26  A    between atoms: CB_45  and  CG_46
REMARK   27  A    between atoms: CG_46  and  OD1_47
REMARK   28  A    between atoms: C_50  and  CA_52
REMARK   29  A    between atoms: CA_52  and  N_53
REMARK   30  A    between atoms: C_54  and  CA_56
REMARK   31  A    between atoms: CA_56  and  CB_58
REMARK   32  A    between atoms: CA_56  and  N_62
REMARK   33  A    between atoms: CB_58  and  CG_59
REMARK   34  A    between atoms: C_63  and  CA_65
REMARK   35  A    between atoms: CA_65  and  N_66
REMARK   36  A    between atoms: C_67  and  CA_69
REMARK   37  A    between atoms: CA_69  and  N_70
REMARK   38  A    between atoms: C_71  and  CA_73
REMARK   39  A    between atoms: CA_73  and  N_74
REMARK   40  A    between atoms: C_75  and  CA_77
REMARK   41  A    between atoms: CA_77  and  N_78
REMARK   42  A    between atoms: C_79  and  CA_81
REMARK   43  A    between atoms: C_87  and  CA_89
REMARK   44  A    between atoms: CA_89  and  CB_91
REMARK   45  A    between atoms: CA_89  and  N_98
REMARK   46  A    between atoms: CB_91  and  CG_92
REMARK   47  A    between atoms: CG_92  and  CD_93
REMARK   48  A    between atoms: CD_93  and  NE_94
REMARK   49  A    between atoms: C_99  and  CA_101
REMARK   50  A    between atoms: C_107  and  CA_109
REMARK   51  A    between atoms: CA_109  and  N_111
REMARK   52  A    between atoms: CA_109  and  CB_112
REMARK   53  A    between atoms: CB_112  and  CG_113
REMARK   54  A    between atoms: CA_125  and  C_127
REMARK   55  A    between atoms: N_129  and  CA_130
REMARK   56  A    between atoms: CA_130  and  CB_132
REMARK   57  A    between atoms: CA_130  and  C_137
REMARK   58  A    between atoms: CB_132  and  CG_133
REMARK   59  A    between atoms: CG_133  and  CD_134
REMARK   60  A    between atoms: CD_134  and  OE1_135
REMARK   61  A    between atoms: N_139  and  CA_140
REMARK   62  A    between atoms: CA_140  and  CB_142
REMARK   63  A    between atoms: CA_140  and  C_147
REMARK   64  A    between atoms: CB_142  and  CG_143
REMARK   65  A    between atoms: CG_143  and  CD_144
REMARK   66  A    between atoms: CD_144  and  OE1_145
REMARK   67  A    between atoms: N_149  and  CA_150
REMARK   68  A    between atoms: CA_150  and  CB_152
REMARK   69  A    between atoms: CA_150  and  C_160
REMARK   70  A    between atoms: CB_152  and  CG_153
REMARK   71  A    between atoms: CZ_156  and  OH_157
REMARK   72  A    between atoms: N_162  and  CA_163
REMARK   73  A    between atoms: CA_163  and  CB_165
REMARK   74  A    between atoms: CA_163  and  C_169
REMARK   75  A    between atoms: CB_165  and  CG_166
REMARK   76  A    between atoms: CG_166  and  CD1_167
REMARK   77  A    between atoms: CG_166  and  CD2_168
REMARK   78  A    between atoms: C_169  and  O_170
REMARK                            x       y       z     vdW  Elec       q    Type
REMARK                         _______ _______ _______ _____ _____    ______ ____
ROOT
ATOM      1  CA  PHE A  12       9.010  12.677 -51.217  0.00  0.00    +0.163 C 
ENDROOT
BRANCH   1   4
ATOM      2  N   GLU A  13      10.861  11.642 -49.918  0.00  0.00    -0.302 N 
ATOM      3  H   GLU A  13      11.466  12.334 -50.349  0.00  0.00    +0.150 HD
ATOM      4  C   PHE A  12       9.556  11.517 -50.356  0.00  0.00    +0.234 C 
ATOM      5  O   PHE A  12       8.849  10.559 -50.029  0.00  0.00    -0.274 OA
BRANCH   2   6
ATOM      6  CA  GLU A  13      11.516  10.565 -49.164  0.00  0.00    +0.159 C 
BRANCH   6   9
ATOM      7  N   GLU A  14      11.996  11.720 -47.037  0.00  0.00    -0.302 N 
ATOM      8  H   GLU A  14      10.987  11.782 -46.969  0.00  0.00    +0.150 HD
ATOM      9  C   GLU A  13      12.548  11.186 -48.186  0.00  0.00    +0.234 C 
ATOM     10  O   GLU A  13      13.749  11.236 -48.430  0.00  0.00    -0.274 OA
BRANCH   7  11
ATOM     11  CA  GLU A  14      12.781  12.365 -45.966  0.00  0.00    +0.159 C 
BRANCH  11  14
ATOM     12  N   ILE A  15      11.317  11.332 -44.248  0.00  0.00    -0.302 N 
ATOM     13  H   ILE A  15      11.851  10.492 -44.445  0.00  0.00    +0.150 HD
ATOM     14  C   GLU A  14      11.843  12.516 -44.731  0.00  0.00    +0.234 C 
ATOM     15  O   GLU A  14      11.552  13.607 -44.246  0.00  0.00    -0.274 OA
BRANCH  12  16
ATOM     16  CA  ILE A  15      10.477  11.299 -43.023  0.00  0.00    +0.162 C 
BRANCH  16  17
ATOM     17  C   ILE A  15      11.378  10.858 -41.824  0.00  0.00    +0.237 C 
ATOM     18  N   PRO A  16      10.862  10.668 -40.552  0.00  0.00    -0.288 N 
ATOM     19  CA  PRO A  16       9.458  10.585 -40.103  0.00  0.00    +0.162 C 
ATOM     20  CB  PRO A  16       9.491   9.607 -38.908  0.00  0.00    +0.033 C 
ATOM     21  CG  PRO A  16      10.917   9.071 -38.864  0.00  0.00    +0.021 C 
ATOM     22  CD  PRO A  16      11.732  10.186 -39.493  0.00  0.00    +0.109 C 
ATOM     23  O   ILE A  15      12.593  10.701 -42.027  0.00  0.00    -0.274 OA
BRANCH  19  24
ATOM     24  C   PRO A  16       8.837  11.963 -39.693  0.00  0.00    +0.234 C 
ATOM     25  N   GLU A  17       7.695  12.298 -40.401  0.00  0.00    -0.302 N 
ATOM     26  H   GLU A  17       7.237  11.564 -40.925  0.00  0.00    +0.150 HD
ATOM     27  O   PRO A  16       9.318  12.684 -38.825  0.00  0.00    -0.274 OA
BRANCH  25  28
ATOM     28  CA  GLU A  17       6.868  13.475 -40.067  0.00  0.00    +0.159 C 
BRANCH  28  29
ATOM     29  C   GLU A  17       5.381  13.192 -40.439  0.00  0.00    +0.234 C 
ATOM     30  N   GLU A  18       5.149  12.609 -41.674  0.00  0.00    -0.302 N 
ATOM     31  H   GLU A  18       5.935  12.534 -42.315  0.00  0.00    +0.150 HD
ATOM     32  O   GLU A  17       4.478  13.594 -39.709  0.00  0.00    -0.274 OA
BRANCH  30  33
ATOM     33  CA  GLU A  18       3.814  12.311 -42.298  0.00  0.00    +0.159 C 
BRANCH  33  34
ATOM     34  C   GLU A  18       4.070  12.237 -43.835  0.00  0.00    +0.234 C 
ATOM     35  N   TYR A  19       3.157  11.555 -44.619  0.00  0.00    -0.302 N 
ATOM     36  H   TYR A  19       2.348  11.104 -44.204  0.00  0.00    +0.150 HD
ATOM     37  O   GLU A  18       5.055  12.810 -44.310  0.00  0.00    -0.274 OA
BRANCH  35  38
ATOM     38  CA  TYR A  19       3.123  11.667 -46.104  0.00  0.00    +0.163 C 
BRANCH  38  39
ATOM     39  C   TYR A  19       1.933  10.860 -46.753  0.00  0.00    +0.234 C 
ATOM     40  N   LEU A  20       1.819  10.934 -48.141  0.00  0.00    -0.301 N 
ATOM     41  H   LEU A  20       2.113  11.829 -48.519  0.00  0.00    +0.150 HD
ATOM     42  O   TYR A  19       1.191  10.155 -46.069  0.00  0.00    -0.274 OA
BRANCH  40  43
ATOM     43  CA  LEU A  20       0.743  10.207 -48.899  0.00  0.00    +0.182 C 
BRANCH  43  44
ATOM     44  C   LEU A  20       1.177   8.767 -49.283  0.00  0.00    +0.325 C 
ATOM     45  OXT LEU A  20       0.456   7.941 -49.822  0.00  0.00    -0.249 OA
BRANCH  44  46
ATOM     46  O   LEU A  20       2.471   8.485 -49.006  0.00  0.00    -0.479 OA
ATOM     47  H   LEU A  20       2.892   9.229 -48.530  0.00  0.00    +0.295 HD
ENDBRANCH  44  46
ENDBRANCH  43  44
BRANCH  43  48
ATOM     48  CB  LEU A  20       0.319  11.000 -50.173  0.00  0.00    +0.036 C 
BRANCH  48  49
ATOM     49  CG  LEU A  20      -0.809  10.374 -51.043  0.00  0.00    -0.015 C 
ATOM     50  CD2 LEU A  20      -1.140  11.238 -52.269  0.00  0.00    +0.007 C 
ATOM     51  CD1 LEU A  20      -2.103  10.099 -50.271  0.00  0.00    +0.007 C 
ENDBRANCH  48  49
ENDBRANCH  43  48
ENDBRANCH  40  43
ENDBRANCH  38  39
BRANCH  38  52
ATOM     52  CB  TYR A  19       4.458  11.278 -46.780  0.00  0.00    +0.067 C 
BRANCH  52  53
ATOM     53  CG  TYR A  19       4.909   9.833 -46.688  0.00  0.00    -0.045 A 
ATOM     54  CD2 TYR A  19       6.070   9.461 -47.384  0.00  0.00    +0.007 A 
ATOM     55  CE2 TYR A  19       6.456   8.121 -47.457  0.00  0.00    +0.045 A 
ATOM     56  CZ  TYR A  19       5.678   7.148 -46.845  0.00  0.00    +0.117 A 
ATOM     57  CE1 TYR A  19       4.559   7.496 -46.106  0.00  0.00    +0.045 A 
ATOM     58  CD1 TYR A  19       4.197   8.838 -46.005  0.00  0.00    +0.007 A 
BRANCH  56  59
ATOM     59  OH  TYR A  19       6.038   5.843 -46.994  0.00  0.00    -0.507 OA
ATOM     60  HH  TYR A  19       5.292   5.289 -46.705  0.00  0.00    +0.292 HD
ENDBRANCH  56  59
ENDBRANCH  52  53
ENDBRANCH  38  52
ENDBRANCH  35  38
ENDBRANCH  33  34
BRANCH  33  61
ATOM     61  CB  GLU A  18       2.757  13.387 -41.988  0.00  0.00    +0.043 C 
BRANCH  61  62
ATOM     62  CG  GLU A  18       1.357  13.131 -42.536  0.00  0.00    +0.123 C 
BRANCH  62  63
ATOM     63  CD  GLU A  18       0.446  14.313 -42.298  0.00  0.00    +0.305 C 
ATOM     64  OE2 GLU A  18      -0.056  14.960 -43.195  0.00  0.00    -0.251 OA
BRANCH  63  65
ATOM     65  OE1 GLU A  18       0.227  14.593 -40.998  0.00  0.00    -0.481 OA
ATOM     66  HE1 GLU A  18       0.672  14.007 -40.358  0.00  0.00    +0.295 HD
ENDBRANCH  63  65
ENDBRANCH  62  63
ENDBRANCH  61  62
ENDBRANCH  33  61
ENDBRANCH  30  33
ENDBRANCH  28  29
BRANCH  28  67
ATOM     67  CB  GLU A  17       7.382  14.766 -40.742  0.00  0.00    +0.043 C 
BRANCH  67  68
ATOM     68  CG  GLU A  17       6.563  16.021 -40.378  0.00  0.00    +0.123 C 
BRANCH  68  69
ATOM     69  CD  GLU A  17       7.075  17.259 -41.082  0.00  0.00    +0.305 C 
ATOM     70  OE2 GLU A  17       8.234  17.442 -41.418  0.00  0.00    -0.251 OA
BRANCH  69  71
ATOM     71  OE1 GLU A  17       6.115  18.192 -41.288  0.00  0.00    -0.481 OA
ATOM     72  HE1 GLU A  17       5.229  17.953 -40.957  0.00  0.00    +0.295 HD
ENDBRANCH  69  71
ENDBRANCH  68  69
ENDBRANCH  67  68
ENDBRANCH  28  67
ENDBRANCH  25  28
ENDBRANCH  19  24
ENDBRANCH  16  17
BRANCH  16  73
ATOM     73  CB  ILE A  15       9.200  10.468 -43.301  0.00  0.00    +0.015 C 
ATOM     74  CG2 ILE A  15       8.430  11.030 -44.490  0.00  0.00    +0.010 C 
BRANCH  73  76
ATOM     75  CD1 ILE A  15       8.140   8.156 -43.253  0.00  0.00    +0.004 C 
ATOM     76  CG1 ILE A  15       9.434   8.952 -43.425  0.00  0.00    +0.002 C 
ENDBRANCH  73  76
ENDBRANCH  16  73
ENDBRANCH  12  16
ENDBRANCH  11  14
BRANCH  11  77
ATOM     77  CB  GLU A  14      13.336  13.729 -46.424  0.00  0.00    +0.043 C 
BRANCH  77  78
ATOM     78  CG  GLU A  14      14.232  14.405 -45.383  0.00  0.00    +0.123 C 
BRANCH  78  79
ATOM     79  CD  GLU A  14      14.785  15.699 -45.924  0.00  0.00    +0.305 C 
ATOM     80  OE2 GLU A  14      15.833  15.786 -46.545  0.00  0.00    -0.251 OA
BRANCH  79  81
ATOM     81  OE1 GLU A  14      13.987  16.765 -45.693  0.00  0.00    -0.481 OA
ATOM     82  HE1 GLU A  14      13.183  16.561 -45.175  0.00  0.00    +0.295 HD
ENDBRANCH  79  81
ENDBRANCH  78  79
ENDBRANCH  77  78
ENDBRANCH  11  77
ENDBRANCH   7  11
ENDBRANCH   6   9
BRANCH   6  83
ATOM     83  CB  GLU A  13      12.130   9.576 -50.160  0.00  0.00    +0.043 C 
BRANCH  83  84
ATOM     84  CG  GLU A  13      12.781   8.357 -49.527  0.00  0.00    +0.123 C 
BRANCH  84  85
ATOM     85  CD  GLU A  13      13.249   7.381 -50.589  0.00  0.00    +0.305 C 
ATOM     86  OE2 GLU A  13      13.112   7.537 -51.795  0.00  0.00    -0.251 OA
BRANCH  85  87
ATOM     87  OE1 GLU A  13      13.834   6.284 -50.081  0.00  0.00    -0.481 OA
ATOM     88  HE1 GLU A  13      13.903   6.291 -49.098  0.00  0.00    +0.295 HD
ENDBRANCH  85  87
ENDBRANCH  84  85
ENDBRANCH  83  84
ENDBRANCH   6  83
ENDBRANCH   2   6
ENDBRANCH   1   4
BRANCH   1  89
ATOM     89  N   PHE A  12       7.630  12.358 -51.613  0.00  0.00    -0.302 N 
ATOM     90  H   PHE A  12       7.112  11.758 -50.977  0.00  0.00    +0.150 HD
ATOM     91  C   ASP A  11       7.083  12.786 -52.790  0.00  0.00    +0.234 C 
ATOM     92  O   ASP A  11       7.732  13.400 -53.639  0.00  0.00    -0.274 OA
BRANCH  91  93
ATOM     93  CA  ASP A  11       5.592  12.494 -53.019  0.00  0.00    +0.169 C 
BRANCH  93  94
ATOM     94  N   ASP A  11       4.906  13.750 -53.305  0.00  0.00    -0.302 N 
ATOM     95  H   ASP A  11       5.465  14.586 -53.473  0.00  0.00    +0.150 HD
ATOM     96  C   GLY A  10       3.539  13.871 -53.230  0.00  0.00    +0.231 C 
ATOM     97  O   GLY A  10       2.823  12.953 -52.830  0.00  0.00    -0.274 OA
BRANCH  96  98
ATOM     98  CA  GLY A  10       3.009  15.287 -53.440  0.00  0.00    +0.200 C 
BRANCH  98  99
ATOM     99  N   GLY A  10       2.752  15.854 -52.132  0.00  0.00    -0.305 N 
ATOM    100  H   GLY A  10       1.801  15.876 -51.782  0.00  0.00    +0.149 HD
ATOM    101  C   ASN A   9       3.716  16.510 -51.403  0.00  0.00    +0.234 C 
ATOM    102  O   ASN A   9       4.901  16.510 -51.741  0.00  0.00    -0.274 OA
BRANCH 101 103
ATOM    103  CA  ASN A   9       3.241  16.985 -50.005  0.00  0.00    +0.168 C 
BRANCH 103 104
ATOM    104  N   ASN A   9       1.802  17.212 -49.924  0.00  0.00    -0.302 N 
ATOM    105  H   ASN A   9       1.372  17.142 -48.997  0.00  0.00    +0.150 HD
ATOM    106  C   GLY A   8       1.246  18.217 -50.698  0.00  0.00    +0.231 C 
ATOM    107  O   GLY A   8       1.889  18.854 -51.526  0.00  0.00    -0.274 OA
BRANCH 106 108
ATOM    108  CA  GLY A   8      -0.226  18.471 -50.413  0.00  0.00    +0.200 C 
BRANCH 108 109
ATOM    109  N   GLY A   8      -0.368  19.603 -49.528  0.00  0.00    -0.305 N 
ATOM    110  H   GLY A   8      -0.059  20.512 -49.882  0.00  0.00    +0.149 HD
ATOM    111  C   GLY A   7      -0.255  19.445 -48.162  0.00  0.00    +0.231 C 
ATOM    112  O   GLY A   7      -0.010  18.355 -47.648  0.00  0.00    -0.274 OA
BRANCH 111 113
ATOM    113  CA  GLY A   7      -0.362  20.761 -47.372  0.00  0.00    +0.200 C 
BRANCH 113 114
ATOM    114  N   GLY A   7       0.938  21.336 -47.043  0.00  0.00    -0.305 N 
ATOM    115  H   GLY A   7       1.087  21.637 -46.092  0.00  0.00    +0.149 HD
ATOM    116  C   GLY A   6       1.694  21.965 -48.019  0.00  0.00    +0.231 C 
ATOM    117  O   GLY A   6       1.351  21.962 -49.202  0.00  0.00    -0.274 OA
BRANCH 116 118
ATOM    118  CA  GLY A   6       2.996  22.642 -47.528  0.00  0.00    +0.200 C 
BRANCH 118 119
ATOM    119  N   GLY A   6       3.028  24.106 -47.480  0.00  0.00    -0.305 N 
ATOM    120  H   GLY A   6       3.142  24.631 -48.345  0.00  0.00    +0.149 HD
ATOM    121  C   GLY A   5       2.690  24.809 -46.351  0.00  0.00    +0.231 C 
ATOM    122  O   GLY A   5       2.245  24.208 -45.364  0.00  0.00    -0.274 OA
BRANCH 121 123
ATOM    123  CA  GLY A   5       2.799  26.377 -46.329  0.00  0.00    +0.200 C 
BRANCH 123 124
ATOM    124  N   GLY A   5       3.471  27.312 -47.274  0.00  0.00    -0.305 N 
ATOM    125  H   GLY A   5       3.780  28.177 -46.847  0.00  0.00    +0.149 HD
ATOM    126  C   PRO A   4       3.049  27.402 -48.576  0.00  0.00    +0.234 C 
ATOM    127  O   PRO A   4       2.418  26.445 -49.039  0.00  0.00    -0.274 OA
BRANCH 126 128
ATOM    128  CA  PRO A   4       3.159  28.785 -49.385  0.00  0.00    +0.162 C 
ATOM    129  N   PRO A   4       4.312  29.749 -49.416  0.00  0.00    -0.288 N 
ATOM    130  C   ARG A   3       4.409  31.030 -48.857  0.00  0.00    +0.237 C 
ATOM    131  O   ARG A   3       5.165  31.888 -49.334  0.00  0.00    -0.274 OA
ATOM    132  CD  PRO A   4       5.048  29.603 -50.681  0.00  0.00    +0.109 C 
ATOM    133  CG  PRO A   4       4.476  28.374 -51.351  0.00  0.00    +0.021 C 
ATOM    134  CB  PRO A   4       3.028  28.420 -50.887  0.00  0.00    +0.033 C 
BRANCH 130 135
ATOM    135  CA  ARG A   3       3.612  31.395 -47.589  0.00  0.00    +0.159 C 
BRANCH 135 136
ATOM    136  N   ARG A   3       4.434  32.306 -46.774  0.00  0.00    -0.302 N 
ATOM    137  H   ARG A   3       5.035  32.971 -47.262  0.00  0.00    +0.150 HD
ATOM    138  C   PRO A   2       4.639  32.086 -45.433  0.00  0.00    +0.234 C 
ATOM    139  O   PRO A   2       4.104  31.142 -44.849  0.00  0.00    -0.274 OA
BRANCH 138 140
ATOM    140  CA  PRO A   2       5.380  33.184 -44.636  0.00  0.00    +0.162 C 
ATOM    141  N   PRO A   2       6.390  33.947 -45.380  0.00  0.00    -0.289 N 
ATOM    142  C   PHE A   1       7.764  33.708 -45.352  0.00  0.00    +0.233 C 
ATOM    143  O   PHE A   1       8.552  34.632 -45.575  0.00  0.00    -0.274 OA
ATOM    144  CD  PRO A   2       5.935  35.315 -45.613  0.00  0.00    +0.108 C 
ATOM    145  CG  PRO A   2       4.461  35.316 -45.248  0.00  0.00    +0.021 C 
ATOM    146  CB  PRO A   2       4.379  34.247 -44.169  0.00  0.00    +0.033 C 
BRANCH 142 147
ATOM    147  CA  PHE A   1       8.254  32.262 -45.056  0.00  0.00    +0.142 C 
BRANCH 147 148
ATOM    148  N   PHE A   1       9.525  32.273 -44.303  0.00  0.00    -0.320 NA
ATOM    149  H1  PHE A   1       9.436  32.843 -43.465  0.00  0.00    +0.119 HD
ATOM    150  H2  PHE A   1       9.782  31.331 -44.023  0.00  0.00    +0.119 HD
ENDBRANCH 147 148
BRANCH 147 151
ATOM    151  CB  PHE A   1       8.324  31.429 -46.350  0.00  0.00    +0.063 C 
BRANCH 151 152
ATOM    152  CG  PHE A   1       9.395  31.822 -47.344  0.00  0.00    -0.045 A 
ATOM    153  CD2 PHE A   1       9.118  32.738 -48.368  0.00  0.00    +0.004 A 
ATOM    154  CE2 PHE A   1      10.113  33.106 -49.276  0.00  0.00    +0.000 A 
ATOM    155  CZ  PHE A   1      11.393  32.564 -49.172  0.00  0.00    +0.000 A 
ATOM    156  CE1 PHE A   1      11.679  31.652 -48.160  0.00  0.00    +0.000 A 
ATOM    157  CD1 PHE A   1      10.687  31.284 -47.250  0.00  0.00    +0.004 A 
ENDBRANCH 151 152
ENDBRANCH 147 151
ENDBRANCH 142 147
ENDBRANCH 138 140
ENDBRANCH 135 136
BRANCH 135 158
ATOM    158  CB  ARG A   3       2.198  31.976 -47.821  0.00  0.00    +0.035 C 
BRANCH 158 159
ATOM    159  CG  ARG A   3       2.095  33.418 -48.357  0.00  0.00    +0.039 C 
BRANCH 159 160
ATOM    160  CD  ARG A   3       0.640  33.888 -48.562  0.00  0.00    +0.196 C 
BRANCH 160 161
ATOM    161  NE  ARG A   3      -0.100  34.024 -47.311  0.00  0.00    -0.276 N 
ATOM    162  HE  ARG A   3       0.409  34.567 -46.620  0.00  0.00    +0.258 HD
ATOM    163  CZ  ARG A   3      -1.420  34.356 -47.288  0.00  0.00    +0.376 C 
ATOM    164  NH2 ARG A   3      -2.298  34.201 -48.208  0.00  0.00    -0.130 NA
ATOM    165  HH2 ARG A   3      -1.884  33.751 -49.019  0.00  0.00    +0.306 HD
ATOM    166  NH1 ARG A   3      -1.803  34.920 -46.129  0.00  0.00    -0.289 N 
ATOM    167 HH11 ARG A   3      -2.806  35.068 -46.164  0.00  0.00    +0.255 HD
ATOM    168 HH12 ARG A   3      -1.581  34.354 -45.317  0.00  0.00    +0.255 HD
ENDBRANCH 160 161
ENDBRANCH 159 160
ENDBRANCH 158 159
ENDBRANCH 135 158
ENDBRANCH 130 135
ENDBRANCH 126 128
ENDBRANCH 123 124
ENDBRANCH 121 123
ENDBRANCH 118 119
ENDBRANCH 116 118
ENDBRANCH 113 114
ENDBRANCH 111 113
ENDBRANCH 108 109
ENDBRANCH 106 108
ENDBRANCH 103 104
BRANCH 103 169
ATOM    169  CB  ASN A   9       3.721  15.969 -48.976  0.00  0.00    +0.127 C 
BRANCH 169 170
ATOM    170  CG  ASN A   9       2.979  14.654 -48.919  0.00  0.00    +0.213 C 
ATOM    171  OD1 ASN A   9       2.258  14.311 -47.988  0.00  0.00    -0.276 OA
ATOM    172  ND2 ASN A   9       3.205  13.795 -49.945  0.00  0.00    -0.329 N 
ATOM    173 HD21 ASN A   9       2.598  12.998 -50.065  0.00  0.00    +0.145 HD
ATOM    174 HD22 ASN A   9       3.624  14.110 -50.811  0.00  0.00    +0.145 HD
ENDBRANCH 169 170
ENDBRANCH 103 169
ENDBRANCH 101 103
ENDBRANCH  98  99
ENDBRANCH  96  98
ENDBRANCH  93  94
BRANCH  93 175
ATOM    175  CB  ASP A  11       5.400  11.450 -54.117  0.00  0.00    +0.152 C 
BRANCH 175 176
ATOM    176  CG  ASP A  11       5.567  11.909 -55.549  0.00  0.00    +0.307 C 
ATOM    177  OD2 ASP A  11       4.803  11.546 -56.436  0.00  0.00    -0.251 OA
BRANCH 176 178
ATOM    178  OD1 ASP A  11       6.639  12.667 -55.839  0.00  0.00    -0.481 OA
ATOM    179  HD1 ASP A  11       7.239  12.938 -55.107  0.00  0.00    +0.295 HD
ENDBRANCH 176 178
ENDBRANCH 175 176
ENDBRANCH  93 175
ENDBRANCH  91  93
ENDBRANCH   1  89
BRANCH   1 180
ATOM    180  CB  PHE A  12       9.103  14.056 -50.523  0.00  0.00    +0.067 C 
BRANCH 180 181
ATOM    181  CG  PHE A  12       8.323  14.219 -49.233  0.00  0.00    -0.045 A 
ATOM    182  CD2 PHE A  12       7.425  15.278 -49.071  0.00  0.00    +0.004 A 
ATOM    183  CE2 PHE A  12       6.757  15.464 -47.854  0.00  0.00    +0.000 A 
ATOM    184  CZ  PHE A  12       6.888  14.549 -46.825  0.00  0.00    +0.000 A 
ATOM    185  CE1 PHE A  12       7.792  13.516 -46.971  0.00  0.00    +0.000 A 
ATOM    186  CD1 PHE A  12       8.534  13.378 -48.139  0.00  0.00    +0.004 A 
ENDBRANCH 180 181
ENDBRANCH   1 180
TORSDOF 74
