REMARK  Name = 
REMARK  8 active torsions:
REMARK  status: ('A' for Active; 'I' for Inactive)
REMARK    1  A    between atoms: N_1  and  CA_2
REMARK    2  A    between atoms: CA_2  and  C_4
REMARK    3  A    between atoms: CA_2  and  C_23
REMARK    4  A    between atoms: C_4  and  C_5
REMARK    5  A    between atoms: C_9  and  O_10
REMARK    6  A    between atoms: O_10  and  C_11
REMARK    7  A    between atoms: C_15  and  O_16
REMARK    8  A    between atoms: C_23  and  O_24
REMARK                            x       y       z     vdW  Elec       q    Type
REMARK                         _______ _______ _______ _____ _____    ______ ____
ROOT
ATOM      1  C   UNL     1       2.538  -1.379  -1.846  0.00  0.00    -0.043 A 
ATOM      2  C   UNL     1       1.492  -1.225  -2.771  0.00  0.00    +0.021 A 
ATOM      3  C   UNL     1       0.949  -2.333  -3.451  0.00  0.00    +0.057 A 
ATOM      4  I   UNL     1      -0.488  -1.850  -4.912  0.00  0.00    -0.040 I 
ATOM      5  C   UNL     1       1.428  -3.627  -3.196  0.00  0.00    +0.155 A 
ATOM      6  C   UNL     1       2.465  -3.775  -2.251  0.00  0.00    +0.057 A 
ATOM      7  I   UNL     1       3.319  -5.652  -1.823  0.00  0.00    -0.040 I 
ATOM      8  C   UNL     1       3.011  -2.669  -1.582  0.00  0.00    +0.021 A 
ENDROOT
BRANCH   1   9
ATOM      9  C   UNL     1       3.134  -0.170  -1.161  0.00  0.00    +0.065 C 
BRANCH   9  10
ATOM     10  CA  UNL     1       4.339   0.466  -1.882  0.00  0.00    +0.165 C 
BRANCH  10  11
ATOM     11  N   UNL     1       5.545  -0.422  -1.937  0.00  0.00    -0.318 NA
ATOM     12  H1  UNL     1       5.554  -1.012  -1.099  0.00  0.00    +0.119 HD
ATOM     13  H2  UNL     1       5.399  -1.087  -2.705  0.00  0.00    +0.119 HD
ENDBRANCH  10  11
BRANCH  10  14
ATOM     14  C   UNL     1       4.731   1.756  -1.138  0.00  0.00    +0.322 C 
ATOM     15  OXT UNL     1       3.957   2.647  -0.811  0.00  0.00    -0.249 OA
BRANCH  14  16
ATOM     16  O   UNL     1       6.064   1.799  -0.880  0.00  0.00    -0.480 OA
ATOM     17  H   UNL     1       6.441   0.975  -1.282  0.00  0.00    +0.295 HD
ENDBRANCH  14  16
ENDBRANCH  10  14
ENDBRANCH   9  10
ENDBRANCH   1   9
BRANCH   5  18
ATOM     18  O   UNL     1       1.162  -4.727  -3.975  0.00  0.00    -0.454 OA
BRANCH  18  19
ATOM     19  C   UNL     1      -0.091  -5.263  -4.139  0.00  0.00    +0.131 A 
ATOM     20  C   UNL     1      -1.227  -5.000  -3.379  0.00  0.00    +0.064 A 
ATOM     21  C   UNL     1      -2.452  -5.584  -3.741  0.00  0.00    +0.059 A 
ATOM     22  I   UNL     1      -4.163  -5.025  -2.665  0.00  0.00    -0.040 I 
ATOM     23  C   UNL     1      -2.529  -6.478  -4.818  0.00  0.00    +0.143 A 
ATOM     24  C   UNL     1      -1.374  -6.777  -5.541  0.00  0.00    +0.059 A 
ATOM     25  I   UNL     1      -1.401  -8.107  -7.154  0.00  0.00    -0.040 I 
ATOM     26  C   UNL     1      -0.164  -6.172  -5.205  0.00  0.00    +0.064 A 
BRANCH  23  27
ATOM     27  O   UNL     1      -3.729  -7.052  -5.143  0.00  0.00    -0.505 OA
ATOM     28  H   UNL     1      -3.578  -7.679  -5.874  0.00  0.00    +0.292 HD
ENDBRANCH  23  27
ENDBRANCH  18  19
ENDBRANCH   5  18
TORSDOF 8
