REMARK  Name = 
REMARK  14 active torsions:
REMARK  status: ('A' for Active; 'I' for Inactive)
REMARK    1  A    between atoms: C_1  and  O_2
REMARK    2  A    between atoms: O_2  and  C_3
REMARK    3  A    between atoms: C_4  and  C_5
REMARK    4  A    between atoms: C_5  and  C_6
REMARK    5  A    between atoms: C_7  and  C_8
REMARK    6  A    between atoms: C_7  and  C_9
REMARK    7  A    between atoms: C_9  and  C_10
REMARK    8  A    between atoms: C_10  and  C_11
REMARK    9  A    between atoms: C_11  and  O_13
REMARK   10  A    between atoms: O_13  and  C_14
REMARK   11  A    between atoms: C_14  and  C_15
REMARK   12  A    between atoms: C_15  and  N_16
REMARK   13  A    between atoms: C_22  and  O_23
REMARK   14  A    between atoms: C_30  and  C_31
REMARK                            x       y       z     vdW  Elec       q    Type
REMARK                         _______ _______ _______ _____ _____    ______ ____
ROOT
ATOM      1  C   UNL     1       4.539  -0.834   1.757  0.00  0.00    +0.069 C 
ENDROOT
BRANCH   1  12
ATOM      2  C   UNL     1       6.595   0.581   2.239  0.00  0.00    +0.130 A 
ATOM      3  C   UNL     1       7.734   1.341   1.863  0.00  0.00    -0.001 A 
ATOM      4  C   UNL     1       8.658   1.938   2.889  0.00  0.00    +0.048 C 
ATOM      5  C   UNL     1       7.994   1.498   0.507  0.00  0.00    +0.014 A 
ATOM      6  C   UNL     1       7.154   0.951  -0.437  0.00  0.00    +0.107 A 
ATOM      7  C   UNL     1       7.652   1.312  -1.772  0.00  0.00    +0.343 C 
ATOM      8  O   UNL     1       8.786   2.053  -1.574  0.00  0.00    -0.456 OA
ATOM      9  O   UNL     1       7.189   1.032  -2.857  0.00  0.00    -0.245 OA
ATOM     10  C   UNL     1       6.029   0.207  -0.095  0.00  0.00    +0.138 A 
ATOM     11  C   UNL     1       9.090   2.213  -0.179  0.00  0.00    +0.269 C 
ATOM     12  C   UNL     1       5.734  -0.030   1.267  0.00  0.00    +0.040 A 
BRANCH   2  14
ATOM     13  C   UNL     1       5.207   0.713   4.183  0.00  0.00    +0.277 C 
ATOM     14  O   UNL     1       6.468   0.389   3.599  0.00  0.00    -0.494 OA
ENDBRANCH   2  14
BRANCH  10  15
ATOM     15  O   UNL     1       5.286  -0.236  -1.146  0.00  0.00    -0.506 OA
ATOM     16  H   UNL     1       4.489  -0.692  -0.862  0.00  0.00    +0.292 HD
ENDBRANCH  10  15
ENDBRANCH   1  12
BRANCH   1  17
ATOM     17  C   UNL     1       3.949  -1.903   0.892  0.00  0.00    -0.023 C 
ATOM     18  C   UNL     1       4.256  -3.218   0.880  0.00  0.00    -0.076 C 
ATOM     19  C   UNL     1       5.283  -3.862   1.769  0.00  0.00    +0.039 C 
BRANCH  18  20
ATOM     20  C   UNL     1       3.473  -4.112  -0.066  0.00  0.00    +0.041 C 
BRANCH  20  21
ATOM     21  C   UNL     1       4.275  -5.271  -0.639  0.00  0.00    +0.125 C 
BRANCH  21  22
ATOM     22  C   UNL     1       3.423  -6.134  -1.528  0.00  0.00    +0.307 C 
ATOM     23  O   UNL     1       2.244  -5.962  -1.799  0.00  0.00    -0.251 OA
BRANCH  22  24
ATOM     24  O   UNL     1       4.144  -7.247  -1.849  0.00  0.00    -0.463 OA
BRANCH  24  25
ATOM     25  C   UNL     1       3.400  -8.451  -1.659  0.00  0.00    +0.247 C 
BRANCH  25  26
ATOM     26  C   UNL     1       3.032  -9.109  -2.988  0.00  0.00    +0.125 C 
BRANCH  26  27
ATOM     27  N   UNL     1       2.345 -10.400  -2.794  0.00  0.00    -0.295 NA
ATOM     28  C   UNL     1       2.119 -11.084  -4.088  0.00  0.00    +0.112 C 
ATOM     29  C   UNL     1       1.006 -10.448  -4.941  0.00  0.00    +0.175 C 
ATOM     30  O   UNL     1      -0.228 -10.355  -4.217  0.00  0.00    -0.377 OA
ATOM     31  C   UNL     1      -0.052  -9.624  -2.997  0.00  0.00    +0.175 C 
ATOM     32  C   UNL     1       1.030 -10.274  -2.122  0.00  0.00    +0.112 C 
ENDBRANCH  26  27
ENDBRANCH  25  26
ENDBRANCH  24  25
ENDBRANCH  22  24
ENDBRANCH  21  22
ENDBRANCH  20  21
ENDBRANCH  18  20
ENDBRANCH   1  17
TORSDOF 11
