REMARK  Name = 
REMARK  4 active torsions:
REMARK  status: ('A' for Active; 'I' for Inactive)
REMARK    1  A    between atoms: C_1  and  N_2
REMARK    2  A    between atoms: C_4  and  O_5
REMARK    3  A    between atoms: C_4  and  N_6
REMARK    4  A    between atoms: N_6  and  C_7
REMARK                            x       y       z     vdW  Elec       q    Type
REMARK                         _______ _______ _______ _____ _____    ______ ____
ROOT
ATOM      1  C   UNL     1       1.052   0.170   0.154  0.00  0.00    +0.158 C 
ATOM      2  N   UNL     1       2.438   0.074  -0.367  0.00  0.00    -0.197 N 
ATOM      3  S   UNL     1       3.309  -1.317   0.106  0.00  0.00    +0.076 S 
ATOM      4  O   UNL     1       4.236  -1.644  -0.949  0.00  0.00    -0.150 OA
ATOM      5  O   UNL     1       2.404  -2.281   0.692  0.00  0.00    -0.150 OA
ATOM      6  C   UNL     1       4.344  -0.859   1.403  0.00  0.00    +0.127 A 
ATOM      7  C   UNL     1       5.108  -1.752   2.202  0.00  0.00    +0.037 A 
ATOM      8  C   UNL     1       5.887  -1.063   3.107  0.00  0.00    +0.048 A 
ATOM      9  S   UNL     1       5.666   0.635   2.989  0.00  0.00    -0.091 S 
ATOM     10  C   UNL     1       4.579   0.467   1.683  0.00  0.00    +0.087 A 
ATOM     11  C   UNL     1       4.065   1.611   0.956  0.00  0.00    +0.222 C 
ATOM     12  O   UNL     1       4.283   2.783   1.254  0.00  0.00    -0.284 OA
ATOM     13  C   UNL     1       3.244   1.282  -0.264  0.00  0.00    +0.156 C 
ATOM     14  C   UNL     1       3.250   2.013  -1.397  0.00  0.00    +0.210 C 
ENDROOT
BRANCH  14  15
ATOM     15  N   UNL     1       3.959   3.171  -1.601  0.00  0.00    -0.269 N 
ATOM     16  H   UNL     1       4.484   3.546  -0.812  0.00  0.00    +0.156 HD
BRANCH  15  17
ATOM     17  C   UNL     1       4.199   3.939  -2.741  0.00  0.00    +0.125 A 
ATOM     18  N   UNL     1       5.063   4.965  -2.569  0.00  0.00    -0.240 NA
ATOM     19  C   UNL     1       5.339   5.755  -3.634  0.00  0.00    +0.113 A 
ATOM     20  C   UNL     1       4.789   5.584  -4.890  0.00  0.00    +0.020 A 
ATOM     21  C   UNL     1       3.910   4.532  -5.066  0.00  0.00    +0.005 A 
ATOM     22  C   UNL     1       3.618   3.703  -3.984  0.00  0.00    +0.044 A 
ENDBRANCH  15  17
ENDBRANCH  14  15
BRANCH  14  23
ATOM     23  O   UNL     1       2.511   1.533  -2.472  0.00  0.00    -0.494 OA
ATOM     24  H   UNL     1       2.236   0.629  -2.227  0.00  0.00    +0.294 HD
ENDBRANCH  14  23
TORSDOF 3
