REMARK  Name = 
REMARK  6 active torsions:
REMARK  status: ('A' for Active; 'I' for Inactive)
REMARK    1  A    between atoms: CA_7  and  C_25
REMARK    2  A    between atoms: CA_11  and  N_13
REMARK    3  A    between atoms: C_14  and  CA_16
REMARK    4  A    between atoms: CA_16  and  N_18
REMARK    5  A    between atoms: CA_16  and  C_19
REMARK    6  A    between atoms: C_25  and  O_26
REMARK                            x       y       z     vdW  Elec       q    Type
REMARK                         _______ _______ _______ _____ _____    ______ ____
ROOT
ATOM      1  C   UNL     1       8.954  -0.954   5.112  0.00  0.00    +0.169 C 
ATOM      2  CA  UNL     1       8.454  -1.110   3.641  0.00  0.00    +0.191 C 
ATOM      3  C   UNL     1       9.709  -2.040   3.499  0.00  0.00    +0.244 C 
ATOM      4  O   UNL     1      10.308  -2.647   2.643  0.00  0.00    -0.273 OA
ATOM      5  N   UNL     1       9.896  -2.027   4.836  0.00  0.00    -0.248 N 
ATOM      6  CA  UNL     1      10.658  -2.661   5.784  0.00  0.00    +0.137 C 
ATOM      7  C   UNL     1      10.312  -2.522   7.092  0.00  0.00    +0.057 C 
ATOM      8 CL   UNL     1      11.174  -3.240   8.431  0.00  0.00    -0.085 Cl
ATOM      9  C   UNL     1       9.115  -1.758   7.618  0.00  0.00    +0.120 C 
ATOM     10  S   UNL     1       7.803  -1.496   6.400  0.00  0.00    -0.130 S 
ENDROOT
BRANCH   2  11
ATOM     11  N   UNL     1       7.147  -1.784   3.476  0.00  0.00    -0.300 N 
ATOM     12  H   UNL     1       6.652  -2.182   4.277  0.00  0.00    +0.150 HD
ATOM     13  C   UNL     1       6.512  -1.964   2.267  0.00  0.00    +0.235 C 
ATOM     14  O   UNL     1       6.959  -1.537   1.207  0.00  0.00    -0.274 OA
BRANCH  13  15
ATOM     15  CA  UNL     1       5.184  -2.752   2.394  0.00  0.00    +0.168 C 
BRANCH  15  16
ATOM     16  C   UNL     1       5.384  -4.228   2.107  0.00  0.00    -0.022 A 
ATOM     17  C   UNL     1       5.671  -5.160   3.120  0.00  0.00    +0.005 A 
ATOM     18  C   UNL     1       5.839  -6.513   2.820  0.00  0.00    +0.000 A 
ATOM     19  C   UNL     1       5.740  -6.954   1.503  0.00  0.00    +0.000 A 
ATOM     20  C   UNL     1       5.481  -6.041   0.484  0.00  0.00    +0.000 A 
ATOM     21  C   UNL     1       5.308  -4.687   0.782  0.00  0.00    +0.005 A 
ENDBRANCH  15  16
BRANCH  15  22
ATOM     22  N   UNL     1       4.602  -2.522   3.747  0.00  0.00    -0.316 NA
ATOM     23  H1  UNL     1       4.349  -1.535   3.814  0.00  0.00    +0.119 HD
ATOM     24  H2  UNL     1       3.717  -3.031   3.785  0.00  0.00    +0.119 HD
ENDBRANCH  15  22
ENDBRANCH  13  15
ENDBRANCH   2  11
BRANCH   6  25
ATOM     25  C   UNL     1      11.845  -3.523   5.388  0.00  0.00    +0.353 C 
ATOM     26  OXT UNL     1      12.543  -4.139   6.179  0.00  0.00    -0.244 OA
BRANCH  25  27
ATOM     27  O   UNL     1      12.178  -3.548   4.083  0.00  0.00    -0.476 OA
ATOM     28  H   UNL     1      11.527  -3.231   3.419  0.00  0.00    +0.295 HD
ENDBRANCH  25  27
ENDBRANCH   6  25
TORSDOF 6
