REMARK  Name = 
REMARK  22 active torsions:
REMARK  status: ('A' for Active; 'I' for Inactive)
REMARK    1  A    between atoms: N_1  and  C_2
REMARK    2  A    between atoms: C_2  and  C_3
REMARK    3  A    between atoms: C_6  and  O_8
REMARK    4  A    between atoms: O_8  and  C_9
REMARK    5  A    between atoms: C_11  and  C_13
REMARK    6  A    between atoms: C_13  and  O_14
REMARK    7  A    between atoms: C_16  and  O_18
REMARK    8  A    between atoms: O_18  and  C_19
REMARK    9  A    between atoms: C_21  and  O_23
REMARK   10  A    between atoms: C_24  and  N_26
REMARK   11  A    between atoms: C_28  and  N_30
REMARK   12  A    between atoms: C_31  and  O_33
REMARK   13  A    between atoms: O_33  and  C_34
REMARK   14  A    between atoms: C_37  and  C_39
REMARK   15  A    between atoms: C_39  and  N_40
REMARK   16  A    between atoms: C_41  and  O_43
REMARK   17  A    between atoms: C_44  and  O_46
REMARK   18  A    between atoms: C_47  and  N_49
REMARK   19  A    between atoms: C_50  and  O_52
REMARK   20  A    between atoms: C_53  and  N_55
REMARK   21  A    between atoms: C_56  and  O_58
REMARK   22  A    between atoms: C_59  and  O_61
REMARK                            x       y       z     vdW  Elec       q    Type
REMARK                         _______ _______ _______ _____ _____    ______ ____
ROOT
ATOM      1  C   UNL     1      10.029  -4.638   1.968  0.00  0.00    +0.182 C 
ATOM      2  C   UNL     1      10.752  -4.465   3.336  0.00  0.00    +0.169 C 
ATOM      3  C   UNL     1      12.304  -4.483   3.111  0.00  0.00    +0.084 C 
ATOM      4  C   UNL     1      12.792  -5.693   2.294  0.00  0.00    +0.042 C 
ATOM      5  C   UNL     1      12.078  -5.762   0.945  0.00  0.00    +0.084 C 
ATOM      6  C   UNL     1      10.567  -5.837   1.166  0.00  0.00    +0.163 C 
ENDROOT
BRANCH   3   7
ATOM      7  N   UNL     1      13.057  -4.431   4.380  0.00  0.00    -0.325 NA
ATOM      8  H   UNL     1      12.946  -5.309   4.886  0.00  0.00    +0.119 HD
ATOM      9  H   UNL     1      14.054  -4.352   4.174  0.00  0.00    +0.119 HD
ENDBRANCH   3   7
BRANCH   5  10
ATOM     10  N   UNL     1      12.532  -6.933   0.168  0.00  0.00    -0.325 NA
ATOM     11  H   UNL     1      12.228  -7.788   0.637  0.00  0.00    +0.119 HD
ATOM     12  H   UNL     1      11.970  -6.929  -0.693  0.00  0.00    +0.119 HD
ENDBRANCH   5  10
BRANCH   6  13
ATOM     13  O   UNL     1       9.905  -5.908  -0.107  0.00  0.00    -0.388 OA
ATOM     14  H   UNL     1       8.953  -5.792   0.098  0.00  0.00    +0.210 HD
ENDBRANCH   6  13
BRANCH   2  15
ATOM     15  O   UNL     1      10.451  -3.208   3.989  0.00  0.00    -0.342 OA
BRANCH  15  16
ATOM     16  C   UNL     1       9.093  -2.998   4.368  0.00  0.00    +0.270 C 
ATOM     17  C   UNL     1       8.885  -1.591   4.989  0.00  0.00    +0.139 C 
ATOM     18  C   UNL     1       9.510  -1.530   6.392  0.00  0.00    +0.167 C 
ATOM     19  C   UNL     1       8.978  -2.684   7.252  0.00  0.00    +0.175 C 
ATOM     20  C   UNL     1       9.242  -4.019   6.533  0.00  0.00    +0.166 C 
ATOM     21  O   UNL     1       8.604  -4.016   5.247  0.00  0.00    -0.343 OA
BRANCH  17  22
ATOM     22  N   UNL     1       9.371  -0.486   4.130  0.00  0.00    -0.321 NA
ATOM     23  H   UNL     1       9.329   0.366   4.697  0.00  0.00    +0.119 HD
ATOM     24  H   UNL     1      10.365  -0.644   3.952  0.00  0.00    +0.119 HD
ENDBRANCH  17  22
BRANCH  19  25
ATOM     25  O   UNL     1       9.572  -2.611   8.552  0.00  0.00    -0.387 OA
ATOM     26  H   UNL     1      10.423  -3.085   8.534  0.00  0.00    +0.210 HD
ENDBRANCH  19  25
BRANCH  18  27
ATOM     27  O   UNL     1       9.178  -0.274   7.012  0.00  0.00    -0.387 OA
ATOM     28  H   UNL     1       9.333  -0.403   7.964  0.00  0.00    +0.210 HD
ENDBRANCH  18  27
BRANCH  20  29
ATOM     29  C   UNL     1       8.697  -5.209   7.349  0.00  0.00    +0.112 C 
BRANCH  29  30
ATOM     30  N   UNL     1       9.040  -6.491   6.717  0.00  0.00    -0.328 NA
ATOM     31  H   UNL     1       8.613  -7.249   7.249  0.00  0.00    +0.118 HD
ATOM     32  H   UNL     1       8.600  -6.515   5.797  0.00  0.00    +0.118 HD
ENDBRANCH  29  30
ENDBRANCH  20  29
ENDBRANCH  15  16
ENDBRANCH   2  15
BRANCH   1  33
ATOM     33  O   UNL     1       8.589  -4.675   2.018  0.00  0.00    -0.340 OA
BRANCH  33  36
ATOM     34  C   UNL     1       5.878  -6.943   2.414  0.00  0.00    +0.186 C 
ATOM     35  C   UNL     1       6.438  -5.536   2.600  0.00  0.00    +0.202 C 
ATOM     36  C   UNL     1       7.951  -5.781   2.654  0.00  0.00    +0.282 C 
ATOM     37  O   UNL     1       8.205  -7.005   1.968  0.00  0.00    -0.341 OA
ATOM     38  C   UNL     1       6.964  -7.617   1.583  0.00  0.00    +0.178 C 
BRANCH  35  39
ATOM     39  O   UNL     1       5.932  -4.818   3.726  0.00  0.00    -0.384 OA
ATOM     40  H   UNL     1       6.317  -3.924   3.679  0.00  0.00    +0.210 HD
ENDBRANCH  35  39
BRANCH  38  41
ATOM     41  C   UNL     1       6.790  -7.496   0.069  0.00  0.00    +0.190 C 
BRANCH  41  42
ATOM     42  O   UNL     1       6.621  -6.141  -0.334  0.00  0.00    -0.392 OA
ATOM     43  H   UNL     1       6.470  -6.147  -1.297  0.00  0.00    +0.210 HD
ENDBRANCH  41  42
ENDBRANCH  38  41
BRANCH  34  44
ATOM     44  O   UNL     1       5.787  -7.727   3.617  0.00  0.00    -0.341 OA
BRANCH  44  49
ATOM     45  C   UNL     1       2.475  -6.632   4.626  0.00  0.00    +0.166 C 
ATOM     46  C   UNL     1       2.181  -7.549   5.837  0.00  0.00    +0.175 C 
ATOM     47  C   UNL     1       3.493  -7.911   6.575  0.00  0.00    +0.167 C 
ATOM     48  C   UNL     1       4.582  -8.402   5.597  0.00  0.00    +0.139 C 
ATOM     49  C   UNL     1       4.727  -7.336   4.479  0.00  0.00    +0.270 C 
ATOM     50  O   UNL     1       3.486  -7.225   3.783  0.00  0.00    -0.343 OA
BRANCH  48  51
ATOM     51  N   UNL     1       4.245  -9.742   5.037  0.00  0.00    -0.321 NA
ATOM     52  H   UNL     1       3.427  -9.608   4.429  0.00  0.00    +0.119 HD
ATOM     53  H   UNL     1       4.988  -9.972   4.369  0.00  0.00    +0.119 HD
ENDBRANCH  48  51
BRANCH  47  54
ATOM     54  O   UNL     1       3.974  -6.809   7.359  0.00  0.00    -0.387 OA
ATOM     55  H   UNL     1       4.033  -6.004   6.816  0.00  0.00    +0.210 HD
ENDBRANCH  47  54
BRANCH  46  56
ATOM     56  O   UNL     1       1.505  -8.732   5.387  0.00  0.00    -0.387 OA
ATOM     57  H   UNL     1       1.748  -9.467   5.981  0.00  0.00    +0.210 HD
ENDBRANCH  46  56
BRANCH  45  58
ATOM     58  C   UNL     1       1.229  -6.373   3.762  0.00  0.00    +0.112 C 
BRANCH  58  59
ATOM     59  N   UNL     1       1.534  -5.399   2.701  0.00  0.00    -0.328 NA
ATOM     60  H   UNL     1       2.317  -5.765   2.163  0.00  0.00    +0.118 HD
ATOM     61  H   UNL     1       0.743  -5.353   2.059  0.00  0.00    +0.118 HD
ENDBRANCH  58  59
ENDBRANCH  45  58
ENDBRANCH  44  49
ENDBRANCH  34  44
ENDBRANCH  33  36
ENDBRANCH   1  33
TORSDOF 22
