REMARK  Name = 
REMARK  22 active torsions:
REMARK  status: ('A' for Active; 'I' for Inactive)
REMARK    1  A    between atoms: C_1  and  C_2
REMARK    2  A    between atoms: C_2  and  C_3
REMARK    3  A    between atoms: C_2  and  C_4
REMARK    4  A    between atoms: C_2  and  C_5
REMARK    5  A    between atoms: C_5  and  O_7
REMARK    6  A    between atoms: O_7  and  C_8
REMARK    7  A    between atoms: C_8  and  O_9
REMARK    8  A    between atoms: O_9  and  P_10
REMARK    9  A    between atoms: P_10  and  C_12
REMARK   10  A    between atoms: P_10  and  O_26
REMARK   11  A    between atoms: C_12  and  O_13
REMARK   12  A    between atoms: O_13  and  C_14
REMARK   13  A    between atoms: C_14  and  C_15
REMARK   14  A    between atoms: C_15  and  N_16
REMARK   15  A    between atoms: C_20  and  N_21
REMARK   16  A    between atoms: O_26  and  C_27
REMARK   17  A    between atoms: C_27  and  O_28
REMARK   18  A    between atoms: O_28  and  C_29
REMARK   19  A    between atoms: C_29  and  C_31
REMARK   20  A    between atoms: C_31  and  C_32
REMARK   21  A    between atoms: C_31  and  C_33
REMARK   22  A    between atoms: C_31  and  C_34
REMARK                            x       y       z     vdW  Elec       q    Type
REMARK                         _______ _______ _______ _____ _____    ______ ____
ROOT
ATOM      1  P   UNL     1       6.563  -3.677   2.807  0.00  0.00    +0.363 P 
ATOM      2  O   UNL     1       6.866  -2.688   3.890  0.00  0.00    -0.256 OA
ENDROOT
BRANCH   1   3
ATOM      3  O   UNL     1       7.740  -4.749   2.530  0.00  0.00    -0.268 OA
BRANCH   3   4
ATOM      4  C   UNL     1       9.042  -4.266   2.286  0.00  0.00    +0.407 C 
BRANCH   4   5
ATOM      5  O   UNL     1      10.012  -5.333   2.300  0.00  0.00    -0.437 OA
BRANCH   5   6
ATOM      6  C   UNL     1      10.600  -5.579   3.499  0.00  0.00    +0.314 C 
ATOM      7  O   UNL     1      10.319  -4.989   4.537  0.00  0.00    -0.250 OA
BRANCH   6   8
ATOM      8  C   UNL     1      11.681  -6.677   3.441  0.00  0.00    +0.059 C 
ATOM      9  C   UNL     1      11.202  -7.867   4.285  0.00  0.00    +0.022 C 
ATOM     10  C   UNL     1      12.970  -6.109   4.063  0.00  0.00    +0.022 C 
ATOM     11  C   UNL     1      12.007  -7.173   2.025  0.00  0.00    +0.022 C 
ENDBRANCH   6   8
ENDBRANCH   5   6
ENDBRANCH   4   5
ENDBRANCH   3   4
ENDBRANCH   1   3
BRANCH   1  12
ATOM     12  O   UNL     1       6.312  -2.982   1.366  0.00  0.00    -0.268 OA
BRANCH  12  13
ATOM     13  C   UNL     1       5.249  -2.046   1.315  0.00  0.00    +0.407 C 
BRANCH  13  14
ATOM     14  O   UNL     1       5.047  -1.504  -0.002  0.00  0.00    -0.437 OA
BRANCH  14  15
ATOM     15  C   UNL     1       4.331  -2.316  -0.825  0.00  0.00    +0.314 C 
ATOM     16  O   UNL     1       3.944  -3.436  -0.506  0.00  0.00    -0.250 OA
BRANCH  15  18
ATOM     17  C   UNL     1       3.116  -2.619  -2.977  0.00  0.00    +0.022 C 
ATOM     18  C   UNL     1       4.044  -1.675  -2.192  0.00  0.00    +0.059 C 
ATOM     19  C   UNL     1       3.330  -0.322  -2.043  0.00  0.00    +0.022 C 
ATOM     20  C   UNL     1       5.352  -1.494  -2.972  0.00  0.00    +0.022 C 
ENDBRANCH  15  18
ENDBRANCH  14  15
ENDBRANCH  13  14
ENDBRANCH  12  13
ENDBRANCH   1  12
BRANCH   1  21
ATOM     21  C   UNL     1       5.119  -4.726   3.118  0.00  0.00    +0.286 C 
BRANCH  21  22
ATOM     22  O   UNL     1       5.004  -5.596   1.994  0.00  0.00    -0.366 OA
BRANCH  22  23
ATOM     23  C   UNL     1       4.004  -6.599   2.135  0.00  0.00    +0.182 C 
BRANCH  23  24
ATOM     24  C   UNL     1       4.031  -7.473   0.883  0.00  0.00    +0.153 C 
BRANCH  24  25
ATOM     25  N   UNL     1       5.270  -8.212   0.733  0.00  0.00    -0.313 N 
ATOM     26  C   UNL     1       5.472  -9.540   0.988  0.00  0.00    +0.165 A 
ATOM     27  C   UNL     1       6.784  -9.776   0.605  0.00  0.00    +0.147 A 
ATOM     28  C   UNL     1       7.261 -11.090   0.748  0.00  0.00    +0.147 A 
ATOM     29  N   UNL     1       6.430 -12.026   1.257  0.00  0.00    -0.219 NA
ATOM     30  C   UNL     1       5.171 -11.654   1.581  0.00  0.00    +0.225 A 
ATOM     31  N   UNL     1       7.382  -8.622   0.143  0.00  0.00    -0.231 NA
ATOM     32  N   UNL     1       4.600 -10.433   1.486  0.00  0.00    -0.216 NA
ATOM     33  C   UNL     1       6.440  -7.705   0.224  0.00  0.00    +0.201 A 
BRANCH  28  34
ATOM     34  N   UNL     1       8.555 -11.467   0.405  0.00  0.00    -0.341 N 
ATOM     35  H   UNL     1       8.858 -12.289   0.909  0.00  0.00    +0.144 HD
ATOM     36  H   UNL     1       9.193 -10.680   0.355  0.00  0.00    +0.144 HD
ENDBRANCH  28  34
ENDBRANCH  24  25
ENDBRANCH  23  24
ENDBRANCH  22  23
ENDBRANCH  21  22
ENDBRANCH   1  21
TORSDOF 16
