REMARK  Name = 
REMARK  4 active torsions:
REMARK  status: ('A' for Active; 'I' for Inactive)
REMARK    1  A    between atoms: O_1  and  C_2
REMARK    2  A    between atoms: C_2  and  C_4
REMARK    3  A    between atoms: N_6  and  C_7
REMARK    4  A    between atoms: C_12  and  N_13
REMARK                            x       y       z     vdW  Elec       q    Type
REMARK                         _______ _______ _______ _____ _____    ______ ____
ROOT
ATOM      1  C   UNL     1       3.033   0.007  -1.290  0.00  0.00    +0.122 A 
ATOM      2  C   UNL     1       3.168  -1.345  -1.871  0.00  0.00    +0.203 A 
ATOM      3  O   UNL     1       2.623  -2.304  -1.332  0.00  0.00    -0.286 OA
ATOM      4  C   UNL     1       4.006  -1.506  -3.081  0.00  0.00    +0.049 A 
ATOM      5  C   UNL     1       4.549  -0.372  -3.704  0.00  0.00    +0.055 A 
ATOM      6  C   UNL     1       5.383  -0.571  -4.824  0.00  0.00    +0.052 A 
ATOM      7  C   UNL     1       5.705  -1.848  -5.328  0.00  0.00    +0.067 A 
ATOM      8  C   UNL     1       5.103  -2.939  -4.667  0.00  0.00    +0.145 A 
ATOM      9  F   UNL     1       5.283  -4.193  -5.112  0.00  0.00    -0.204 F 
ATOM     10  N   UNL     1       4.258   0.922  -3.179  0.00  0.00    -0.343 N 
ATOM     11  C   UNL     1       4.270  -2.784  -3.564  0.00  0.00    +0.054 A 
ATOM     12  C   UNL     1       3.583   1.022  -1.973  0.00  0.00    +0.105 A 
ENDROOT
BRANCH   7  13
ATOM     13  N   UNL     1       6.551  -2.002  -6.410  0.00  0.00    -0.325 N 
ATOM     14  C   UNL     1       6.789  -0.968  -7.429  0.00  0.00    +0.120 C 
ATOM     15  C   UNL     1       6.682  -1.597  -8.842  0.00  0.00    +0.100 C 
ATOM     16  N   UNL     1       7.529  -2.790  -9.044  0.00  0.00    -0.313 NA
ATOM     17  H   UNL     1       7.290  -3.218  -9.938  0.00  0.00    +0.122 HD
ATOM     18  C   UNL     1       7.274  -3.770  -7.966  0.00  0.00    +0.100 C 
ATOM     19  C   UNL     1       7.445  -3.165  -6.557  0.00  0.00    +0.120 C 
ENDBRANCH   7  13
BRANCH  10  20
ATOM     20  C   UNL     1       4.912   2.129  -3.723  0.00  0.00    +0.087 C 
ATOM     21  C   UNL     1       4.245   3.479  -3.808  0.00  0.00    +0.027 C 
ATOM     22  C   UNL     1       4.493   2.696  -5.058  0.00  0.00    +0.027 C 
ENDBRANCH  10  20
BRANCH   1  23
ATOM     23  C   UNL     1       2.351   0.277  -0.008  0.00  0.00    +0.342 C 
ATOM     24  O   UNL     1       2.286   1.388   0.497  0.00  0.00    -0.245 OA
BRANCH  23  25
ATOM     25  O   UNL     1       1.805  -0.812   0.578  0.00  0.00    -0.477 OA
ATOM     26  H   UNL     1       1.922  -1.650   0.066  0.00  0.00    +0.295 HD
ENDBRANCH  23  25
ENDBRANCH   1  23
TORSDOF 4
