REMARK  Name = 
REMARK  6 active torsions:
REMARK  status: ('A' for Active; 'I' for Inactive)
REMARK    1  A    between atoms: C_5  and  O_6
REMARK    2  A    between atoms: C_5  and  C_7
REMARK    3  A    between atoms: C_7  and  C_9
REMARK    4  A    between atoms: C_9  and  O_10
REMARK    5  A    between atoms: C_11  and  C_12
REMARK    6  A    between atoms: C_28  and  C_29
REMARK                            x       y       z     vdW  Elec       q    Type
REMARK                         _______ _______ _______ _____ _____    ______ ____
ROOT
ATOM      1  C   UNL     1      -0.018  -0.220  -0.171  0.00  0.00    +0.002 C 
ATOM      2  C   UNL     1      -0.018  -0.220  -0.171  0.00  0.00    +0.004 C 
ATOM      3  C   UNL     1      -0.018  -0.220  -0.171  0.00  0.00    +0.009 C 
ATOM      4  C   UNL     1      -0.018  -0.220  -0.171  0.00  0.00    +0.032 C 
ATOM      5  C   UNL     1      -0.018  -0.220  -0.171  0.00  0.00    -0.056 C 
ATOM      6  C   UNL     1       0.128   2.444   1.971  0.00  0.00    +0.017 C 
ATOM      7  C   UNL     1       1.199   0.410   0.298  0.00  0.00    +0.021 C 
ATOM      8  C   UNL     1      -0.041   0.090   1.486  0.00  0.00    -0.012 C 
ATOM      9  C   UNL     1      -0.018  -0.220  -0.171  0.00  0.00    +0.047 C 
ATOM     10  C   UNL     1      -0.018  -0.220  -0.171  0.00  0.00    +0.179 C 
ATOM     11  O   UNL     1      -0.018  -0.220  -0.171  0.00  0.00    -0.288 OA
ATOM     12  C   UNL     1      -0.018  -0.220  -0.171  0.00  0.00    +0.051 C 
ATOM     13  C   UNL     1      -0.018  -0.220  -0.171  0.00  0.00    +0.072 C 
ATOM     14  C   UNL     1      -0.018  -0.220  -0.171  0.00  0.00    +0.138 C 
ATOM     15  O   UNL     1      -0.018  -0.220  -0.171  0.00  0.00    -0.297 OA
ATOM     16  C   UNL     1      -0.018  -0.220  -0.171  0.00  0.00    +0.084 C 
ATOM     17  C   UNL     1      -0.018  -0.220  -0.171  0.00  0.00    +0.013 C 
ATOM     18  C   UNL     1      -0.018  -0.220  -0.171  0.00  0.00    +0.015 C 
ATOM     19  C   UNL     1      -0.018  -0.220  -0.171  0.00  0.00    +0.132 C 
ATOM     20  C   UNL     1      -0.018  -0.220  -0.171  0.00  0.00    +0.043 C 
ATOM     21  C   UNL     1      -0.018  -0.220  -0.171  0.00  0.00    +0.008 C 
ENDROOT
BRANCH  19  22
ATOM     22  C   UNL     1      -0.018  -0.220  -0.171  0.00  0.00    +0.190 C 
ATOM     23  O   UNL     1      -0.018  -0.220  -0.171  0.00  0.00    -0.292 OA
BRANCH  22  24
ATOM     24  C   UNL     1      -0.018  -0.220  -0.171  0.00  0.00    +0.233 C 
BRANCH  24  25
ATOM     25  O   UNL     1      -0.018  -0.220  -0.171  0.00  0.00    -0.387 OA
ATOM     26  H   UNL     1      -0.036  -0.440  -0.342  0.00  0.00    +0.210 HD
ENDBRANCH  24  25
ENDBRANCH  22  24
ENDBRANCH  19  22
BRANCH  19  27
ATOM     27  O   UNL     1      -0.018  -0.220  -0.171  0.00  0.00    -0.380 OA
ATOM     28  H   UNL     1       0.000   0.000   0.000  0.00  0.00    +0.211 HD
ENDBRANCH  19  27
TORSDOF 4
