REMARK  Name = 
REMARK  8 active torsions:
REMARK  status: ('A' for Active; 'I' for Inactive)
REMARK    1  A    between atoms: N_1  and  CA_2
REMARK    2  A    between atoms: CA_2  and  C_4
REMARK    3  A    between atoms: CA_2  and  C_23
REMARK    4  A    between atoms: C_4  and  C_5
REMARK    5  A    between atoms: C_9  and  O_10
REMARK    6  A    between atoms: O_10  and  C_11
REMARK    7  A    between atoms: C_15  and  O_16
REMARK    8  A    between atoms: C_23  and  O_24
REMARK                            x       y       z     vdW  Elec       q    Type
REMARK                         _______ _______ _______ _____ _____    ______ ____
ROOT
ATOM      1  C   UNL     1       2.392   2.494  -0.123  0.00  0.00    -0.043 A 
ATOM      2  C   UNL     1       2.745   3.695   0.520  0.00  0.00    +0.021 A 
ATOM      3  C   UNL     1       2.446   4.957  -0.028  0.00  0.00    +0.057 A 
ATOM      4  I   UNL     1       3.237   6.589   1.039  0.00  0.00    -0.040 I 
ATOM      5  C   UNL     1       1.757   5.042  -1.244  0.00  0.00    +0.155 A 
ATOM      6  C   UNL     1       1.342   3.839  -1.852  0.00  0.00    +0.057 A 
ATOM      7  I   UNL     1       0.340   3.829  -3.711  0.00  0.00    -0.040 I 
ATOM      8  C   UNL     1       1.636   2.582  -1.291  0.00  0.00    +0.021 A 
ENDROOT
BRANCH   1   9
ATOM      9  C   UNL     1       2.910   1.206   0.491  0.00  0.00    +0.065 C 
BRANCH   9  10
ATOM     10  CA  UNL     1       2.566  -0.155  -0.145  0.00  0.00    +0.165 C 
BRANCH  10  11
ATOM     11  N   UNL     1       3.214  -0.396  -1.475  0.00  0.00    -0.318 NA
ATOM     12  H1  UNL     1       2.842   0.270  -2.155  0.00  0.00    +0.119 HD
ATOM     13  H2  UNL     1       4.205  -0.138  -1.401  0.00  0.00    +0.119 HD
ENDBRANCH  10  11
BRANCH  10  14
ATOM     14  C   UNL     1       3.028  -1.289   0.795  0.00  0.00    +0.322 C 
ATOM     15  OXT UNL     1       3.034  -1.256   2.014  0.00  0.00    -0.249 OA
BRANCH  14  16
ATOM     16  O   UNL     1       3.438  -2.377   0.082  0.00  0.00    -0.480 OA
ATOM     17  H   UNL     1       3.367  -2.121  -0.872  0.00  0.00    +0.295 HD
ENDBRANCH  14  16
ENDBRANCH  10  14
ENDBRANCH   9  10
ENDBRANCH   1   9
BRANCH   5  18
ATOM     18  O   UNL     1       1.708   6.162  -2.038  0.00  0.00    -0.454 OA
BRANCH  18  19
ATOM     19  C   UNL     1       1.110   7.341  -1.676  0.00  0.00    +0.131 A 
ATOM     20  C   UNL     1       0.241   7.552  -0.609  0.00  0.00    +0.064 A 
ATOM     21  C   UNL     1      -0.218   8.852  -0.340  0.00  0.00    +0.059 A 
ATOM     22  I   UNL     1      -1.379   9.146   1.381  0.00  0.00    -0.040 I 
ATOM     23  C   UNL     1       0.122   9.920  -1.181  0.00  0.00    +0.143 A 
ATOM     24  C   UNL     1       0.949   9.688  -2.281  0.00  0.00    +0.059 A 
ATOM     25  I   UNL     1       1.498  11.224  -3.588  0.00  0.00    -0.040 I 
ATOM     26  C   UNL     1       1.444   8.407  -2.521  0.00  0.00    +0.064 A 
BRANCH  23  27
ATOM     27  O   UNL     1      -0.363  11.174  -0.920  0.00  0.00    -0.505 OA
ATOM     28  H   UNL     1      -0.093  11.760  -1.650  0.00  0.00    +0.292 HD
ENDBRANCH  23  27
ENDBRANCH  18  19
ENDBRANCH   5  18
TORSDOF 8
