REMARK  Name = 
REMARK  2 active torsions:
REMARK  status: ('A' for Active; 'I' for Inactive)
REMARK    1  A    between atoms: C_1  and  N_2
REMARK    2  A    between atoms: C_20  and  C_21
REMARK                            x       y       z     vdW  Elec       q    Type
REMARK                         _______ _______ _______ _____ _____    ______ ____
ROOT
ATOM      1  C   UNL     1       1.101   0.012   0.111  0.00  0.00    +0.105 C 
ATOM      2  N   UNL     1       2.549  -0.116  -0.041  0.00  0.00    -0.298 NA
ATOM      3  C   UNL     1       3.086   0.847  -1.028  0.00  0.00    +0.128 C 
ATOM      4  C   UNL     1       2.705   0.557  -2.496  0.00  0.00    +0.241 C 
ATOM      5  N   UNL     1       3.026  -0.828  -2.883  0.00  0.00    -0.218 N 
ATOM      6  C   UNL     1       3.889  -1.072  -3.949  0.00  0.00    +0.324 C 
ATOM      7  C   UNL     1       3.827  -2.429  -4.498  0.00  0.00    +0.094 A 
ATOM      8  C   UNL     1       2.646  -3.229  -4.704  0.00  0.00    +0.028 A 
ATOM      9  C   UNL     1       2.925  -4.499  -5.160  0.00  0.00    -0.011 A 
ATOM     10  S   UNL     1       4.605  -4.739  -5.335  0.00  0.00    -0.078 S 
ATOM     11  C   UNL     1       1.981  -5.600  -5.494  0.00  0.00    +0.051 C 
ATOM     12  C   UNL     1       4.948  -3.113  -4.932  0.00  0.00    +0.085 A 
ATOM     13  N   UNL     1       6.202  -2.619  -5.099  0.00  0.00    -0.305 N 
ATOM     14  H   UNL     1       6.895  -3.295  -5.402  0.00  0.00    +0.153 HD
ATOM     15  C   UNL     1       6.307  -1.402  -5.831  0.00  0.00    +0.083 A 
ATOM     16  C   UNL     1       5.510  -0.273  -5.534  0.00  0.00    +0.197 A 
ATOM     17  C   UNL     1       5.604   0.850  -6.372  0.00  0.00    +0.057 A 
ATOM     18  C   UNL     1       6.426   0.855  -7.499  0.00  0.00    +0.004 A 
ATOM     19  C   UNL     1       7.193  -0.263  -7.797  0.00  0.00    +0.002 A 
ATOM     20  C   UNL     1       7.145  -1.379  -6.961  0.00  0.00    +0.027 A 
ATOM     21  N   UNL     1       4.654  -0.136  -4.426  0.00  0.00    -0.040 NA
ATOM     22  C   UNL     1       2.572  -1.846  -1.921  0.00  0.00    +0.241 C 
ATOM     23  C   UNL     1       2.938  -1.474  -0.466  0.00  0.00    +0.128 C 
ENDROOT
TORSDOF 0
