REMARK  Name = 
REMARK  7 active torsions:
REMARK  status: ('A' for Active; 'I' for Inactive)
REMARK    1  A    between atoms: O_1  and  C_2
REMARK    2  A    between atoms: C_2  and  C_4
REMARK    3  A    between atoms: C_6  and  N_11
REMARK    4  A    between atoms: C_9  and  O_10
REMARK    5  A    between atoms: N_12  and  C_13
REMARK    6  A    between atoms: C_16  and  S_19
REMARK    7  A    between atoms: S_19  and  N_22
REMARK                            x       y       z     vdW  Elec       q    Type
REMARK                         _______ _______ _______ _____ _____    ______ ____
ROOT
ATOM      1  C   UNL     1       5.159   2.457  -5.505  0.00  0.00    +0.086 A 
ATOM      2  C   UNL     1       5.427   1.927  -6.778  0.00  0.00    +0.031 A 
ATOM      3  C   UNL     1       5.544   2.764  -7.897  0.00  0.00    +0.031 A 
ATOM      4  C   UNL     1       5.411   4.148  -7.744  0.00  0.00    +0.109 A 
ATOM      5  C   UNL     1       5.166   4.695  -6.483  0.00  0.00    +0.031 A 
ATOM      6  C   UNL     1       5.060   3.850  -5.374  0.00  0.00    +0.031 A 
ENDROOT
BRANCH   4   7
ATOM      7  S   UNL     1       5.429   5.211  -9.179  0.00  0.00    +0.073 S 
ATOM      8  O   UNL     1       4.642   6.388  -8.871  0.00  0.00    -0.150 OA
ATOM      9  O   UNL     1       5.098   4.380 -10.320  0.00  0.00    -0.150 OA
BRANCH   7  10
ATOM     10  N   UNL     1       7.046   5.648  -9.362  0.00  0.00    -0.199 N 
ATOM     11  H   UNL     1       7.609   4.817  -9.532  0.00  0.00    +0.175 HD
ATOM     12  C   UNL     1       7.592   6.385  -8.295  0.00  0.00    +0.138 A 
ATOM     13  C   UNL     1       7.420   7.753  -8.174  0.00  0.00    +0.045 A 
ATOM     14  C   UNL     1       7.953   8.373  -7.048  0.00  0.00    +0.005 A 
ATOM     15  C   UNL     1       8.600   7.600  -6.088  0.00  0.00    +0.020 A 
ATOM     16  C   UNL     1       8.703   6.234  -6.303  0.00  0.00    +0.113 A 
ATOM     17  N   UNL     1       8.220   5.608  -7.398  0.00  0.00    -0.239 NA
ENDBRANCH   7  10
ENDBRANCH   4   7
BRANCH   1  19
ATOM     18  N   UNL     1       4.490   0.548  -4.587  0.00  0.00    -0.149 NA
ATOM     19  N   UNL     1       4.945   1.685  -4.342  0.00  0.00    -0.149 NA
BRANCH  18  24
ATOM     20  C   UNL     1       3.769  -0.458  -1.038  0.00  0.00    +0.102 A 
ATOM     21  C   UNL     1       2.626  -1.239  -1.250  0.00  0.00    +0.131 A 
ATOM     22  C   UNL     1       2.156  -1.467  -2.540  0.00  0.00    +0.048 A 
ATOM     23  C   UNL     1       2.812  -0.878  -3.624  0.00  0.00    +0.033 A 
ATOM     24  C   UNL     1       3.942  -0.066  -3.441  0.00  0.00    +0.087 A 
ATOM     25  C   UNL     1       4.434   0.106  -2.139  0.00  0.00    +0.048 A 
BRANCH  20  26
ATOM     26  C   UNL     1       4.319  -0.178   0.314  0.00  0.00    +0.340 C 
ATOM     27  O   UNL     1       5.491   0.113   0.500  0.00  0.00    -0.245 OA
BRANCH  26  28
ATOM     28  O   UNL     1       3.401  -0.190   1.303  0.00  0.00    -0.477 OA
ATOM     29  H   UNL     1       2.537  -0.547   1.004  0.00  0.00    +0.295 HD
ENDBRANCH  26  28
ENDBRANCH  20  26
BRANCH  21  30
ATOM     30  O   UNL     1       1.946  -1.761  -0.181  0.00  0.00    -0.506 OA
ATOM     31  H   UNL     1       1.313  -2.429  -0.507  0.00  0.00    +0.292 HD
ENDBRANCH  21  30
ENDBRANCH  18  24
ENDBRANCH   1  19
TORSDOF 7
