REMARK  Name = 
REMARK  15 active torsions:
REMARK  status: ('A' for Active; 'I' for Inactive)
REMARK    1  A    between atoms: C_1  and  O_2
REMARK    2  A    between atoms: O_2  and  C_3
REMARK    3  A    between atoms: C_3  and  C_4
REMARK    4  A    between atoms: C_4  and  O_5
REMARK    5  A    between atoms: O_5  and  C_6
REMARK    6  A    between atoms: C_6  and  C_7
REMARK    7  A    between atoms: C_7  and  C_9
REMARK    8  A    between atoms: C_7  and  C_29
REMARK    9  A    between atoms: C_9  and  C_10
REMARK   10  A    between atoms: C_10  and  C_15
REMARK   11  A    between atoms: N_17  and  C_18
REMARK   12  A    between atoms: C_22  and  C_26
REMARK   13  A    between atoms: C_26  and  O_27
REMARK   14  A    between atoms: C_29  and  O_31
REMARK   15  A    between atoms: O_31  and  C_32
REMARK                            x       y       z     vdW  Elec       q    Type
REMARK                         _______ _______ _______ _____ _____    ______ ____
ROOT
ATOM      1  C   UNL     1       6.223   2.409  -3.899  0.00  0.00    +0.033 C 
ENDROOT
BRANCH   1   2
ATOM      2  C   UNL     1       4.666   2.522  -3.965  0.00  0.00    +0.048 C 
ATOM      3  C   UNL     1       3.966   1.725  -2.844  0.00  0.00    +0.016 C 
ATOM      4  C   UNL     1       2.818   0.947  -3.479  0.00  0.00    +0.001 C 
ATOM      5  C   UNL     1       2.711   1.398  -4.924  0.00  0.00    +0.001 C 
ATOM      6  C   UNL     1       4.070   1.971  -5.288  0.00  0.00    +0.016 C 
BRANCH   2   7
ATOM      7  C   UNL     1       4.248   4.026  -3.885  0.00  0.00    +0.219 C 
ATOM      8  N   UNL     1       4.499   4.698  -2.704  0.00  0.00    -0.312 N 
ATOM      9  H   UNL     1       5.102   4.269  -2.014  0.00  0.00    +0.149 HD
ATOM     10  O   UNL     1       3.715   4.608  -4.828  0.00  0.00    -0.275 OA
BRANCH   8  11
ATOM     11  C   UNL     1       4.172   6.122  -2.573  0.00  0.00    +0.073 C 
ATOM     12  C   UNL     1       4.771   6.740  -1.308  0.00  0.00    +0.023 C 
ATOM     13  C   UNL     1       4.111   6.238  -0.026  0.00  0.00    +0.016 C 
ATOM     14  C   UNL     1       2.572   6.310  -0.031  0.00  0.00    +0.098 C 
ATOM     15  C   UNL     1       1.950   5.842  -1.351  0.00  0.00    +0.016 C 
ATOM     16  C   UNL     1       2.659   6.394  -2.584  0.00  0.00    +0.023 C 
BRANCH  14  17
ATOM     17  C   UNL     1       2.015   5.478   1.121  0.00  0.00    +0.308 C 
ATOM     18  O   UNL     1       2.664   4.690   1.792  0.00  0.00    -0.251 OA
BRANCH  17  19
ATOM     19  O   UNL     1       0.700   5.690   1.352  0.00  0.00    -0.480 OA
ATOM     20  H   UNL     1       0.285   6.338   0.756  0.00  0.00    +0.295 HD
ENDBRANCH  17  19
ENDBRANCH  14  17
ENDBRANCH   8  11
ENDBRANCH   2   7
ENDBRANCH   1   2
BRANCH   1  21
ATOM     21  C   UNL     1       6.898   0.999  -3.782  0.00  0.00    +0.125 C 
BRANCH  21  22
ATOM     22  C   UNL     1       8.415   1.168  -3.743  0.00  0.00    +0.318 C 
ATOM     23  O   UNL     1       9.030   2.118  -4.205  0.00  0.00    -0.250 OA
BRANCH  22  24
ATOM     24  O   UNL     1       8.971   0.129  -3.011  0.00  0.00    -0.426 OA
BRANCH  24  25
ATOM     25  C   UNL     1       9.788   0.524  -1.939  0.00  0.00    +0.132 A 
ATOM     26  C   UNL     1       9.460   1.638  -1.147  0.00  0.00    +0.046 A 
ATOM     27  C   UNL     1      10.215   1.937  -0.016  0.00  0.00    +0.007 A 
ATOM     28  C   UNL     1      11.273   1.106   0.311  0.00  0.00    -0.044 A 
ATOM     29  C   UNL     1      12.187   1.252   1.481  0.00  0.00    +0.036 C 
ATOM     30  C   UNL     1      13.131   0.049   1.348  0.00  0.00    +0.009 C 
ATOM     31  C   UNL     1      12.760  -0.750   0.087  0.00  0.00    +0.036 C 
ATOM     32  C   UNL     1      11.589  -0.008  -0.467  0.00  0.00    -0.041 A 
ATOM     33  C   UNL     1      10.848  -0.319  -1.599  0.00  0.00    +0.050 A 
ENDBRANCH  24  25
ENDBRANCH  22  24
ENDBRANCH  21  22
BRANCH  21  34
ATOM     34  C   UNL     1       6.517   0.028  -4.881  0.00  0.00    +0.174 C 
BRANCH  34  35
ATOM     35  O   UNL     1       7.190  -1.227  -4.829  0.00  0.00    -0.377 OA
BRANCH  35  36
ATOM     36  C   UNL     1       6.665  -2.082  -5.856  0.00  0.00    +0.188 C 
BRANCH  36  37
ATOM     37  C   UNL     1       7.332  -3.444  -5.805  0.00  0.00    +0.187 C 
BRANCH  37  39
ATOM     38  C   UNL     1       7.379  -5.553  -6.841  0.00  0.00    +0.194 C 
ATOM     39  O   UNL     1       6.782  -4.265  -6.835  0.00  0.00    -0.381 OA
ENDBRANCH  37  39
ENDBRANCH  36  37
ENDBRANCH  35  36
ENDBRANCH  34  35
ENDBRANCH  21  34
ENDBRANCH   1  21
TORSDOF 14
