REMARK  Name = 
REMARK  2 active torsions:
REMARK  status: ('A' for Active; 'I' for Inactive)
REMARK    1  A    between atoms: C_1  and  C_2
REMARK    2  A    between atoms: C_8  and  C_9
REMARK                            x       y       z     vdW  Elec       q    Type
REMARK                         _______ _______ _______ _____ _____    ______ ____
ROOT
ATOM      1  C   UNL     1       0.982   0.159   0.052  0.00  0.00    +0.088 C 
ATOM      2  C   UNL     1       2.458   0.128   0.166  0.00  0.00    +0.135 A 
ATOM      3  N   UNL     1       3.257  -1.006   0.217  0.00  0.00    -0.281 N 
ATOM      4  C   UNL     1       4.540  -0.521   0.084  0.00  0.00    +0.159 A 
ATOM      5  C   UNL     1       5.727  -1.397   0.084  0.00  0.00    +0.218 C 
ATOM      6  N   UNL     1       5.666  -2.315  -1.041  0.00  0.00    -0.275 NA
ATOM      7  C   UNL     1       4.777  -3.244  -1.100  0.00  0.00    +0.077 C 
ATOM      8  C   UNL     1       3.679  -3.429  -0.079  0.00  0.00    +0.026 A 
ATOM      9  C   UNL     1       3.341  -4.754   0.262  0.00  0.00    +0.032 A 
ATOM     10  C   UNL     1       2.221  -5.020   1.046  0.00  0.00    +0.042 A 
ATOM     11 CL   UNL     1       1.773  -6.647   1.372  0.00  0.00    -0.084 Cl
ATOM     12  C   UNL     1       1.451  -3.978   1.544  0.00  0.00    +0.022 A 
ATOM     13  C   UNL     1       1.802  -2.656   1.258  0.00  0.00    +0.028 A 
ATOM     14  N   UNL     1       4.525   0.794   0.052  0.00  0.00    -0.132 NA
ATOM     15  C   UNL     1       2.907  -2.366   0.439  0.00  0.00    +0.059 A 
ATOM     16  N   UNL     1       3.224   1.199   0.104  0.00  0.00    -0.134 NA
ENDROOT
BRANCH   7  17
ATOM     17  C   UNL     1       4.827  -4.186  -2.276  0.00  0.00    +0.019 A 
ATOM     18  C   UNL     1       6.034  -4.646  -2.837  0.00  0.00    +0.050 A 
ATOM     19 CL   UNL     1       7.603  -4.214  -2.252  0.00  0.00    -0.083 Cl
ATOM     20  C   UNL     1       6.009  -5.563  -3.898  0.00  0.00    +0.020 A 
ATOM     21  C   UNL     1       4.799  -6.043  -4.397  0.00  0.00    +0.001 A 
ATOM     22  C   UNL     1       3.601  -5.582  -3.864  0.00  0.00    +0.001 A 
ATOM     23  C   UNL     1       3.613  -4.642  -2.831  0.00  0.00    +0.011 A 
ENDBRANCH   7  17
TORSDOF 1
