REMARK  Name = 
REMARK  13 active torsions:
REMARK  status: ('A' for Active; 'I' for Inactive)
REMARK    1  A    between atoms: C_5  and  C_6
REMARK    2  A    between atoms: C_6  and  S_7
REMARK    3  A    between atoms: S_7  and  C_8
REMARK    4  A    between atoms: N_12  and  C_13
REMARK    5  A    between atoms: C_14  and  C_29
REMARK    6  A    between atoms: C_18  and  N_19
REMARK    7  A    between atoms: C_18  and  O_27
REMARK    8  A    between atoms: C_20  and  C_22
REMARK    9  A    between atoms: C_22  and  S_23
REMARK   10  A    between atoms: S_23  and  C_24
REMARK   11  A    between atoms: C_24  and  C_25
REMARK   12  A    between atoms: O_27  and  C_28
REMARK   13  A    between atoms: C_29  and  O_30
REMARK                            x       y       z     vdW  Elec       q    Type
REMARK                         _______ _______ _______ _____ _____    ______ ____
ROOT
ATOM      1  C   UNL     1       2.296  -0.009   0.174  0.00  0.00    +0.199 C 
ATOM      2  C   UNL     1       2.935  -1.463  -0.002  0.00  0.00    +0.242 C 
ATOM      3  C   UNL     1       3.459  -0.786  -1.371  0.00  0.00    +0.275 C 
ATOM      4  O   UNL     1       3.996  -1.095  -2.413  0.00  0.00    -0.270 OA
ATOM      5  N   UNL     1       3.151   0.450  -0.908  0.00  0.00    -0.244 N 
ATOM      6  C   UNL     1       3.311   1.773  -1.258  0.00  0.00    +0.123 C 
ATOM      7  C   UNL     1       2.908   2.755  -0.389  0.00  0.00    -0.021 C 
ATOM      8  C   UNL     1       2.281   2.483   0.974  0.00  0.00    +0.104 C 
ATOM      9  S   UNL     1       2.727   0.880   1.686  0.00  0.00    -0.128 S 
ENDROOT
BRANCH   2  10
ATOM     10  N   UNL     1       3.996  -1.788   1.004  0.00  0.00    -0.277 N 
ATOM     11  H   UNL     1       3.878  -1.434   1.949  0.00  0.00    +0.152 HD
ATOM     12  C   UNL     1       5.129  -2.510   0.706  0.00  0.00    +0.225 C 
ATOM     13  O   UNL     1       5.360  -2.974  -0.403  0.00  0.00    -0.275 OA
BRANCH  12  14
ATOM     14  C   UNL     1       6.068  -2.751   1.869  0.00  0.00    +0.165 C 
BRANCH  14  15
ATOM     15  S   UNL     1       5.472  -4.098   2.920  0.00  0.00    -0.137 S 
BRANCH  15  16
ATOM     16  C   UNL     1       5.559  -5.562   1.766  0.00  0.00    +0.187 C 
BRANCH  16  17
ATOM     17  C   UNL     1       5.120  -6.757   2.598  0.00  0.00    +0.073 C 
ATOM     18  N   UNL     1       4.756  -7.747   3.287  0.00  0.00    -0.196 NA
ENDBRANCH  16  17
ENDBRANCH  15  16
ENDBRANCH  14  15
ENDBRANCH  12  14
ENDBRANCH   2  10
BRANCH   2  19
ATOM     19  O   UNL     1       1.921  -2.497  -0.136  0.00  0.00    -0.349 OA
ATOM     20  C   UNL     1       2.280  -3.700  -0.801  0.00  0.00    +0.197 C 
ENDBRANCH   2  19
BRANCH   6  21
ATOM     21  C   UNL     1       3.956   2.164  -2.580  0.00  0.00    +0.351 C 
ATOM     22  O   UNL     1       4.106   3.322  -2.943  0.00  0.00    -0.244 OA
BRANCH  21  23
ATOM     23  O   UNL     1       4.347   1.179  -3.405  0.00  0.00    -0.476 OA
ATOM     24  H   UNL     1       4.267   0.245  -3.114  0.00  0.00    +0.295 HD
ENDBRANCH  21  23
ENDBRANCH   6  21
BRANCH   7  25
ATOM     25  C   UNL     1       3.095   4.264  -0.594  0.00  0.00    +0.111 C 
BRANCH  25  26
ATOM     26  S   UNL     1       1.692   4.983  -1.508  0.00  0.00    -0.080 S 
BRANCH  26  27
ATOM     27  C   UNL     1       2.207   6.634  -1.597  0.00  0.00    +0.209 A 
ATOM     28  N   UNL     1       1.864   7.503  -2.594  0.00  0.00    -0.223 N 
ATOM     29  C   UNL     1       1.075   7.297  -3.774  0.00  0.00    +0.177 C 
ATOM     30  N   UNL     1       2.396   8.712  -2.334  0.00  0.00    -0.043 NA
ATOM     31  N   UNL     1       3.060   8.563  -1.196  0.00  0.00    -0.022 NA
ATOM     32  N   UNL     1       2.950   7.276  -0.723  0.00  0.00    -0.102 NA
ENDBRANCH  26  27
ENDBRANCH  25  26
ENDBRANCH   7  25
TORSDOF 11
