REMARK  Name = 
REMARK  6 active torsions:
REMARK  status: ('A' for Active; 'I' for Inactive)
REMARK    1  A    between atoms: C_1  and  C_2
REMARK    2  A    between atoms: C_2  and  C_3
REMARK    3  A    between atoms: C_2  and  N_4
REMARK    4  A    between atoms: N_8  and  C_9
REMARK    5  A    between atoms: C_25  and  N_26
REMARK    6  A    between atoms: N_26  and  C_27
REMARK                            x       y       z     vdW  Elec       q    Type
REMARK                         _______ _______ _______ _____ _____    ______ ____
ROOT
ATOM      1  N   UNL     1       3.019  -1.001   0.825  0.00  0.00    -0.279 NA
ATOM      2  C   UNL     1       4.285  -1.264   0.925  0.00  0.00    +0.082 A 
ATOM      3  C   UNL     1       4.768  -2.196   2.006  0.00  0.00    +0.059 A 
ATOM      4  C   UNL     1       6.092  -2.321   2.195  0.00  0.00    +0.055 A 
ATOM      5  C   UNL     1       7.120  -1.547   1.460  0.00  0.00    +0.090 A 
ATOM      6  C   UNL     1       6.655  -0.589   0.407  0.00  0.00    +0.075 A 
ATOM      7  N   UNL     1       7.632   0.227  -0.231  0.00  0.00    -0.306 N 
ATOM      8  C   UNL     1       9.017  -0.010   0.122  0.00  0.00    +0.073 A 
ATOM      9  C   UNL     1      10.081   0.754  -0.391  0.00  0.00    +0.028 A 
ATOM     10  C   UNL     1      11.415   0.432  -0.117  0.00  0.00    +0.002 A 
ATOM     11  C   UNL     1      11.717  -0.622   0.735  0.00  0.00    +0.002 A 
ATOM     12  C   UNL     1      10.680  -1.333   1.334  0.00  0.00    +0.030 A 
ATOM     13  C   UNL     1       9.339  -1.033   1.047  0.00  0.00    +0.088 A 
ATOM     14  N   UNL     1       8.365  -1.763   1.751  0.00  0.00    -0.244 NA
ATOM     15  C   UNL     1       5.352  -0.655   0.098  0.00  0.00    +0.057 A 
ENDROOT
BRANCH   7  16
ATOM     16  C   UNL     1       7.205   1.242  -1.170  0.00  0.00    +0.047 A 
ATOM     17  C   UNL     1       7.821   1.396  -2.419  0.00  0.00    +0.027 A 
ATOM     18  C   UNL     1       7.362   2.342  -3.343  0.00  0.00    +0.022 A 
ATOM     19  C   UNL     1       6.222   3.089  -3.065  0.00  0.00    +0.041 A 
ATOM     20 CL   UNL     1       5.596   4.174  -4.242  0.00  0.00    -0.084 Cl
ATOM     21  C   UNL     1       5.579   2.950  -1.842  0.00  0.00    +0.022 A 
ATOM     22  C   UNL     1       6.103   2.077  -0.884  0.00  0.00    +0.027 A 
ENDBRANCH   7  16
BRANCH   1  24
ATOM     23  C   UNL     1       1.173  -0.329  -0.643  0.00  0.00    +0.032 C 
ATOM     24  C   UNL     1       2.534   0.056  -0.081  0.00  0.00    +0.100 C 
ATOM     25  C   UNL     1       2.437   1.373   0.689  0.00  0.00    +0.032 C 
ENDBRANCH   1  24
BRANCH   3  26
ATOM     26  N   UNL     1       3.788  -2.851   2.743  0.00  0.00    -0.313 N 
ATOM     27  H   UNL     1       2.859  -2.707   2.338  0.00  0.00    +0.152 HD
BRANCH  26  28
ATOM     28  C   UNL     1       3.746  -2.967   4.153  0.00  0.00    +0.031 A 
ATOM     29  C   UNL     1       2.881  -3.903   4.737  0.00  0.00    +0.024 A 
ATOM     30  C   UNL     1       2.875  -4.118   6.123  0.00  0.00    +0.022 A 
ATOM     31  C   UNL     1       3.729  -3.383   6.939  0.00  0.00    +0.041 A 
ATOM     32 CL   UNL     1       3.781  -3.688   8.633  0.00  0.00    -0.084 Cl
ATOM     33  C   UNL     1       4.562  -2.416   6.389  0.00  0.00    +0.022 A 
ATOM     34  C   UNL     1       4.563  -2.208   5.005  0.00  0.00    +0.024 A 
ENDBRANCH  26  28
ENDBRANCH   3  26
TORSDOF 4
