REMARK  Name = 
REMARK  5 active torsions:
REMARK  status: ('A' for Active; 'I' for Inactive)
REMARK    1  A    between atoms: C_1  and  N_2
REMARK    2  A    between atoms: C_7  and  C_8
REMARK    3  A    between atoms: N_10  and  C_11
REMARK    4  A    between atoms: C_12  and  C_13
REMARK    5  A    between atoms: C_17  and  C_18
REMARK                            x       y       z     vdW  Elec       q    Type
REMARK                         _______ _______ _______ _____ _____    ______ ____
ROOT
ATOM      1  C   UNL     1       4.521   1.205  -1.065  0.00  0.00    +0.234 C 
ATOM      2  N   UNL     1       5.102   1.458   0.165  0.00  0.00    -0.284 N 
ATOM      3  H   UNL     1       4.471   1.873   0.840  0.00  0.00    +0.155 HD
ATOM      4  O   UNL     1       5.141   1.200  -2.129  0.00  0.00    -0.274 OA
ENDROOT
BRANCH   2   5
ATOM      5  C   UNL     1       6.496   1.588   0.346  0.00  0.00    +0.039 A 
ATOM      6  C   UNL     1       7.377   0.537  -0.015  0.00  0.00    -0.029 A 
ATOM      7  C   UNL     1       6.907  -0.780  -0.578  0.00  0.00    +0.045 C 
ATOM      8  C   UNL     1       8.755   0.687   0.213  0.00  0.00    +0.005 A 
ATOM      9  C   UNL     1       9.262   1.844   0.795  0.00  0.00    +0.001 A 
ATOM     10  C   UNL     1       8.396   2.869   1.159  0.00  0.00    +0.005 A 
ATOM     11  C   UNL     1       7.008   2.754   0.956  0.00  0.00    -0.029 A 
ATOM     12  C   UNL     1       6.175   3.966   1.276  0.00  0.00    +0.045 C 
ENDBRANCH   2   5
BRANCH   1  15
ATOM     13  C   UNL     1       1.040   0.742   0.418  0.00  0.00    +0.105 C 
ATOM     14  N   UNL     1       2.487   0.537   0.279  0.00  0.00    -0.295 NA
ATOM     15  C   UNL     1       2.976   1.044  -1.036  0.00  0.00    +0.143 C 
ATOM     16  C   UNL     1       2.527   0.178  -2.225  0.00  0.00    +0.028 C 
ATOM     17  C   UNL     1       2.911  -1.287  -2.026  0.00  0.00    +0.003 C 
ATOM     18  C   UNL     1       2.422  -1.806  -0.679  0.00  0.00    +0.015 C 
ATOM     19  C   UNL     1       2.830  -0.885   0.472  0.00  0.00    +0.085 C 
ENDBRANCH   1  15
TORSDOF 2
