REMARK  Name = 
REMARK  6 active torsions:
REMARK  status: ('A' for Active; 'I' for Inactive)
REMARK    1  A    between atoms: N_1  and  C_2
REMARK    2  A    between atoms: C_3  and  C_4
REMARK    3  A    between atoms: C_4  and  C_5
REMARK    4  A    between atoms: C_5  and  O_6
REMARK    5  A    between atoms: C_11  and  C_12
REMARK    6  A    between atoms: C_12  and  C_14
REMARK                            x       y       z     vdW  Elec       q    Type
REMARK                         _______ _______ _______ _____ _____    ______ ____
ROOT
ATOM      1  C   UNL     1       2.460  -0.012   0.412  0.00  0.00    +0.039 A 
ATOM      2  C   UNL     1       3.097  -1.211   0.016  0.00  0.00    +0.043 A 
ATOM      3  C   UNL     1       4.491  -1.249  -0.107  0.00  0.00    +0.013 A 
ATOM      4  C   UNL     1       5.227  -0.079  -0.000  0.00  0.00    +0.001 A 
ATOM      5  C   UNL     1       4.560   1.139   0.115  0.00  0.00    +0.006 A 
ATOM      6  C   UNL     1       3.157   1.198   0.250  0.00  0.00    -0.015 A 
ENDROOT
BRANCH   1   7
ATOM      7  N   UNL     1       1.096   0.034   0.796  0.00  0.00    -0.357 N 
ATOM      8  H   UNL     1       0.760  -0.881   1.113  0.00  0.00    +0.142 HD
ATOM      9  H   UNL     1       0.957   0.685   1.578  0.00  0.00    +0.142 HD
ENDBRANCH   1   7
BRANCH   2  10
ATOM     10  C   UNL     1       2.370  -2.482  -0.289  0.00  0.00    +0.195 C 
ATOM     11  O   UNL     1       2.876  -3.546   0.049  0.00  0.00    -0.287 OA
BRANCH  10  12
ATOM     12  C   UNL     1       1.062  -2.487  -1.007  0.00  0.00    +0.022 A 
ATOM     13  C   UNL     1       0.645  -1.442  -1.836  0.00  0.00    +0.013 A 
ATOM     14  C   UNL     1      -0.665  -1.413  -2.337  0.00  0.00    +0.016 A 
ATOM     15  C   UNL     1      -1.527  -2.473  -2.070  0.00  0.00    +0.018 A 
ATOM     16 BR   UNL     1      -3.311  -2.413  -2.692  0.00  0.00    -0.050 Br
ATOM     17  C   UNL     1      -1.089  -3.571  -1.333  0.00  0.00    +0.016 A 
ATOM     18  C   UNL     1       0.205  -3.578  -0.802  0.00  0.00    +0.013 A 
ENDBRANCH  10  12
ENDBRANCH   2  10
BRANCH   6  19
ATOM     19  C   UNL     1       2.524   2.583   0.297  0.00  0.00    +0.157 C 
BRANCH  19  20
ATOM     20  C   UNL     1       1.242   2.909  -0.450  0.00  0.00    +0.309 C 
ATOM     21  O   UNL     1       0.935   4.073  -0.694  0.00  0.00    -0.251 OA
BRANCH  20  22
ATOM     22  O   UNL     1       0.409   1.913  -0.791  0.00  0.00    -0.480 OA
ATOM     23  H   UNL     1       0.644   1.041  -0.396  0.00  0.00    +0.295 HD
ENDBRANCH  20  22
ENDBRANCH  19  20
ENDBRANCH   6  19
TORSDOF 6
