REMARK  Name = 
REMARK  8 active torsions:
REMARK  status: ('A' for Active; 'I' for Inactive)
REMARK    1  A    between atoms: C_1  and  C_2
REMARK    2  A    between atoms: C_2  and  C_3
REMARK    3  A    between atoms: C_3  and  C_5
REMARK    4  A    between atoms: C_5  and  C_7
REMARK    5  A    between atoms: C_12  and  O_13
REMARK    6  A    between atoms: O_13  and  C_14
REMARK    7  A    between atoms: C_14  and  C_15
REMARK    8  A    between atoms: C_15  and  O_16
REMARK                            x       y       z     vdW  Elec       q    Type
REMARK                         _______ _______ _______ _____ _____    ______ ____
ROOT
ATOM      1  C   UNL     1       4.950  -2.516   1.821  0.00  0.00    +0.042 A 
ATOM      2  C   UNL     1       5.275  -2.440   3.181  0.00  0.00    +0.017 A 
ATOM      3  C   UNL     1       5.568  -3.593   3.908  0.00  0.00    +0.048 A 
ATOM      4  C   UNL     1       5.486  -4.859   3.314  0.00  0.00    +0.141 A 
ATOM      5  C   UNL     1       5.193  -4.952   1.940  0.00  0.00    +0.101 A 
ATOM      6 CL   UNL     1       5.243  -6.486   1.121  0.00  0.00    -0.078 Cl
ATOM      7  C   UNL     1       4.916  -3.778   1.193  0.00  0.00    +0.074 A 
ATOM      8 CL   UNL     1       4.603  -3.906  -0.518  0.00  0.00    -0.081 Cl
ENDROOT
BRANCH   1   9
ATOM      9  C   UNL     1       4.554  -1.269   1.103  0.00  0.00    +0.190 C 
ATOM     10  O   UNL     1       3.588  -1.296   0.347  0.00  0.00    -0.287 OA
BRANCH   9  11
ATOM     11  C   UNL     1       5.250   0.042   1.368  0.00  0.00    -0.007 C 
ATOM     12  C   UNL     1       6.517   0.121   1.814  0.00  0.00    +0.016 C 
BRANCH  11  14
ATOM     13  C   UNL     1       3.162   1.445   1.771  0.00  0.00    +0.009 C 
ATOM     14  C   UNL     1       4.469   1.285   0.999  0.00  0.00    +0.035 C 
ENDBRANCH  11  14
ENDBRANCH   9  11
ENDBRANCH   1   9
BRANCH   4  15
ATOM     15  O   UNL     1       5.778  -5.875   4.198  0.00  0.00    -0.479 OA
BRANCH  15  16
ATOM     16  C   UNL     1       5.010  -7.076   4.080  0.00  0.00    +0.349 C 
BRANCH  16  17
ATOM     17  C   UNL     1       4.800  -7.712   5.449  0.00  0.00    +0.343 C 
ATOM     18  O   UNL     1       4.213  -8.771   5.627  0.00  0.00    -0.247 OA
BRANCH  17  19
ATOM     19  O   UNL     1       5.324  -6.991   6.466  0.00  0.00    -0.478 OA
ATOM     20  H   UNL     1       5.774  -6.193   6.116  0.00  0.00    +0.295 HD
ENDBRANCH  17  19
ENDBRANCH  16  17
ENDBRANCH  15  16
ENDBRANCH   4  15
TORSDOF 7
