REMARK  Name = 
REMARK  12 active torsions:
REMARK  status: ('A' for Active; 'I' for Inactive)
REMARK    1  A    between atoms: C_1  and  C_2
REMARK    2  A    between atoms: C_2  and  C_3
REMARK    3  A    between atoms: C_2  and  N_4
REMARK    4  A    between atoms: N_4  and  C_5
REMARK    5  A    between atoms: N_4  and  C_6
REMARK    6  A    between atoms: N_4  and  C_25
REMARK    7  A    between atoms: C_6  and  C_7
REMARK    8  A    between atoms: C_7  and  O_8
REMARK    9  A    between atoms: O_8  and  C_9
REMARK   10  A    between atoms: C_9  and  C_11
REMARK   11  A    between atoms: C_25  and  C_26
REMARK   12  A    between atoms: C_25  and  C_27
REMARK                            x       y       z     vdW  Elec       q    Type
REMARK                         _______ _______ _______ _____ _____    ______ ____
ROOT
ATOM      1  C   UNL     1      -0.702  -0.715  -5.647  0.00  0.00    +0.164 C 
ATOM      2  C   UNL     1       0.217  -1.306  -6.682  0.00  0.00    +0.013 A 
ATOM      3  C   UNL     1       0.889  -0.473  -7.580  0.00  0.00    +0.133 A 
ATOM      4  C   UNL     1       1.778  -1.015  -8.511  0.00  0.00    +0.046 A 
ATOM      5  C   UNL     1       2.011  -2.391  -8.550  0.00  0.00    +0.004 A 
ATOM      6  C   UNL     1       1.332  -3.231  -7.673  0.00  0.00    +0.001 A 
ATOM      7  O   UNL     1       0.744   0.891  -7.611  0.00  0.00    -0.455 OA
ATOM      8  C   UNL     1      -0.180   1.477  -6.782  0.00  0.00    +0.133 A 
ATOM      9  C   UNL     1      -0.320   2.862  -6.894  0.00  0.00    +0.046 A 
ATOM     10  C   UNL     1      -1.208   3.549  -6.066  0.00  0.00    +0.004 A 
ATOM     11  C   UNL     1      -1.977   2.849  -5.140  0.00  0.00    +0.001 A 
ATOM     12  C   UNL     1      -1.856   1.463  -5.041  0.00  0.00    +0.008 A 
ATOM     13  C   UNL     1       0.433  -2.694  -6.753  0.00  0.00    +0.008 A 
ATOM     14  C   UNL     1      -0.936   0.768  -5.847  0.00  0.00    +0.013 A 
ENDROOT
BRANCH   1  15
ATOM     15  C   UNL     1      -0.163  -1.012  -4.243  0.00  0.00    +0.319 C 
ATOM     16  O   UNL     1      -0.336  -2.069  -3.641  0.00  0.00    -0.250 OA
BRANCH  15  17
ATOM     17  O   UNL     1       0.572   0.021  -3.735  0.00  0.00    -0.459 OA
BRANCH  17  18
ATOM     18  C   UNL     1       0.958  -0.076  -2.357  0.00  0.00    +0.282 C 
BRANCH  18  19
ATOM     19  C   UNL     1       2.486  -0.174  -2.269  0.00  0.00    +0.175 C 
BRANCH  19  20
ATOM     20  N   UNL     1       3.078  -0.416  -0.815  0.00  0.00    +0.247 N 
ATOM     21  C   UNL     1       2.568  -1.792  -0.345  0.00  0.00    +0.193 C 
BRANCH  20  23
ATOM     22  C   UNL     1       2.756   0.467   1.645  0.00  0.00    +0.063 C 
ATOM     23  C   UNL     1       2.515   0.710   0.152  0.00  0.00    +0.060 C 
ATOM     24  C   UNL     1       2.931   2.115  -0.287  0.00  0.00    +0.063 C 
ENDBRANCH  20  23
BRANCH  20  25
ATOM     25  C   UNL     1       4.671  -0.418  -0.973  0.00  0.00    +0.060 C 
ATOM     26  C   UNL     1       5.165  -1.486  -1.964  0.00  0.00    +0.063 C 
ATOM     27  C   UNL     1       5.431  -0.599   0.341  0.00  0.00    +0.063 C 
ENDBRANCH  20  25
ENDBRANCH  19  20
ENDBRANCH  18  19
ENDBRANCH  17  18
ENDBRANCH  15  17
ENDBRANCH   1  15
TORSDOF 7
