REMARK  Name = 
REMARK  23 active torsions:
REMARK  status: ('A' for Active; 'I' for Inactive)
REMARK    1  A    between atoms: C_1  and  C_2
REMARK    2  A    between atoms: C_2  and  C_3
REMARK    3  A    between atoms: C_8  and  C_10
REMARK    4  A    between atoms: C_13  and  C_15
REMARK    5  A    between atoms: C_16  and  O_18
REMARK    6  A    between atoms: O_18  and  C_19
REMARK    7  A    between atoms: C_22  and  C_24
REMARK    8  A    between atoms: C_26  and  N_31
REMARK    9  A    between atoms: C_28  and  O_30
REMARK   10  A    between atoms: N_31  and  C_32
REMARK   11  A    between atoms: N_31  and  C_33
REMARK   12  A    between atoms: C_34  and  C_35
REMARK   13  A    between atoms: C_34  and  O_68
REMARK   14  A    between atoms: C_37  and  C_39
REMARK   15  A    between atoms: C_42  and  C_44
REMARK   16  A    between atoms: N_47  and  C_48
REMARK   17  A    between atoms: C_48  and  C_49
REMARK   18  A    between atoms: C_49  and  C_50
REMARK   19  A    between atoms: C_50  and  C_51
REMARK   20  A    between atoms: C_51  and  N_52
REMARK   21  A    between atoms: C_55  and  C_57
REMARK   22  A    between atoms: C_66  and  C_67
REMARK   23  A    between atoms: O_68  and  C_69
REMARK                            x       y       z     vdW  Elec       q    Type
REMARK                         _______ _______ _______ _____ _____    ______ ____
ROOT
ATOM      1  C   UNL     1       5.348   7.300  -1.411  0.00  0.00    +0.221 C 
ATOM      2  C   UNL     1       6.720   6.572  -0.988  0.00  0.00    +0.168 C 
ATOM      3  C   UNL     1       6.513   5.725   0.333  0.00  0.00    +0.062 C 
ATOM      4  C   UNL     1       7.915   5.920  -2.051  0.00  0.00    +0.136 C 
ATOM      5  N   UNL     1       9.043   6.816  -1.676  0.00  0.00    -0.260 N 
ATOM      6  C   UNL     1       8.796   7.233  -0.372  0.00  0.00    +0.404 C 
ATOM      7  O   UNL     1       9.623   7.544   0.456  0.00  0.00    -0.226 OA
ATOM      8  C   UNL     1       8.048   5.467  -3.691  0.00  0.00    +0.077 C 
ATOM      9  C   UNL     1       9.531   5.634  -4.230  0.00  0.00    +0.017 C 
ATOM     10  C   UNL     1       7.835   3.992  -4.334  0.00  0.00    +0.141 C 
ATOM     11  O   UNL     1       8.420   3.607  -5.347  0.00  0.00    -0.297 OA
ATOM     12  C   UNL     1       6.844   3.054  -3.713  0.00  0.00    +0.055 C 
ATOM     13  C   UNL     1       7.477   2.618  -2.400  0.00  0.00    +0.015 C 
ATOM     14  C   UNL     1       6.391   1.822  -4.632  0.00  0.00    +0.048 C 
ATOM     15  C   UNL     1       4.810   1.588  -4.828  0.00  0.00    +0.094 C 
ATOM     16  C   UNL     1       4.450   1.988  -6.272  0.00  0.00    +0.044 C 
ATOM     17  C   UNL     1       4.060   2.394  -3.706  0.00  0.00    +0.163 C 
ATOM     18  C   UNL     1       2.536   2.660  -3.674  0.00  0.00    +0.085 C 
ATOM     19  C   UNL     1       1.692   1.690  -2.868  0.00  0.00    +0.018 C 
ATOM     20  C   UNL     1       2.253   4.204  -3.392  0.00  0.00    +0.152 C 
ATOM     21  O   UNL     1       1.810   4.883  -4.327  0.00  0.00    -0.296 OA
ATOM     22  C   UNL     1       2.485   4.874  -2.019  0.00  0.00    +0.161 C 
ATOM     23  C   UNL     1       3.429   4.098  -1.124  0.00  0.00    +0.027 C 
ATOM     24  C   UNL     1       3.068   6.318  -2.047  0.00  0.00    +0.318 C 
ATOM     25  O   UNL     1       2.444   7.349  -2.235  0.00  0.00    -0.250 OA
ATOM     26  O   UNL     1       7.494   7.618  -0.338  0.00  0.00    -0.438 OA
ATOM     27  O   UNL     1       4.401   6.252  -1.736  0.00  0.00    -0.457 OA
ENDROOT
BRANCH   1  29
ATOM     28  C   UNL     1       4.214   7.965   0.998  0.00  0.00    +0.007 C 
ATOM     29  C   UNL     1       4.768   8.368  -0.377  0.00  0.00    +0.045 C 
ENDBRANCH   1  29
BRANCH  15  30
ATOM     30  O   UNL     1       4.314   0.257  -4.665  0.00  0.00    -0.374 OA
ATOM     31  C   UNL     1       4.925  -0.855  -5.299  0.00  0.00    +0.194 C 
ENDBRANCH  15  30
BRANCH   5  32
ATOM     32  C   UNL     1       9.373   7.944  -2.548  0.00  0.00    +0.111 C 
BRANCH  32  33
ATOM     33  C   UNL     1       9.316   9.313  -1.916  0.00  0.00    +0.021 C 
BRANCH  33  34
ATOM     34  C   UNL     1       9.578  10.419  -2.900  0.00  0.00    +0.023 C 
BRANCH  34  35
ATOM     35  C   UNL     1       9.533  11.680  -2.061  0.00  0.00    +0.123 C 
BRANCH  35  36
ATOM     36  N   UNL     1       9.629  12.843  -2.864  0.00  0.00    -0.336 N 
ATOM     37  C   UNL     1       8.584  13.517  -3.406  0.00  0.00    +0.115 A 
ATOM     38  C   UNL     1       9.158  14.596  -4.033  0.00  0.00    +0.090 A 
ATOM     39  N   UNL     1      10.539  14.546  -3.932  0.00  0.00    -0.236 NA
ATOM     40  C   UNL     1      10.791  13.471  -3.232  0.00  0.00    +0.199 A 
BRANCH  38  41
ATOM     41  C   UNL     1       8.450  15.670  -4.671  0.00  0.00    +0.020 A 
ATOM     42  C   UNL     1       7.057  15.717  -4.741  0.00  0.00    +0.120 A 
ATOM     43  N   UNL     1       6.353  16.734  -5.294  0.00  0.00    -0.263 NA
ATOM     44  C   UNL     1       7.080  17.756  -5.792  0.00  0.00    +0.111 A 
ATOM     45  C   UNL     1       8.465  17.810  -5.773  0.00  0.00    +0.020 A 
ATOM     46  C   UNL     1       9.157  16.747  -5.203  0.00  0.00    +0.013 A 
ENDBRANCH  38  41
ENDBRANCH  35  36
ENDBRANCH  34  35
ENDBRANCH  33  34
ENDBRANCH  32  33
ENDBRANCH   5  32
BRANCH  17  47
ATOM     47  O   UNL     1       4.693   2.198  -2.429  0.00  0.00    -0.342 OA
BRANCH  47  48
ATOM     48  C   UNL     1       4.646   1.140  -1.462  0.00  0.00    +0.281 C 
ATOM     49  C   UNL     1       5.137  -0.224  -1.977  0.00  0.00    +0.187 C 
ATOM     50  C   UNL     1       5.920  -1.134  -1.009  0.00  0.00    +0.092 C 
ATOM     51  C   UNL     1       6.514  -0.425   0.200  0.00  0.00    +0.053 C 
ATOM     52  C   UNL     1       5.591   0.673   0.698  0.00  0.00    +0.120 C 
ATOM     53  C   UNL     1       6.229   1.311   1.933  0.00  0.00    +0.038 C 
ATOM     54  O   UNL     1       5.428   1.631  -0.344  0.00  0.00    -0.346 OA
BRANCH  50  55
ATOM     55  N   UNL     1       6.878  -2.008  -1.752  0.00  0.00    -0.303 NA
ATOM     56  C   UNL     1       7.340  -3.133  -0.952  0.00  0.00    +0.105 C 
ATOM     57  C   UNL     1       8.014  -1.320  -2.367  0.00  0.00    +0.105 C 
ENDBRANCH  50  55
BRANCH  49  58
ATOM     58  O   UNL     1       4.034  -1.028  -2.445  0.00  0.00    -0.385 OA
ATOM     59  H   UNL     1       3.200  -0.662  -2.121  0.00  0.00    +0.210 HD
ENDBRANCH  49  58
ENDBRANCH  47  48
ENDBRANCH  17  47
TORSDOF 12
