REMARK  Name = 
REMARK  5 active torsions:
REMARK  status: ('A' for Active; 'I' for Inactive)
REMARK    1  A    between atoms: C_11  and  C_12
REMARK    2  A    between atoms: C_20  and  C_31
REMARK    3  A    between atoms: C_29  and  C_30
REMARK    4  A    between atoms: C_31  and  O_33
REMARK    5  A    between atoms: O_33  and  C_34
REMARK                            x       y       z     vdW  Elec       q    Type
REMARK                         _______ _______ _______ _____ _____    ______ ____
ROOT
ATOM      1  C   UNL     1      -0.000  -0.000  -0.000  0.00  0.00    +0.006 C 
ATOM      2  C   UNL     1      -0.000  -0.000   0.000  0.00  0.00    +0.042 C 
ATOM      3  C   UNL     1      -0.000  -0.000   0.000  0.00  0.00    +0.108 C 
ATOM      4  C   UNL     1      -0.000  -0.000  -0.000  0.00  0.00    +0.046 C 
ATOM      5  C   UNL     1       0.000  -0.000  -0.000  0.00  0.00    -0.057 C 
ATOM      6  C   UNL     1      -0.000  -0.000  -0.000  0.00  0.00    +0.021 C 
ATOM      7  C   UNL     1      -0.000  -0.000   0.000  0.00  0.00    +0.019 C 
ATOM      8  C   UNL     1      -0.000  -0.000   0.000  0.00  0.00    +0.022 C 
ATOM      9  C   UNL     1      -0.000  -0.000  -0.000  0.00  0.00    +0.080 C 
ATOM     10  C   UNL     1      -0.000  -0.000   0.000  0.00  0.00    +0.156 C 
ATOM     11  O   UNL     1      -0.000  -0.000  -0.000  0.00  0.00    -0.293 OA
ATOM     12  C   UNL     1      -0.000  -0.000  -0.000  0.00  0.00    +0.046 C 
ATOM     13  C   UNL     1      -0.000  -0.000  -0.000  0.00  0.00    +0.109 C 
ATOM     14  C   UNL     1      -0.000  -0.000  -0.000  0.00  0.00    +0.153 C 
ATOM     15  C   UNL     1      -0.000  -0.000   0.000  0.00  0.00    +0.045 C 
ATOM     16  O   UNL     1      -0.000  -0.000   0.000  0.00  0.00    -0.364 OA
ATOM     17  C   UNL     1      -0.000  -0.000  -0.000  0.00  0.00    +0.013 C 
ATOM     18  C   UNL     1      -0.000  -0.000   0.000  0.00  0.00    +0.015 C 
ATOM     19  C   UNL     1      -0.000  -0.000   0.000  0.00  0.00    +0.120 C 
ATOM     20  O   UNL     1      -0.000  -0.000  -0.000  0.00  0.00    -0.457 OA
ATOM     21  C   UNL     1      -0.000  -0.000   0.000  0.00  0.00    +0.308 C 
ATOM     22  O   UNL     1      -0.000  -0.000   0.000  0.00  0.00    -0.251 OA
ATOM     23  C   UNL     1      -0.000  -0.000  -0.000  0.00  0.00    +0.124 C 
ATOM     24  C   UNL     1      -0.000  -0.000  -0.000  0.00  0.00    +0.060 C 
ATOM     25  C   UNL     1      -0.000  -0.000   0.000  0.00  0.00    +0.049 C 
ATOM     26  C   UNL     1      -0.000  -0.000   0.000  0.00  0.00    +0.008 C 
ENDROOT
BRANCH   3  27
ATOM     27  C   UNL     1      -0.000  -0.000   0.000  0.00  0.00    +0.311 C 
ATOM     28  O   UNL     1      -0.000  -0.000  -0.000  0.00  0.00    -0.251 OA
BRANCH  27  29
ATOM     29  O   UNL     1      -0.000  -0.000   0.000  0.00  0.00    -0.468 OA
ATOM     30  C   UNL     1      -0.000  -0.000   0.000  0.00  0.00    +0.280 C 
ENDBRANCH  27  29
ENDBRANCH   3  27
TORSDOF 2
