REMARK  Name = 
REMARK  6 active torsions:
REMARK  status: ('A' for Active; 'I' for Inactive)
REMARK    1  A    between atoms: C_2  and  C_14
REMARK    2  A    between atoms: C_10  and  C_12
REMARK    3  A    between atoms: C_14  and  O_16
REMARK    4  A    between atoms: C_14  and  C_17
REMARK    5  A    between atoms: C_24  and  O_25
REMARK    6  A    between atoms: O_25  and  C_26
REMARK                            x       y       z     vdW  Elec       q    Type
REMARK                         _______ _______ _______ _____ _____    ______ ____
ROOT
ATOM      1  C   UNL     1       0.516   0.052  -0.024  0.00  0.00    +0.162 C 
ENDROOT
BRANCH   1   2
ATOM      2  C   UNL     1       0.025   0.340   1.393  0.00  0.00    -0.007 A 
ATOM      3  C   UNL     1      -0.145  -0.672   2.377  0.00  0.00    +0.010 A 
ATOM      4  C   UNL     1      -0.557  -0.259   3.668  0.00  0.00    +0.072 A 
ATOM      5  C   UNL     1      -0.747  -1.213   4.655  0.00  0.00    +0.032 A 
ATOM      6  C   UNL     1      -0.558  -2.575   4.420  0.00  0.00    +0.048 A 
ATOM      7  C   UNL     1      -0.153  -3.005   3.165  0.00  0.00    +0.121 A 
ATOM      8  N   UNL     1      -0.782   1.020   4.000  0.00  0.00    -0.255 NA
ATOM      9  C   UNL     1      -0.633   1.955   3.047  0.00  0.00    +0.112 A 
ATOM     10  C   UNL     1       0.060  -2.058   2.158  0.00  0.00    +0.056 A 
ATOM     11  C   UNL     1      -0.244   1.670   1.756  0.00  0.00    +0.026 A 
BRANCH   7  12
ATOM     12  O   UNL     1       0.064  -4.303   2.792  0.00  0.00    -0.495 OA
ATOM     13  C   UNL     1      -0.186  -5.303   3.773  0.00  0.00    +0.277 C 
ENDBRANCH   7  12
ENDBRANCH   1   2
BRANCH   1  14
ATOM     14  C   UNL     1       2.089   0.029  -0.105  0.00  0.00    +0.090 C 
ATOM     15  N   UNL     1       2.655  -0.560  -1.367  0.00  0.00    -0.296 NA
ATOM     16  C   UNL     1       4.103  -0.829  -1.122  0.00  0.00    +0.092 C 
ATOM     17  C   UNL     1       4.892   0.478  -0.830  0.00  0.00    +0.028 C 
ATOM     18  C   UNL     1       3.890   1.660  -0.812  0.00  0.00    -0.000 C 
ATOM     19  C   UNL     1       3.222   1.726  -2.198  0.00  0.00    +0.019 C 
ATOM     20  C   UNL     1       2.580   0.366  -2.517  0.00  0.00    +0.085 C 
ATOM     21  C   UNL     1       2.755   1.395   0.194  0.00  0.00    +0.026 C 
BRANCH  17  22
ATOM     22  C   UNL     1       5.696   0.377   0.444  0.00  0.00    -0.030 C 
ATOM     23  C   UNL     1       7.023   0.535   0.510  0.00  0.00    +0.004 C 
ENDBRANCH  17  22
ENDBRANCH   1  14
BRANCH   1  24
ATOM     24  O   UNL     1      -0.102   1.010  -0.893  0.00  0.00    -0.386 OA
ATOM     25  H   UNL     1       0.589   1.422  -1.427  0.00  0.00    +0.210 HD
ENDBRANCH   1  24
TORSDOF 5
