REMARK  Name = 
REMARK  5 active torsions:
REMARK  status: ('A' for Active; 'I' for Inactive)
REMARK    1  A    between atoms: O5*_1  and  C5*_2
REMARK    2  A    between atoms: C5*_2  and  C4*_3
REMARK    3  A    between atoms: C1*_6  and  N_12
REMARK    4  A    between atoms: C3*_9  and  O3*_11
REMARK    5  A    between atoms: C_21  and  O_23
REMARK                            x       y       z     vdW  Elec       q    Type
REMARK                         _______ _______ _______ _____ _____    ______ ____
ROOT
ATOM      1  N   UNL     1       4.471   3.684  -2.400  0.00  0.00    -0.288 N 
ATOM      2  C   UNL     1       4.804   4.384  -3.538  0.00  0.00    +0.162 A 
ATOM      3  N   UNL     1       4.224   4.106  -4.731  0.00  0.00    -0.221 NA
ATOM      4  C   UNL     1       5.019   4.009  -5.737  0.00  0.00    +0.184 C 
ATOM      5  N   UNL     1       6.383   4.128  -5.839  0.00  0.00    -0.332 N 
ATOM      6  H   UNL     1       6.733   3.825  -6.744  0.00  0.00    +0.147 HD
ATOM      7  C   UNL     1       7.105   5.326  -5.389  0.00  0.00    +0.140 C 
ATOM      8  C   UNL     1       6.745   5.984  -4.029  0.00  0.00    +0.183 C 
ATOM      9  C   UNL     1       5.861   5.181  -3.144  0.00  0.00    +0.115 A 
ATOM     10  N   UNL     1       6.060   5.095  -1.778  0.00  0.00    -0.236 NA
ATOM     11  C   UNL     1       5.185   4.203  -1.360  0.00  0.00    +0.203 A 
ENDROOT
BRANCH   1  15
ATOM     12  C4* UNL     1       3.290   0.487  -1.331  0.00  0.00    +0.175 C 
ATOM     13  C3* UNL     1       4.482   0.080  -2.196  0.00  0.00    +0.150 C 
ATOM     14  C2* UNL     1       4.784   1.324  -3.002  0.00  0.00    +0.088 C 
ATOM     15  C1* UNL     1       3.826   2.385  -2.459  0.00  0.00    +0.225 C 
ATOM     16  O4* UNL     1       3.407   1.919  -1.166  0.00  0.00    -0.348 OA
BRANCH  13  17
ATOM     17  O3* UNL     1       4.171  -1.009  -3.054  0.00  0.00    -0.389 OA
ATOM     18  H3* UNL     1       4.971  -1.187  -3.583  0.00  0.00    +0.210 HD
ENDBRANCH  13  17
BRANCH  12  19
ATOM     19  C5* UNL     1       3.225  -0.236   0.008  0.00  0.00    +0.190 C 
BRANCH  19  20
ATOM     20  O5* UNL     1       4.437  -0.083   0.743  0.00  0.00    -0.392 OA
ATOM     21  H5* UNL     1       4.285  -0.476   1.619  0.00  0.00    +0.210 HD
ENDBRANCH  19  20
ENDBRANCH  12  19
ENDBRANCH   1  15
BRANCH   8  22
ATOM     22  O   UNL     1       6.197   7.292  -4.276  0.00  0.00    -0.384 OA
ATOM     23  H   UNL     1       6.939   7.860  -4.538  0.00  0.00    +0.210 HD
ENDBRANCH   8  22
TORSDOF 5
