REMARK  Name = 
REMARK  25 active torsions:
REMARK  status: ('A' for Active; 'I' for Inactive)
REMARK    1  A    between atoms: C_1  and  C_2
REMARK    2  A    between atoms: C_2  and  C_3
REMARK    3  A    between atoms: C_8  and  C_10
REMARK    4  A    between atoms: C_11  and  O_13
REMARK    5  A    between atoms: O_13  and  C_14
REMARK    6  A    between atoms: C_17  and  C_18
REMARK    7  A    between atoms: C_17  and  O_19
REMARK    8  A    between atoms: O_19  and  C_20
REMARK    9  A    between atoms: C_21  and  O_23
REMARK   10  A    between atoms: C_24  and  C_26
REMARK   11  A    between atoms: C_28  and  C_30
REMARK   12  A    between atoms: C_31  and  O_33
REMARK   13  A    between atoms: O_33  and  C_34
REMARK   14  A    between atoms: C_37  and  C_39
REMARK   15  A    between atoms: C_41  and  N_46
REMARK   16  A    between atoms: C_43  and  O_45
REMARK   17  A    between atoms: N_46  and  C_47
REMARK   18  A    between atoms: N_46  and  C_48
REMARK   19  A    between atoms: C_49  and  C_50
REMARK   20  A    between atoms: C_49  and  O_51
REMARK   21  A    between atoms: C_53  and  C_55
REMARK   22  A    between atoms: C_58  and  C_60
REMARK   23  A    between atoms: C_61  and  O_63
REMARK   24  A    between atoms: C_64  and  C_65
REMARK   25  A    between atoms: C_64  and  O_66
REMARK                            x       y       z     vdW  Elec       q    Type
REMARK                         _______ _______ _______ _____ _____    ______ ____
ROOT
ATOM      1  C   UNL     1      -2.755  -9.315   4.314  0.00  0.00    +0.210 C 
ATOM      2  C   UNL     1      -2.305  -8.775   5.844  0.00  0.00    +0.126 C 
ATOM      3  C   UNL     1      -1.575  -9.999   6.474  0.00  0.00    +0.048 C 
ATOM      4  C   UNL     1      -3.408  -8.194   6.919  0.00  0.00    +0.159 C 
ATOM      5  C   UNL     1      -3.304  -6.638   7.619  0.00  0.00    +0.084 C 
ATOM      6  C   UNL     1      -2.167  -6.703   8.634  0.00  0.00    +0.018 C 
ATOM      7  C   UNL     1      -3.294  -5.053   6.939  0.00  0.00    +0.142 C 
ATOM      8  O   UNL     1      -4.351  -4.452   6.748  0.00  0.00    -0.297 OA
ATOM      9  C   UNL     1      -1.849  -4.290   6.673  0.00  0.00    +0.055 C 
ATOM     10  C   UNL     1      -1.837  -3.316   7.888  0.00  0.00    +0.015 C 
ATOM     11  C   UNL     1      -1.476  -3.345   5.403  0.00  0.00    +0.048 C 
ATOM     12  C   UNL     1       0.047  -3.381   4.597  0.00  0.00    +0.090 C 
ATOM     13  C   UNL     1       0.575  -1.915   4.703  0.00  0.00    +0.044 C 
ATOM     14  C   UNL     1       0.042  -3.614   2.972  0.00  0.00    +0.158 C 
ATOM     15  C   UNL     1       0.997  -4.645   1.789  0.00  0.00    +0.047 C 
ATOM     16  C   UNL     1       2.503  -4.557   2.072  0.00  0.00    +0.013 C 
ATOM     17  C   UNL     1       0.470  -6.242   0.962  0.00  0.00    +0.140 C 
ATOM     18  C   UNL     1       0.519  -7.587   2.229  0.00  0.00    +0.124 C 
ATOM     19  C   UNL     1       0.928  -7.046   3.637  0.00  0.00    +0.022 C 
ATOM     20  C   UNL     1      -0.200  -9.120   2.531  0.00  0.00    +0.313 C 
ATOM     21  O   UNL     1       0.417 -10.090   2.057  0.00  0.00    -0.250 OA
ATOM     22  O   UNL     1      -1.306  -9.453   3.345  0.00  0.00    -0.458 OA
ENDROOT
BRANCH   1  24
ATOM     23  C   UNL     1      -5.217  -7.857   2.755  0.00  0.00    +0.007 C 
ATOM     24  C   UNL     1      -4.402  -9.121   3.460  0.00  0.00    +0.044 C 
ENDBRANCH   1  24
BRANCH   2  25
ATOM     25  O   UNL     1      -1.177  -7.876   5.842  0.00  0.00    -0.383 OA
ATOM     26  H   UNL     1      -1.278  -7.150   5.210  0.00  0.00    +0.210 HD
ENDBRANCH   2  25
BRANCH   4  27
ATOM     27  O   UNL     1      -4.744  -8.600   6.564  0.00  0.00    -0.388 OA
ATOM     28  H   UNL     1      -5.313  -7.823   6.426  0.00  0.00    +0.210 HD
ENDBRANCH   4  27
BRANCH  12  29
ATOM     29  O   UNL     1       0.957  -4.253   5.252  0.00  0.00    -0.386 OA
ATOM     30  H   UNL     1       1.847  -4.019   4.915  0.00  0.00    +0.210 HD
ENDBRANCH  12  29
BRANCH  14  31
ATOM     31  O   UNL     1      -1.339  -3.326   2.751  0.00  0.00    -0.342 OA
BRANCH  31  32
ATOM     32  C   UNL     1      -2.149  -4.482   2.761  0.00  0.00    +0.281 C 
ATOM     33  C   UNL     1      -1.579  -5.432   1.738  0.00  0.00    +0.187 C 
ATOM     34  C   UNL     1      -2.233  -6.971   1.394  0.00  0.00    +0.092 C 
ATOM     35  C   UNL     1      -2.395  -7.260   2.834  0.00  0.00    +0.053 C 
ATOM     36  C   UNL     1      -3.165  -6.179   3.557  0.00  0.00    +0.120 C 
ATOM     37  C   UNL     1      -3.798  -6.510   4.790  0.00  0.00    +0.038 C 
ATOM     38  O   UNL     1      -2.205  -5.235   3.923  0.00  0.00    -0.346 OA
BRANCH  34  39
ATOM     39  N   UNL     1      -1.752  -8.330   0.557  0.00  0.00    -0.303 NA
ATOM     40  C   UNL     1      -1.652  -8.360  -0.943  0.00  0.00    +0.105 C 
ATOM     41  C   UNL     1      -2.628  -9.543   0.718  0.00  0.00    +0.105 C 
ENDBRANCH  34  39
BRANCH  33  42
ATOM     42  O   UNL     1      -1.114  -4.430   0.849  0.00  0.00    -0.385 OA
ATOM     43  H   UNL     1      -0.642  -4.720   0.042  0.00  0.00    +0.210 HD
ENDBRANCH  33  42
ENDBRANCH  31  32
ENDBRANCH  14  31
BRANCH  17  44
ATOM     44  O   UNL     1      -0.612  -6.030  -0.445  0.00  0.00    -0.347 OA
BRANCH  44  45
ATOM     45  C   UNL     1      -2.290  -5.586  -0.786  0.00  0.00    +0.254 C 
ATOM     46  O   UNL     1      -2.656  -5.641  -2.189  0.00  0.00    -0.346 OA
ATOM     47  C   UNL     1      -3.398  -4.533  -2.775  0.00  0.00    +0.149 C 
ATOM     48  C   UNL     1      -4.769  -4.984  -3.297  0.00  0.00    +0.041 C 
ATOM     49  C   UNL     1      -3.593  -3.156  -2.010  0.00  0.00    +0.175 C 
ATOM     50  C   UNL     1      -2.600  -3.093  -0.891  0.00  0.00    +0.099 C 
ATOM     51  C   UNL     1      -2.547  -1.879   0.063  0.00  0.00    +0.044 C 
ATOM     52  C   UNL     1      -3.076  -4.358  -0.178  0.00  0.00    +0.098 C 
BRANCH  49  53
ATOM     53  O   UNL     1      -3.517  -2.069  -2.929  0.00  0.00    -0.386 OA
ATOM     54  H   UNL     1      -2.858  -1.446  -2.580  0.00  0.00    +0.210 HD
ENDBRANCH  49  53
BRANCH  50  55
ATOM     55  O   UNL     1      -1.267  -3.370  -1.281  0.00  0.00    -0.374 OA
ATOM     56  C   UNL     1      -0.591  -2.577  -2.200  0.00  0.00    +0.194 C 
ENDBRANCH  50  55
ENDBRANCH  44  45
ENDBRANCH  17  44
TORSDOF 12
