REMARK  Name = 
REMARK  25 active torsions:
REMARK  status: ('A' for Active; 'I' for Inactive)
REMARK    1  A    between atoms: C_9  and  C_98
REMARK    2  A    between atoms: C_14  and  N_16
REMARK    3  A    between atoms: C_17  and  C_19
REMARK    4  A    between atoms: C_26  and  C_27
REMARK    5  A    between atoms: C_30  and  C_31
REMARK    6  A    between atoms: C_34  and  N_35
REMARK    7  A    between atoms: C_36  and  C_37
REMARK    8  A    between atoms: N_39  and  C_40
REMARK    9  A    between atoms: C_42  and  C_44
REMARK   10  A    between atoms: C_48  and  C_50
REMARK   11  A    between atoms: C_50  and  C_51
REMARK   12  A    between atoms: C_50  and  C_52
REMARK   13  A    between atoms: N_53  and  C_54
REMARK   14  A    between atoms: N_58  and  C_59
REMARK   15  A    between atoms: C_70  and  C_75
REMARK   16  A    between atoms: C_75  and  C_76
REMARK   17  A    between atoms: C_75  and  C_77
REMARK   18  A    between atoms: C_78  and  C_80
REMARK   19  A    between atoms: C_84  and  C_86
REMARK   20  A    between atoms: C_86  and  C_87
REMARK   21  A    between atoms: C_86  and  C_88
REMARK   22  A    between atoms: N_89  and  C_90
REMARK   23  A    between atoms: N_94  and  C_95
REMARK   24  A    between atoms: C_98  and  C_99
REMARK   25  A    between atoms: C_98  and  C_100
REMARK                            x       y       z     vdW  Elec       q    Type
REMARK                         _______ _______ _______ _____ _____    ______ ____
ROOT
ATOM      1  C   UNL     1       9.198  -0.089  -3.405  0.00  0.00    +0.066 A 
ATOM      2  C   UNL     1       9.441  -1.412  -3.854  0.00  0.00    +0.015 A 
ATOM      3  C   UNL     1      10.254  -1.692  -4.932  0.00  0.00    +0.008 A 
ATOM      4  C   UNL     1      10.873  -0.666  -5.612  0.00  0.00    -0.006 A 
ATOM      5  C   UNL     1      11.631  -0.993  -6.864  0.00  0.00    +0.047 C 
ATOM      6  C   UNL     1      10.726   0.671  -5.109  0.00  0.00    +0.157 A 
ATOM      7  O   UNL     1      11.459   1.613  -5.799  0.00  0.00    -0.451 OA
ATOM      8  C   UNL     1      11.244   2.946  -5.505  0.00  0.00    +0.161 A 
ATOM      9  C   UNL     1      11.612   3.879  -6.395  0.00  0.00    +0.042 A 
ATOM     10  C   UNL     1      11.295   5.293  -6.129  0.00  0.00    +0.207 A 
ATOM     11  C   UNL     1      10.858   5.711  -4.756  0.00  0.00    +0.087 A 
ATOM     12  C   UNL     1      10.730   4.790  -3.815  0.00  0.00    +0.090 A 
ATOM     13  O   UNL     1      11.368   6.122  -7.011  0.00  0.00    -0.286 OA
ATOM     14  C   UNL     1      12.299   3.623  -7.700  0.00  0.00    +0.052 C 
ATOM     15  C   UNL     1      10.556   3.285  -4.207  0.00  0.00    +0.121 A 
ATOM     16  N   UNL     1       9.893   2.367  -3.528  0.00  0.00    -0.239 NA
ATOM     17  C   UNL     1       9.909   1.001  -4.000  0.00  0.00    +0.119 A 
ENDROOT
BRANCH   1  20
ATOM     18  N   UNL     1       7.640   1.041  -1.837  0.00  0.00    -0.297 N 
ATOM     19  H   UNL     1       8.149   1.895  -2.078  0.00  0.00    +0.150 HD
ATOM     20  C   UNL     1       8.107  -0.110  -2.361  0.00  0.00    +0.247 C 
ATOM     21  O   UNL     1       7.605  -1.172  -1.995  0.00  0.00    -0.270 OA
BRANCH  18  38
ATOM     22  C   UNL     1       9.341  -1.121   4.399  0.00  0.00    +0.162 C 
ATOM     23  C   UNL     1       9.520   0.619   4.877  0.00  0.00    +0.236 C 
ATOM     24  O   UNL     1       8.864   1.032   5.843  0.00  0.00    -0.274 OA
ATOM     25  N   UNL     1      10.176   1.623   4.011  0.00  0.00    -0.294 N 
ATOM     26  C   UNL     1      11.467   1.336   3.407  0.00  0.00    +0.132 C 
ATOM     27  C   UNL     1       9.800   3.171   4.000  0.00  0.00    +0.203 C 
ATOM     28  C   UNL     1       9.999   4.404   2.642  0.00  0.00    +0.233 C 
ATOM     29  O   UNL     1      11.187   4.523   2.309  0.00  0.00    -0.274 OA
ATOM     30  N   UNL     1       8.899   5.098   1.803  0.00  0.00    -0.290 N 
ATOM     31  C   UNL     1       8.449   6.596   1.607  0.00  0.00    +0.133 C 
ATOM     32  C   UNL     1       8.536   4.437   0.557  0.00  0.00    +0.187 C 
ATOM     33  C   UNL     1       7.055   4.534   0.002  0.00  0.00    +0.328 C 
ATOM     34  O   UNL     1       6.206   5.308   0.394  0.00  0.00    -0.249 OA
ATOM     35  O   UNL     1       6.900   3.669  -1.072  0.00  0.00    -0.458 OA
ATOM     36  C   UNL     1       5.838   2.600  -1.125  0.00  0.00    +0.203 C 
ATOM     37  C   UNL     1       4.605   3.149  -0.427  0.00  0.00    +0.054 C 
ATOM     38  C   UNL     1       6.516   1.133  -0.842  0.00  0.00    +0.200 C 
ATOM     39  C   UNL     1       5.775  -0.165   0.042  0.00  0.00    +0.238 C 
ATOM     40  O   UNL     1       4.619  -0.021   0.444  0.00  0.00    -0.274 OA
ATOM     41  N   UNL     1       6.581  -1.256   0.515  0.00  0.00    -0.302 N 
ATOM     42  H   UNL     1       7.300  -1.497  -0.171  0.00  0.00    +0.150 HD
ATOM     43  C   UNL     1       6.383  -2.469   1.652  0.00  0.00    +0.162 C 
ATOM     44  C   UNL     1       7.564  -2.718   2.977  0.00  0.00    +0.237 C 
ATOM     45  O   UNL     1       8.186  -3.788   3.039  0.00  0.00    -0.274 OA
ATOM     46  N   UNL     1       7.880  -1.575   3.885  0.00  0.00    -0.288 N 
ATOM     47  C   UNL     1       7.575  -0.445   3.158  0.00  0.00    +0.109 C 
ATOM     48  C   UNL     1       8.878  -0.452   2.279  0.00  0.00    +0.021 C 
ATOM     49  C   UNL     1       9.978  -1.235   3.059  0.00  0.00    +0.033 C 
BRANCH  32  50
ATOM     50  C   UNL     1       8.820   2.968   0.677  0.00  0.00    +0.014 C 
ATOM     51  C   UNL     1      10.284   2.565   0.630  0.00  0.00    +0.009 C 
ATOM     52  C   UNL     1       7.816   2.495   1.783  0.00  0.00    +0.009 C 
ENDBRANCH  32  50
BRANCH  43  53
ATOM     53  C   UNL     1       4.870  -2.730   2.023  0.00  0.00    +0.012 C 
ATOM     54  C   UNL     1       4.458  -4.202   2.277  0.00  0.00    +0.009 C 
ATOM     55  C   UNL     1       4.354  -1.921   3.211  0.00  0.00    +0.009 C 
ENDBRANCH  43  53
ENDBRANCH  18  38
ENDBRANCH   1  20
BRANCH  12  56
ATOM     56  C   UNL     1      10.679   5.230  -2.353  0.00  0.00    +0.249 C 
ATOM     57  N   UNL     1      11.170   6.496  -2.030  0.00  0.00    -0.297 N 
ATOM     58  H   UNL     1      11.735   6.928  -2.759  0.00  0.00    +0.150 HD
ATOM     59  O   UNL     1      10.283   4.406  -1.556  0.00  0.00    -0.270 OA
BRANCH  57  60
ATOM     60  C   UNL     1      11.151   7.374  -0.767  0.00  0.00    +0.200 C 
ATOM     61  C   UNL     1      11.758   8.861  -1.216  0.00  0.00    +0.238 C 
ATOM     62  O   UNL     1      12.441   8.949  -2.231  0.00  0.00    -0.274 OA
ATOM     63  N   UNL     1      11.443   9.964  -0.417  0.00  0.00    -0.302 N 
ATOM     64  H   UNL     1      10.461   9.883  -0.186  0.00  0.00    +0.150 HD
ATOM     65  C   UNL     1      11.862  11.512  -0.456  0.00  0.00    +0.162 C 
ATOM     66  C   UNL     1      11.133  12.581   0.754  0.00  0.00    +0.237 C 
ATOM     67  O   UNL     1      10.174  13.294   0.441  0.00  0.00    -0.274 OA
ATOM     68  N   UNL     1      11.559  12.432   2.142  0.00  0.00    -0.288 N 
ATOM     69  C   UNL     1      10.608  12.502   3.350  0.00  0.00    +0.162 C 
ATOM     70  C   UNL     1       9.948  11.166   3.135  0.00  0.00    +0.033 C 
ATOM     71  C   UNL     1      10.905  10.380   2.282  0.00  0.00    +0.021 C 
ATOM     72  C   UNL     1      11.356  12.323   4.857  0.00  0.00    +0.236 C 
ATOM     73  O   UNL     1      12.431  12.885   5.094  0.00  0.00    -0.274 OA
ATOM     74  N   UNL     1      10.875  11.346   5.791  0.00  0.00    -0.294 N 
ATOM     75  C   UNL     1       9.481  11.366   6.249  0.00  0.00    +0.132 C 
ATOM     76  C   UNL     1      11.604  10.017   5.947  0.00  0.00    +0.203 C 
ATOM     77  C   UNL     1      10.912   8.793   5.256  0.00  0.00    +0.233 C 
ATOM     78  O   UNL     1       9.841   8.937   4.666  0.00  0.00    -0.274 OA
ATOM     79  N   UNL     1      11.409   7.505   5.288  0.00  0.00    -0.290 N 
ATOM     80  C   UNL     1      12.761   7.211   5.752  0.00  0.00    +0.133 C 
ATOM     81  C   UNL     1      10.770   6.516   4.331  0.00  0.00    +0.187 C 
ATOM     82  C   UNL     1      11.796   6.730   2.958  0.00  0.00    +0.328 C 
ATOM     83  O   UNL     1      13.018   6.571   3.065  0.00  0.00    -0.249 OA
ATOM     84  O   UNL     1      11.257   7.086   1.746  0.00  0.00    -0.458 OA
ATOM     85  C   UNL     1      12.170  11.179   2.329  0.00  0.00    +0.109 C 
ATOM     86  C   UNL     1      11.887   6.690   0.440  0.00  0.00    +0.203 C 
ATOM     87  C   UNL     1      13.408   6.777   0.269  0.00  0.00    +0.054 C 
BRANCH  65  88
ATOM     88  C   UNL     1      13.408  11.840  -0.516  0.00  0.00    +0.012 C 
ATOM     89  C   UNL     1      14.380  10.730  -0.927  0.00  0.00    +0.009 C 
ATOM     90  C   UNL     1      13.669  13.156  -1.265  0.00  0.00    +0.009 C 
ENDBRANCH  65  88
BRANCH  81  91
ATOM     91  C   UNL     1       9.048   6.491   4.410  0.00  0.00    +0.014 C 
ATOM     92  C   UNL     1       8.335   7.087   5.632  0.00  0.00    +0.009 C 
ATOM     93  C   UNL     1       7.924   5.360   4.195  0.00  0.00    +0.009 C 
ENDBRANCH  81  91
ENDBRANCH  57  60
ENDBRANCH  12  56
BRANCH  11  94
ATOM     94  N   UNL     1      10.781   7.081  -4.576  0.00  0.00    -0.354 N 
ATOM     95  H   UNL     1      10.294   7.493  -3.782  0.00  0.00    +0.142 HD
ATOM     96  H   UNL     1      11.103   7.681  -5.326  0.00  0.00    +0.142 HD
ENDBRANCH  11  94
TORSDOF 9
