REMARK  Name = 
REMARK  13 active torsions:
REMARK  status: ('A' for Active; 'I' for Inactive)
REMARK    1  A    between atoms: C_1  and  C_2
REMARK    2  A    between atoms: C_2  and  C_3
REMARK    3  A    between atoms: C_2  and  C_4
REMARK    4  A    between atoms: C_4  and  C_5
REMARK    5  A    between atoms: C_5  and  N_7
REMARK    6  A    between atoms: C_5  and  B_28
REMARK    7  A    between atoms: C_8  and  C_10
REMARK    8  A    between atoms: C_10  and  C_12
REMARK    9  A    between atoms: C_10  and  N_19
REMARK   10  A    between atoms: C_12  and  C_13
REMARK   11  A    between atoms: C_20  and  C_22
REMARK   12  A    between atoms: B_28  and  O_29
REMARK   13  A    between atoms: B_28  and  O_30
REMARK                            x       y       z     vdW  Elec       q    Type
REMARK                         _______ _______ _______ _____ _____    ______ ____
ROOT
ATOM      1  C   UNL     1       5.541  -3.034  -0.321  0.00  0.00    +0.000 C 
ENDROOT
BRANCH   1   4
ATOM      2  N   UNL     1       5.916  -4.595  -2.278  0.00  0.00    +0.000 N 
ATOM      3  H   UNL     1       6.862  -4.767  -1.930  0.00  0.00    +0.000 HD
ATOM      4  C   UNL     1       5.084  -3.764  -1.577  0.00  0.00    +0.000 C 
ATOM      5  O   UNL     1       3.945  -3.560  -1.975  0.00  0.00    +0.000 OA
BRANCH   2   6
ATOM      6  C   UNL     1       5.523  -5.239  -3.521  0.00  0.00    +0.000 C 
BRANCH   6   7
ATOM      7  C   UNL     1       6.750  -5.492  -4.449  0.00  0.00    +0.000 C 
BRANCH   7   9
ATOM      8  C   UNL     1       7.514  -7.794  -3.528  0.00  0.00    +0.000 C 
ATOM      9  C   UNL     1       7.927  -6.369  -3.917  0.00  0.00    +0.000 C 
ATOM     10  C   UNL     1       9.026  -6.450  -4.987  0.00  0.00    +0.000 C 
ENDBRANCH   7   9
ENDBRANCH   6   7
BRANCH   6  11
ATOM     11  B   UNL     1       4.621  -6.545  -3.238  0.00  0.00    +0.000 B 
BRANCH  11  12
ATOM     12  O   UNL     1       3.981  -7.234  -4.359  0.00  0.00    +0.000 OA
ATOM     13  H   UNL     1       4.715  -7.483  -4.975  0.00  0.00    +0.000 HD
ENDBRANCH  11  12
BRANCH  11  14
ATOM     14  O   UNL     1       4.536  -7.135  -1.895  0.00  0.00    +0.000 OA
ATOM     15  H   UNL     1       4.464  -6.390  -1.249  0.00  0.00    +0.000 HD
ENDBRANCH  11  14
ENDBRANCH   6  11
ENDBRANCH   2   6
ENDBRANCH   1   4
BRANCH   1  16
ATOM     16  N   UNL     1       5.147  -3.787   0.863  0.00  0.00    +0.000 N 
ATOM     17  H   UNL     1       5.554  -4.725   0.996  0.00  0.00    +0.000 HD
ATOM     18  C   UNL     1       4.262  -3.298   1.785  0.00  0.00    +0.000 C 
ATOM     19  O   UNL     1       3.766  -2.192   1.633  0.00  0.00    +0.000 OA
BRANCH  18  20
ATOM     20  C   UNL     1       3.875  -4.081   2.984  0.00  0.00    +0.000 A 
ATOM     21  N   UNL     1       4.400  -5.317   3.209  0.00  0.00    +0.000 NA
ATOM     22  C   UNL     1       4.061  -6.049   4.310  0.00  0.00    +0.000 A 
ATOM     23  C   UNL     1       3.152  -5.525   5.229  0.00  0.00    +0.000 A 
ATOM     24  N   UNL     1       2.617  -4.297   5.009  0.00  0.00    +0.000 NA
ATOM     25  C   UNL     1       2.954  -3.565   3.915  0.00  0.00    +0.000 A 
ENDBRANCH  18  20
ENDBRANCH   1  16
BRANCH   1  26
ATOM     26  C   UNL     1       7.060  -2.718  -0.308  0.00  0.00    +0.000 C 
BRANCH  26  27
ATOM     27  C   UNL     1       7.420  -1.908  -1.536  0.00  0.00    +0.000 A 
ATOM     28  C   UNL     1       8.244  -2.445  -2.543  0.00  0.00    +0.000 A 
ATOM     29  C   UNL     1       8.498  -1.717  -3.709  0.00  0.00    +0.000 A 
ATOM     30  C   UNL     1       7.952  -0.441  -3.872  0.00  0.00    +0.000 A 
ATOM     31  C   UNL     1       7.156   0.112  -2.867  0.00  0.00    +0.000 A 
ATOM     32  C   UNL     1       6.889  -0.617  -1.706  0.00  0.00    +0.000 A 
ENDBRANCH  26  27
ENDBRANCH   1  26
TORSDOF 11
