REMARK  Name = 
REMARK  6 active torsions:
REMARK  status: ('A' for Active; 'I' for Inactive)
REMARK    1  A    between atoms: C_1  and  C_2
REMARK    2  A    between atoms: C_2  and  N_4
REMARK    3  A    between atoms: C_2  and  C_5
REMARK    4  A    between atoms: C_5  and  O_7
REMARK    5  A    between atoms: C_5  and  C_8
REMARK    6  A    between atoms: C_10  and  O_11
REMARK                            x       y       z     vdW  Elec       q    Type
REMARK                         _______ _______ _______ _____ _____    ______ ____
ROOT
ATOM      1  C   UNL     1       2.996  -0.017  -1.488  0.00  0.00    +0.161 C 
ENDROOT
BRANCH   1   2
ATOM      2  C   UNL     1       4.510  -0.082  -1.517  0.00  0.00    -0.014 A 
ATOM      3  C   UNL     1       5.205  -0.621  -0.422  0.00  0.00    +0.006 A 
ATOM      4  C   UNL     1       6.598  -0.719  -0.441  0.00  0.00    +0.004 A 
ATOM      5  C   UNL     1       7.313  -0.286  -1.556  0.00  0.00    +0.045 A 
ATOM      6  C   UNL     1       6.632   0.244  -2.644  0.00  0.00    +0.117 A 
ATOM      7  C   UNL     1       5.244   0.353  -2.634  0.00  0.00    +0.051 A 
BRANCH   6   8
ATOM      8  O   UNL     1       7.365   0.645  -3.721  0.00  0.00    -0.507 OA
ATOM      9  H   UNL     1       6.756   0.951  -4.413  0.00  0.00    +0.292 HD
ENDBRANCH   6   8
ENDBRANCH   1   2
BRANCH   1  11
ATOM     10  C   UNL     1       2.618  -1.707  -3.404  0.00  0.00    +0.026 C 
ATOM     11  C   UNL     1       2.305  -1.336  -1.950  0.00  0.00    +0.081 C 
BRANCH  11  12
ATOM     12  N   UNL     1       0.839  -1.204  -1.805  0.00  0.00    -0.325 NA
ATOM     13  H   UNL     1       0.574  -0.316  -2.244  0.00  0.00    +0.119 HD
ATOM     14  H   UNL     1       0.372  -1.931  -2.344  0.00  0.00    +0.119 HD
ENDBRANCH  11  12
ENDBRANCH   1  11
BRANCH   1  15
ATOM     15  O   UNL     1       2.527   1.084  -2.283  0.00  0.00    -0.386 OA
ATOM     16  H   UNL     1       2.927   1.880  -1.891  0.00  0.00    +0.210 HD
ENDBRANCH   1  15
TORSDOF 5
