REMARK  Name = 
REMARK  20 active torsions:
REMARK  status: ('A' for Active; 'I' for Inactive)
REMARK    1  A    between atoms: C_10  and  O_11
REMARK    2  A    between atoms: C_16  and  C_17
REMARK    3  A    between atoms: C_16  and  O_18
REMARK    4  A    between atoms: C_19  and  O_20
REMARK    5  A    between atoms: C_21  and  O_22
REMARK    6  A    between atoms: C_25  and  C_26
REMARK    7  A    between atoms: N_28  and  C_29
REMARK    8  A    between atoms: C_29  and  N_30
REMARK    9  A    between atoms: N_30  and  C_31
REMARK   10  A    between atoms: C_31  and  C_32
REMARK   11  A    between atoms: C_32  and  C_33
REMARK   12  A    between atoms: C_33  and  C_34
REMARK   13  A    between atoms: C_34  and  C_35
REMARK   14  A    between atoms: C_35  and  N_37
REMARK   15  A    between atoms: C_35  and  C_38
REMARK   16  A    between atoms: C_38  and  O_39
REMARK   17  A    between atoms: C_41  and  O_42
REMARK   18  A    between atoms: C_43  and  N_45
REMARK   19  A    between atoms: N_45  and  C_46
REMARK   20  A    between atoms: N_45  and  C_47
REMARK                            x       y       z     vdW  Elec       q    Type
REMARK                         _______ _______ _______ _____ _____    ______ ____
ROOT
ATOM      1  C   UNK     1      -0.000  -0.000  -0.000  0.00  0.00    +0.061 C 
ATOM      2  C   UNK     1      -0.000  -0.000   0.000  0.00  0.00    +0.129 C 
ATOM      3  C   UNK     1      -0.000  -0.000   0.000  0.00  0.00    +0.127 C 
ATOM      4  C   UNK     1      -0.000  -0.000   0.000  0.00  0.00    +0.121 C 
ATOM      5  C   UNK     1      -0.000  -0.000  -0.000  0.00  0.00    +0.211 C 
ATOM      6  O   UNK     1      -0.000  -0.000   0.000  0.00  0.00    -0.288 OA
ATOM      7  C   UNK     1      -0.000  -0.000  -0.000  0.00  0.00    +0.190 C 
ATOM      8  C   UNK     1      -0.000  -0.000  -0.000  0.00  0.00    +0.141 C 
ATOM      9  C   UNK     1      -0.000  -0.000  -0.000  0.00  0.00    +0.047 C 
ATOM     10  C   UNK     1      -0.000  -0.000  -0.000  0.00  0.00    +0.197 C 
ATOM     11  O   UNK     1      -0.000  -0.000  -0.000  0.00  0.00    -0.287 OA
ATOM     12  C   UNK     1      -0.000  -0.000  -0.000  0.00  0.00    +0.069 A 
ATOM     13  C   UNK     1      -0.000  -0.000  -0.000  0.00  0.00    -0.001 A 
ATOM     14  C   UNK     1      -0.000  -0.000  -0.000  0.00  0.00    +0.096 C 
ATOM     15  C   UNK     1      -0.000  -0.000  -0.000  0.00  0.00    +0.047 C 
ATOM     16  C   UNK     1      -0.000  -0.000  -0.000  0.00  0.00    +0.007 A 
ATOM     17  C   UNK     1      -0.000  -0.000   0.000  0.00  0.00    +0.004 A 
ATOM     18  C   UNK     1      -0.000  -0.000   0.000  0.00  0.00    +0.046 A 
ATOM     19  C   UNK     1      -0.000  -0.000  -0.000  0.00  0.00    +0.128 A 
ATOM     20  C   UNK     1      -0.000  -0.000  -0.000  0.00  0.00    +0.062 C 
ATOM     21  C   UNK     1      -0.000  -0.000  -0.000  0.00  0.00    +0.020 C 
ENDROOT
BRANCH   4  22
ATOM     22  C   UNK     1      -0.000  -0.000   0.000  0.00  0.00    +0.252 C 
ATOM     23  N   UNK     1      -0.000  -0.000   0.000  0.00  0.00    -0.299 N 
ATOM     24  H   UNK     1      -0.000  -0.000   0.000  0.00  0.00    +0.150 HD
ATOM     25  O   UNK     1      -0.000  -0.000   0.000  0.00  0.00    -0.270 OA
BRANCH  23  26
ATOM     26  C   UNK     1      -0.000  -0.000   0.000  0.00  0.00    +0.189 C 
BRANCH  26  27
ATOM     27  N   UNK     1      -0.000  -0.000  -0.000  0.00  0.00    -0.301 NA
ATOM     28  H   UNK     1      -0.000  -0.000   0.000  0.00  0.00    +0.123 HD
BRANCH  27  29
ATOM     29  C   UNK     1      -0.000  -0.000   0.000  0.00  0.00    +0.082 C 
BRANCH  29  30
ATOM     30  C   UNK     1      -0.000  -0.000  -0.000  0.00  0.00    +0.015 C 
BRANCH  30  31
ATOM     31  C   UNK     1      -0.000  -0.000   0.000  0.00  0.00    +0.003 C 
BRANCH  31  32
ATOM     32  C   UNK     1      -0.000  -0.000   0.000  0.00  0.00    +0.030 C 
BRANCH  32  33
ATOM     33  C   UNK     1      -0.000  -0.000   0.000  0.00  0.00    +0.161 C 
BRANCH  33  34
ATOM     34  N   UNK     1      -0.000  -0.000   0.000  0.00  0.00    -0.318 NA
ATOM     35  H   UNK     1      -0.000  -0.000   0.000  0.00  0.00    +0.119 HD
ATOM     36  H   UNK     1      -0.000  -0.000   0.000  0.00  0.00    +0.119 HD
ENDBRANCH  33  34
BRANCH  33  37
ATOM     37  C   UNK     1      -0.000  -0.000   0.000  0.00  0.00    +0.322 C 
ATOM     38  O   UNK     1      -0.000  -0.000   0.000  0.00  0.00    -0.249 OA
BRANCH  37  39
ATOM     39  O   UNK     1      -0.000  -0.000   0.000  0.00  0.00    -0.480 OA
ATOM     40  H   UNK     1      -0.000  -0.000   0.000  0.00  0.00    +0.295 HD
ENDBRANCH  37  39
ENDBRANCH  33  37
ENDBRANCH  32  33
ENDBRANCH  31  32
ENDBRANCH  30  31
ENDBRANCH  29  30
ENDBRANCH  27  29
ENDBRANCH  26  27
ENDBRANCH  23  26
ENDBRANCH   4  22
BRANCH   2  41
ATOM     41  N   UNK     1      -0.000  -0.000   0.000  0.00  0.00    -0.299 NA
ATOM     42  C   UNK     1      -0.000  -0.000   0.000  0.00  0.00    +0.105 C 
ATOM     43  C   UNK     1      -0.000  -0.000   0.000  0.00  0.00    +0.105 C 
ENDBRANCH   2  41
BRANCH  19  44
ATOM     44  O   UNK     1      -0.000  -0.000  -0.000  0.00  0.00    -0.506 OA
ATOM     45  H   UNK     1       0.000   0.000   0.000  0.00  0.00    +0.292 HD
ENDBRANCH  19  44
BRANCH  14  46
ATOM     46  O   UNK     1      -0.000  -0.000   0.000  0.00  0.00    -0.384 OA
ATOM     47  H   UNK     1       0.000   0.000   0.000  0.00  0.00    +0.211 HD
ENDBRANCH  14  46
BRANCH   8  48
ATOM     48  O   UNK     1      -0.000  -0.000  -0.000  0.00  0.00    -0.507 OA
ATOM     49  H   UNK     1       0.000   0.000   0.000  0.00  0.00    +0.292 HD
ENDBRANCH   8  48
BRANCH   7  50
ATOM     50  O   UNK     1      -0.000  -0.000   0.000  0.00  0.00    -0.373 OA
ATOM     51  H   UNK     1       0.000   0.000   0.000  0.00  0.00    +0.211 HD
ENDBRANCH   7  50
BRANCH   3  52
ATOM     52  O   UNK     1      -0.000  -0.000   0.000  0.00  0.00    -0.509 OA
ATOM     53  H   UNK     1       0.000   0.000   0.000  0.00  0.00    +0.292 HD
ENDBRANCH   3  52
TORSDOF 17
