REMARK  Name = 
REMARK  4 active torsions:
REMARK  status: ('A' for Active; 'I' for Inactive)
REMARK    1  A    between atoms: CB_1  and  CA_2
REMARK    2  A    between atoms: CA_2  and  N_4
REMARK    3  A    between atoms: CA_2  and  C_5
REMARK    4  A    between atoms: C_5  and  O_6
REMARK                            x       y       z     vdW  Elec       q    Type
REMARK                         _______ _______ _______ _____ _____    ______ ____
ROOT
ATOM      1  CB  ALA A   1       3.074  -0.018  -1.436  0.00  0.00    +0.035 C 
ATOM      2  CA  ALA A   1       2.640  -0.107   0.019  0.00  0.00    +0.158 C 
ENDROOT
BRANCH   2   3
ATOM      3  N   ALA A   1       3.173   1.059   0.780  0.00  0.00    -0.319 NA
ATOM      4  H1  ALA A   1       2.871   1.912   0.301  0.00  0.00    +0.119 HD
ATOM      5  H2  ALA A   1       2.685   1.091   1.682  0.00  0.00    +0.119 HD
ENDBRANCH   2   3
BRANCH   2   6
ATOM      6  C   ALA A   1       3.199  -1.394   0.637  0.00  0.00    +0.321 C 
ATOM      7  OXT ALA A   1       2.730  -2.511   0.485  0.00  0.00    -0.249 OA
BRANCH   6   8
ATOM      8  O   ALA A   1       4.322  -1.141   1.362  0.00  0.00    -0.480 OA
ATOM      9  H   ALA A   1       4.461  -0.163   1.311  0.00  0.00    +0.295 HD
ENDBRANCH   6   8
ENDBRANCH   2   6
TORSDOF 3
