REMARK  Name = 
REMARK  22 active torsions:
REMARK  status: ('A' for Active; 'I' for Inactive)
REMARK    1  A    between atoms: C_1  and  C_2
REMARK    2  A    between atoms: C_2  and  C_3
REMARK    3  A    between atoms: C_4  and  C_5
REMARK    4  A    between atoms: C_6  and  C_7
REMARK    5  A    between atoms: C_6  and  C_8
REMARK    6  A    between atoms: C_9  and  C_10
REMARK    7  A    between atoms: C_11  and  C_12
REMARK    8  A    between atoms: C_14  and  O_15
REMARK    9  A    between atoms: C_17  and  C_18
REMARK   10  A    between atoms: C_17  and  C_19
REMARK   11  A    between atoms: C_20  and  C_21
REMARK   12  A    between atoms: C_22  and  C_23
REMARK   13  A    between atoms: C_24  and  C_25
REMARK   14  A    between atoms: C_24  and  C_26
REMARK   15  A    between atoms: C_27  and  C_28
REMARK   16  A    between atoms: C_29  and  C_30
REMARK   17  A    between atoms: C_29  and  C_31
REMARK   18  A    between atoms: C_32  and  C_33
REMARK   19  A    between atoms: C_34  and  C_35
REMARK   20  A    between atoms: C_37  and  O_38
REMARK   21  A    between atoms: C_40  and  C_41
REMARK   22  A    between atoms: C_40  and  C_42
REMARK                            x       y       z     vdW  Elec       q    Type
REMARK                         _______ _______ _______ _____ _____    ______ ____
ROOT
ATOM      1  C   UNL     1       2.495   1.799  -1.848  0.00  0.00    +0.000 C 
ATOM      2  C   UNL     1       3.190   2.575  -2.689  0.00  0.00    +0.000 C 
ENDROOT
BRANCH   1   5
ATOM      3  C   UNL     1       0.935   0.132  -0.009  0.00  0.00    +0.044 C 
ATOM      4  C   UNL     1       2.451   0.119  -0.016  0.00  0.00    -0.050 C 
ATOM      5  C   UNL     1       3.120   0.902  -0.887  0.00  0.00    +0.003 C 
BRANCH   4   6
ATOM      6  C   UNL     1       3.196  -0.726   0.933  0.00  0.00    +0.003 C 
ATOM      7  C   UNL     1       2.628  -1.552   1.824  0.00  0.00    +0.001 C 
BRANCH   7   8
ATOM      8  C   UNL     1       3.282  -2.392   2.808  0.00  0.00    +0.003 C 
ATOM      9  C   UNL     1       2.624  -3.209   3.665  0.00  0.00    -0.051 C 
ATOM     10  C   UNL     1       1.118  -3.392   3.693  0.00  0.00    +0.044 C 
BRANCH   9  11
ATOM     11  C   UNL     1       3.376  -4.037   4.615  0.00  0.00    -0.000 C 
ATOM     12  C   UNL     1       2.818  -4.831   5.548  0.00  0.00    -0.018 C 
BRANCH  12  13
ATOM     13  C   UNL     1       3.567  -5.806   6.434  0.00  0.00    +0.043 C 
ATOM     14  C   UNL     1       3.325  -7.315   5.994  0.00  0.00    -0.022 C 
ATOM     15  C   UNL     1       2.366  -7.459   4.774  0.00  0.00    +0.012 C 
ATOM     16  C   UNL     1       4.693  -7.866   5.509  0.00  0.00    +0.012 C 
ATOM     17  C   UNL     1       2.780  -8.290   7.085  0.00  0.00    +0.042 C 
ATOM     18  C   UNL     1       2.586  -7.794   8.514  0.00  0.00    +0.138 C 
ATOM     19  C   UNL     1       2.884  -6.372   8.788  0.00  0.00    +0.003 C 
ATOM     20  C   UNL     1       3.317  -5.476   7.892  0.00  0.00    -0.067 C 
ATOM     21  C   UNL     1       3.617  -4.073   8.362  0.00  0.00    +0.039 C 
BRANCH  18  22
ATOM     22  O   UNL     1       3.405  -8.567   9.389  0.00  0.00    -0.388 OA
ATOM     23  H   UNL     1       4.328  -8.373   9.154  0.00  0.00    +0.210 HD
ENDBRANCH  18  22
ENDBRANCH  12  13
ENDBRANCH   9  11
ENDBRANCH   7   8
ENDBRANCH   4   6
ENDBRANCH   1   5
BRANCH   2  24
ATOM     24  C   UNL     1       2.574   3.485  -3.640  0.00  0.00    +0.003 C 
ATOM     25  C   UNL     1       3.226   4.294  -4.503  0.00  0.00    -0.050 C 
ATOM     26  C   UNL     1       4.737   4.364  -4.595  0.00  0.00    +0.044 C 
BRANCH  25  27
ATOM     27  C   UNL     1       2.465   5.169  -5.417  0.00  0.00    +0.003 C 
ATOM     28  C   UNL     1       3.047   5.987  -6.309  0.00  0.00    +0.001 C 
BRANCH  28  29
ATOM     29  C   UNL     1       2.397   6.880  -7.246  0.00  0.00    +0.003 C 
ATOM     30  C   UNL     1       3.043   7.682  -8.127  0.00  0.00    -0.050 C 
ATOM     31  C   UNL     1       4.552   7.767  -8.259  0.00  0.00    +0.044 C 
BRANCH  30  32
ATOM     32  C   UNL     1       2.272   8.554  -9.026  0.00  0.00    +0.003 C 
ATOM     33  C   UNL     1       2.803   9.439  -9.889  0.00  0.00    +0.004 C 
BRANCH  33  34
ATOM     34  C   UNL     1       2.054  10.338 -10.770  0.00  0.00    -0.043 C 
ATOM     35  C   UNL     1       2.304  10.149 -12.278  0.00  0.00    -0.008 C 
ATOM     36  C   UNL     1       3.818  10.270 -12.608  0.00  0.00    +0.016 C 
ATOM     37  C   UNL     1       1.851   8.723 -12.684  0.00  0.00    +0.016 C 
ATOM     38  C   UNL     1       1.578  11.159 -13.217  0.00  0.00    +0.042 C 
ATOM     39  C   UNL     1       0.593  12.158 -12.624  0.00  0.00    +0.119 C 
ATOM     40  C   UNL     1       0.484  12.272 -11.109  0.00  0.00    +0.062 C 
ATOM     41  C   UNL     1       1.252  11.298 -10.261  0.00  0.00    -0.067 C 
ATOM     42  C   UNL     1       1.047  11.565  -8.782  0.00  0.00    +0.039 C 
BRANCH  39  43
ATOM     43  O   UNL     1      -0.704  11.905 -13.176  0.00  0.00    -0.391 OA
ATOM     44  H   UNL     1      -0.991  11.042 -12.850  0.00  0.00    +0.210 HD
ENDBRANCH  39  43
ENDBRANCH  33  34
ENDBRANCH  30  32
ENDBRANCH  28  29
ENDBRANCH  25  27
ENDBRANCH   2  24
TORSDOF 12
