REMARK  Name = 
REMARK  3 active torsions:
REMARK  status: ('A' for Active; 'I' for Inactive)
REMARK    1  A    between atoms: C_1  and  C_2
REMARK    2  A    between atoms: C_2  and  C_4
REMARK    3  A    between atoms: C_4  and  O_5
REMARK                            x       y       z     vdW  Elec       q    Type
REMARK                         _______ _______ _______ _____ _____    ______ ____
ROOT
ATOM      1  C   UNL     1       3.304  -0.049   1.297  0.00  0.00    +0.372 C 
ATOM      2  O   UNL     1       2.723  -0.030   2.363  0.00  0.00    -0.242 OA
ENDROOT
BRANCH   1   4
ATOM      3  C   UNL     1       1.092  -0.071  -0.021  0.00  0.00    +0.099 C 
ATOM      4  C   UNL     1       2.588  -0.072  -0.049  0.00  0.00    +0.236 C 
ATOM      5  O   UNL     1       3.282  -0.089  -1.062  0.00  0.00    -0.285 OA
ENDBRANCH   1   4
BRANCH   1   6
ATOM      6  O   UNL     1       4.639  -0.053   1.121  0.00  0.00    -0.475 OA
ATOM      7  H   UNL     1       4.837  -0.070   0.154  0.00  0.00    +0.295 HD
ENDBRANCH   1   6
TORSDOF 2
