REMARK  Name = 
REMARK  12 active torsions:
REMARK  status: ('A' for Active; 'I' for Inactive)
REMARK    1  A    between atoms: C_1  and  C_2
REMARK    2  A    between atoms: C_2  and  N_3
REMARK    3  A    between atoms: N_3  and  C_4
REMARK    4  A    between atoms: C_4  and  C_5
REMARK    5  A    between atoms: C_6  and  C_8
REMARK    6  A    between atoms: C_15  and  O_16
REMARK    7  A    between atoms: O_16  and  C_17
REMARK    8  A    between atoms: C_18  and  O_19
REMARK    9  A    between atoms: O_19  and  C_20
REMARK   10  A    between atoms: C_25  and  O_26
REMARK   11  A    between atoms: O_26  and  C_27
REMARK   12  A    between atoms: C_27  and  C_28
REMARK                            x       y       z     vdW  Elec       q    Type
REMARK                         _______ _______ _______ _____ _____    ______ ____
ROOT
ATOM      1  C   UNL     1       5.202  -0.624  -2.982  0.00  0.00    +0.130 C 
ATOM      2  C   UNL     1       5.472   0.585  -3.911  0.00  0.00    +0.191 C 
ATOM      3  C   UNL     1       6.925   0.572  -4.479  0.00  0.00    +0.069 C 
ATOM      4  C   UNL     1       7.164  -0.795  -5.151  0.00  0.00    +0.091 C 
ATOM      5  N   UNL     1       6.857  -1.896  -4.202  0.00  0.00    -0.294 NA
ATOM      6  C   UNL     1       7.721  -3.060  -4.266  0.00  0.00    +0.089 C 
ATOM      7  C   UNL     1       7.871  -3.485  -5.726  0.00  0.00    +0.051 C 
ATOM      8  C   UNL     1       8.547  -2.384  -6.497  0.00  0.00    -0.038 A 
ATOM      9  C   UNL     1       9.300  -2.708  -7.633  0.00  0.00    +0.053 A 
ATOM     10  C   UNL     1       9.923  -1.719  -8.393  0.00  0.00    +0.162 A 
ATOM     11  C   UNL     1       9.844  -0.384  -7.949  0.00  0.00    +0.162 A 
ATOM     12  C   UNL     1       9.047  -0.061  -6.815  0.00  0.00    +0.054 A 
ATOM     13  C   UNL     1       8.342  -1.048  -6.108  0.00  0.00    -0.023 A 
ATOM     14  C   UNL     1       6.452  -1.502  -2.853  0.00  0.00    +0.101 C 
ENDROOT
BRANCH   1  16
ATOM     15  N   UNL     1       3.274   0.007  -1.470  0.00  0.00    -0.302 N 
ATOM     16  C   UNL     1       4.657  -0.212  -1.608  0.00  0.00    +0.223 C 
ATOM     17  O   UNL     1       5.432  -0.065  -0.661  0.00  0.00    -0.275 OA
BRANCH  15  19
ATOM     18  C   UNL     1       2.429  -0.743   0.773  0.00  0.00    +0.024 C 
ATOM     19  C   UNL     1       2.777   0.420  -0.148  0.00  0.00    +0.104 C 
ENDBRANCH  15  19
BRANCH  15  20
ATOM     20  C   UNL     1       2.331  -0.183  -2.583  0.00  0.00    +0.104 C 
ATOM     21  C   UNL     1       0.843   0.015  -2.335  0.00  0.00    +0.024 C 
ENDBRANCH  15  20
ENDBRANCH   1  16
BRANCH  11  22
ATOM     22  O   UNL     1      10.435   0.720  -8.522  0.00  0.00    -0.491 OA
ATOM     23  C   UNL     1      11.201   0.547  -9.713  0.00  0.00    +0.277 C 
ENDBRANCH  11  22
BRANCH  10  24
ATOM     24  O   UNL     1      10.595  -2.013  -9.550  0.00  0.00    -0.491 OA
ATOM     25  C   UNL     1      10.479  -3.331 -10.080  0.00  0.00    +0.277 C 
ENDBRANCH  10  24
BRANCH   2  26
ATOM     26  O   UNL     1       4.517   0.393  -4.999  0.00  0.00    -0.461 OA
BRANCH  26  27
ATOM     27  C   UNL     1       4.359   1.353  -5.943  0.00  0.00    +0.304 C 
ATOM     28  O   UNL     1       4.845   2.467  -5.907  0.00  0.00    -0.251 OA
ATOM     29  C   UNL     1       3.520   0.812  -7.067  0.00  0.00    +0.136 C 
ENDBRANCH  26  27
ENDBRANCH   2  26
TORSDOF 7
