REMARK  Name = 
REMARK  11 active torsions:
REMARK  status: ('A' for Active; 'I' for Inactive)
REMARK    1  A    between atoms: C_1  and  C_2
REMARK    2  A    between atoms: C_3  and  C_4
REMARK    3  A    between atoms: N_7  and  C_8
REMARK    4  A    between atoms: C_8  and  C_9
REMARK    5  A    between atoms: C_9  and  O_11
REMARK    6  A    between atoms: C_9  and  C_12
REMARK    7  A    between atoms: C_12  and  O_14
REMARK    8  A    between atoms: C_12  and  C_15
REMARK    9  A    between atoms: C_15  and  O_17
REMARK   10  A    between atoms: C_15  and  C_18
REMARK   11  A    between atoms: C_18  and  O_19
REMARK                            x       y       z     vdW  Elec       q    Type
REMARK                         _______ _______ _______ _____ _____    ______ ____
ROOT
ATOM      1  C   UNL     1       7.032   9.196  -3.406  0.00  0.00    +0.044 C 
ATOM      2  C   UNL     1       6.020   8.083  -3.379  0.00  0.00    -0.045 A 
ATOM      3  C   UNL     1       5.732   7.417  -4.573  0.00  0.00    +0.033 A 
ATOM      4  C   UNL     1       4.839   6.339  -4.615  0.00  0.00    +0.089 A 
ATOM      5  C   UNL     1       4.234   5.857  -3.431  0.00  0.00    +0.069 A 
ATOM      6  N   UNL     1       3.432   4.681  -3.486  0.00  0.00    -0.320 N 
ATOM      7  C   UNL     1       3.231   4.092  -4.740  0.00  0.00    +0.170 A 
ATOM      8  C   UNL     1       3.797   4.770  -5.965  0.00  0.00    +0.171 A 
ATOM      9  C   UNL     1       3.469   4.200  -7.315  0.00  0.00    +0.282 A 
ATOM     10  O   UNL     1       3.832   4.712  -8.361  0.00  0.00    -0.265 OA
ATOM     11  N   UNL     1       2.744   3.049  -7.249  0.00  0.00    -0.272 N 
ATOM     12  H   UNL     1       2.542   2.577  -8.118  0.00  0.00    +0.174 HD
ATOM     13  C   UNL     1       2.387   2.393  -6.110  0.00  0.00    +0.351 A 
ATOM     14  O   UNL     1       1.869   1.288  -6.209  0.00  0.00    -0.245 OA
ATOM     15  N   UNL     1       2.601   2.968  -4.887  0.00  0.00    -0.173 NA
ATOM     16  C   UNL     1       4.434   6.612  -2.262  0.00  0.00    +0.031 A 
ATOM     17  N   UNL     1       4.581   5.800  -5.882  0.00  0.00    -0.237 NA
ATOM     18  C   UNL     1       5.308   7.723  -2.224  0.00  0.00    -0.045 A 
ATOM     19  C   UNL     1       5.503   8.467  -0.930  0.00  0.00    +0.044 C 
ENDROOT
BRANCH   6  20
ATOM     20  C   UNL     1       3.443   3.785  -2.293  0.00  0.00    +0.158 C 
BRANCH  20  21
ATOM     21  C   UNL     1       2.029   3.307  -1.885  0.00  0.00    +0.165 C 
BRANCH  21  22
ATOM     22  O   UNL     1       1.276   4.430  -1.410  0.00  0.00    -0.387 OA
ATOM     23  H   UNL     1       1.104   4.996  -2.184  0.00  0.00    +0.210 HD
ENDBRANCH  21  22
BRANCH  21  24
ATOM     24  C   UNL     1       2.063   2.175  -0.817  0.00  0.00    +0.175 C 
BRANCH  24  25
ATOM     25  O   UNL     1       0.715   1.732  -0.539  0.00  0.00    -0.387 OA
ATOM     26  H   UNL     1       0.434   1.176  -1.290  0.00  0.00    +0.210 HD
ENDBRANCH  24  25
BRANCH  24  27
ATOM     27  C   UNL     1       2.756   2.534   0.521  0.00  0.00    +0.171 C 
BRANCH  27  28
ATOM     28  O   UNL     1       2.945   1.318   1.274  0.00  0.00    -0.387 OA
ATOM     29  H   UNL     1       2.183   1.265   1.888  0.00  0.00    +0.210 HD
ENDBRANCH  27  28
BRANCH  27  30
ATOM     30  C   UNL     1       1.985   3.515   1.415  0.00  0.00    +0.189 C 
BRANCH  30  31
ATOM     31  O   UNL     1       0.747   2.939   1.836  0.00  0.00    -0.392 OA
ATOM     32  H   UNL     1       0.323   2.593   1.018  0.00  0.00    +0.210 HD
ENDBRANCH  30  31
ENDBRANCH  27  30
ENDBRANCH  24  27
ENDBRANCH  21  24
ENDBRANCH  20  21
ENDBRANCH   6  20
TORSDOF 9
