REMARK  Name = 
REMARK  6 active torsions:
REMARK  status: ('A' for Active; 'I' for Inactive)
REMARK    1  A    between atoms: C_1  and  C_2
REMARK    2  A    between atoms: C_5  and  N_8
REMARK    3  A    between atoms: N_8  and  C_9
REMARK    4  A    between atoms: N_8  and  C_15
REMARK    5  A    between atoms: C_9  and  C_10
REMARK    6  A    between atoms: C_17  and  O_18
REMARK                            x       y       z     vdW  Elec       q    Type
REMARK                         _______ _______ _______ _____ _____    ______ ____
ROOT
ATOM      1  N   UNL     1       6.586  -0.014  -0.329  0.00  0.00    -0.288 N 
ENDROOT
BRANCH   1   6
ATOM      2  C   UNL     1       1.955  -0.751   2.938  0.00  0.00    +0.044 C 
ATOM      3  C   UNL     1       3.001  -0.460   1.909  0.00  0.00    -0.050 A 
ATOM      4  C   UNL     1       3.687   0.751   1.929  0.00  0.00    +0.005 A 
ATOM      5  C   UNL     1       4.804   0.940   1.108  0.00  0.00    +0.024 A 
ATOM      6  C   UNL     1       5.282  -0.073   0.258  0.00  0.00    +0.035 A 
ATOM      7  C   UNL     1       4.426  -1.168   0.084  0.00  0.00    +0.024 A 
ATOM      8  C   UNL     1       3.321  -1.384   0.918  0.00  0.00    +0.005 A 
ENDBRANCH   1   6
BRANCH   1   9
ATOM      9  C   UNL     1       7.463  -1.096  -0.665  0.00  0.00    +0.038 A 
ATOM     10  C   UNL     1       8.703  -0.897  -1.311  0.00  0.00    +0.024 A 
ATOM     11  C   UNL     1       9.517  -1.963  -1.732  0.00  0.00    +0.005 A 
ATOM     12  C   UNL     1       9.130  -3.275  -1.506  0.00  0.00    +0.045 A 
ATOM     13  C   UNL     1       7.966  -3.505  -0.798  0.00  0.00    +0.119 A 
ATOM     14  C   UNL     1       7.169  -2.442  -0.355  0.00  0.00    +0.068 A 
BRANCH  13  15
ATOM     15  O   UNL     1       7.625  -4.804  -0.550  0.00  0.00    -0.507 OA
ATOM     16  H   UNL     1       6.845  -4.818   0.027  0.00  0.00    +0.292 HD
ENDBRANCH  13  15
ENDBRANCH   1   9
BRANCH   1  17
ATOM     17  C   UNL     1       6.972   1.343  -0.814  0.00  0.00    +0.238 C 
BRANCH  17  18
ATOM     18  C   UNL     1       7.916   2.084   0.142  0.00  0.00    +0.299 C 
ATOM     19  N   UNL     1       7.777   2.052   1.516  0.00  0.00    -0.232 N 
ATOM     20  H   UNL     1       7.471   1.165   1.902  0.00  0.00    +0.291 HD
ATOM     21  C   UNL     1       8.905   2.717   2.106  0.00  0.00    +0.273 C 
ATOM     22  C   UNL     1       9.480   3.467   0.900  0.00  0.00    +0.333 C 
ATOM     23  N   UNL     1       8.872   2.856  -0.318  0.00  0.00    -0.082 NA
ENDBRANCH  17  18
ENDBRANCH   1  17
TORSDOF 5
