REMARK  Name = 
REMARK  8 active torsions:
REMARK  status: ('A' for Active; 'I' for Inactive)
REMARK    1  A    between atoms: C_4  and  C_5
REMARK    2  A    between atoms: C_4  and  C_6
REMARK    3  A    between atoms: CA_7  and  C_29
REMARK    4  A    between atoms: CA_12  and  N_14
REMARK    5  A    between atoms: C_15  and  C_17
REMARK    6  A    between atoms: C_18  and  C_19
REMARK    7  A    between atoms: C_22  and  C_23
REMARK    8  A    between atoms: C_29  and  O_30
REMARK                            x       y       z     vdW  Elec       q    Type
REMARK                         _______ _______ _______ _____ _____    ______ ____
ROOT
ATOM      1  N   UNL     1       3.420  -0.796   2.329  0.00  0.00    -0.298 N 
ATOM      2  H   UNL     1       4.085  -0.034   2.363  0.00  0.00    +0.150 HD
ATOM      3  C   UNL     1       2.943  -1.288   3.527  0.00  0.00    +0.250 C 
ATOM      4  O   UNL     1       1.987  -2.056   3.554  0.00  0.00    -0.270 OA
ENDROOT
BRANCH   1   6
ATOM      5  C   UNL     1       1.483  -0.205   0.722  0.00  0.00    +0.165 C 
ATOM      6  CA  UNL     1       2.713  -1.093   1.052  0.00  0.00    +0.190 C 
ATOM      7  C   UNL     1       3.314  -0.478  -0.235  0.00  0.00    +0.240 C 
ATOM      8  O   UNL     1       4.415  -0.356  -0.719  0.00  0.00    -0.273 OA
ATOM      9  N   UNL     1       2.131   0.132  -0.566  0.00  0.00    -0.271 N 
ATOM     10  CA  UNL     1       2.120   1.558  -0.954  0.00  0.00    +0.201 C 
ATOM     11  C   UNL     1       2.220   2.386   0.352  0.00  0.00    +0.042 C 
ATOM     12  C   UNL     1       3.680   2.537   0.828  0.00  0.00    +0.025 C 
ATOM     13  C   UNL     1       1.629   3.799   0.297  0.00  0.00    +0.025 C 
ATOM     14  S   UNL     1       1.325   1.388   1.628  0.00  0.00    -0.127 S 
BRANCH  10  15
ATOM     15  C   UNL     1       0.865   1.810  -1.810  0.00  0.00    +0.327 C 
ATOM     16  OXT UNL     1       0.493   2.906  -2.201  0.00  0.00    -0.249 OA
BRANCH  15  17
ATOM     17  O   UNL     1       0.226   0.672  -2.187  0.00  0.00    -0.479 OA
ATOM     18  H   UNL     1       0.717  -0.115  -1.875  0.00  0.00    +0.295 HD
ENDBRANCH  15  17
ENDBRANCH  10  15
ENDBRANCH   1   6
BRANCH   3  19
ATOM     19  C   UNL     1       3.616  -0.808   4.717  0.00  0.00    +0.106 A 
ATOM     20  C   UNL     1       3.097  -0.613   6.048  0.00  0.00    +0.126 A 
ATOM     21  N   UNL     1       4.077  -0.183   6.861  0.00  0.00    -0.077 NA
ATOM     22  O   UNL     1       5.215  -0.103   6.112  0.00  0.00    -0.359 OA
ATOM     23  C   UNL     1       4.958  -0.481   4.838  0.00  0.00    +0.147 A 
ATOM     24  C   UNL     1       6.143  -0.480   3.954  0.00  0.00    +0.090 C 
BRANCH  20  25
ATOM     25  C   UNL     1       1.742  -0.787   6.599  0.00  0.00    +0.004 A 
ATOM     26  C   UNL     1       1.582  -1.113   7.960  0.00  0.00    +0.010 A 
ATOM     27  C   UNL     1       0.312  -1.236   8.532  0.00  0.00    +0.001 A 
ATOM     28  C   UNL     1      -0.822  -1.041   7.751  0.00  0.00    +0.000 A 
ATOM     29  C   UNL     1      -0.685  -0.718   6.403  0.00  0.00    +0.001 A 
ATOM     30  C   UNL     1       0.588  -0.582   5.833  0.00  0.00    +0.010 A 
ENDBRANCH  20  25
ENDBRANCH   3  19
TORSDOF 5
