REMARK  Name = 
REMARK  3 active torsions:
REMARK  status: ('A' for Active; 'I' for Inactive)
REMARK    1  A    between atoms: N_6  and  C_9
REMARK    2  A    between atoms: C_13  and  C_15
REMARK    3  A    between atoms: C_15  and  O_16
REMARK                            x       y       z     vdW  Elec       q    Type
REMARK                         _______ _______ _______ _____ _____    ______ ____
ROOT
ATOM      1  N   UNL     1       1.148   0.313   0.357  0.00  0.00    -0.343 N 
ATOM      2  H   UNL     1       0.615  -0.541   0.468  0.00  0.00    +0.144 HD
ATOM      3  H   UNL     1       0.822   0.893  -0.410  0.00  0.00    +0.144 HD
ATOM      4  C   UNL     1       2.511   0.209   0.385  0.00  0.00    +0.123 A 
ATOM      5  C   UNL     1       3.142  -0.850   1.192  0.00  0.00    +0.061 A 
ATOM      6  C   UNL     1       4.471  -0.899   1.150  0.00  0.00    +0.096 A 
ATOM      7  N   UNL     1       5.195   0.006   0.406  0.00  0.00    -0.273 N 
ATOM      8  C   UNL     1       4.557   1.001  -0.344  0.00  0.00    +0.352 A 
ATOM      9  O   UNL     1       5.208   1.805  -1.009  0.00  0.00    -0.244 OA
ATOM     10  N   UNL     1       3.183   1.059  -0.324  0.00  0.00    -0.178 NA
ENDROOT
BRANCH   7  11
ATOM     11  C   UNL     1       6.649  -0.021   0.355  0.00  0.00    +0.224 C 
ATOM     12  O   UNL     1       7.173  -1.217   0.971  0.00  0.00    -0.351 OA
ATOM     13  C   UNL     1       8.434  -0.903   1.599  0.00  0.00    +0.146 C 
ATOM     14  C   UNL     1       8.678   0.586   1.393  0.00  0.00    +0.038 C 
ATOM     15  C   UNL     1       7.306   1.135   1.092  0.00  0.00    +0.057 C 
BRANCH  13  16
ATOM     16  C   UNL     1       8.366  -1.324   3.071  0.00  0.00    +0.187 C 
BRANCH  16  17
ATOM     17  O   UNL     1       7.373  -0.587   3.781  0.00  0.00    -0.392 OA
ATOM     18  H   UNL     1       6.556  -0.654   3.255  0.00  0.00    +0.210 HD
ENDBRANCH  16  17
ENDBRANCH  13  16
ENDBRANCH   7  11
TORSDOF 3
