REMARK  Name = 
REMARK  6 active torsions:
REMARK  status: ('A' for Active; 'I' for Inactive)
REMARK    1  A    between atoms: C_1  and  C_2
REMARK    2  A    between atoms: N_4  and  C_5
REMARK    3  A    between atoms: C_8  and  C_9
REMARK    4  A    between atoms: C_9  and  O_10
REMARK    5  A    between atoms: C_14  and  N_15
REMARK    6  A    between atoms: C_16  and  C_17
REMARK                            x       y       z     vdW  Elec       q    Type
REMARK                         _______ _______ _______ _____ _____    ______ ____
ROOT
ATOM      1  C   UNL     1       4.472   0.884   0.680  0.00  0.00    +0.063 A 
ATOM      2  C   UNL     1       5.064   0.716   1.958  0.00  0.00    +0.058 A 
ATOM      3  I   UNL     1       3.770   0.334   3.626  0.00  0.00    -0.040 I 
ATOM      4  C   UNL     1       6.466   0.614   2.091  0.00  0.00    +0.063 A 
ATOM      5  C   UNL     1       7.261   0.614   0.912  0.00  0.00    +0.051 A 
ATOM      6  I   UNL     1       9.378   0.252   1.142  0.00  0.00    -0.041 I 
ATOM      7  C   UNL     1       6.691   0.847  -0.360  0.00  0.00    +0.089 A 
ATOM      8  C   UNL     1       5.301   1.051  -0.453  0.00  0.00    +0.051 A 
ATOM      9  I   UNL     1       4.467   1.932  -2.253  0.00  0.00    -0.041 I 
ENDROOT
BRANCH   1  12
ATOM     10  C   UNL     1       0.934   0.029  -0.284  0.00  0.00    +0.109 C 
ATOM     11  C   UNL     1       2.438  -0.062  -0.316  0.00  0.00    +0.214 C 
ATOM     12  N   UNL     1       3.055   0.828   0.555  0.00  0.00    -0.284 N 
ATOM     13  H   UNL     1       2.538   0.983   1.414  0.00  0.00    +0.155 HD
ATOM     14  O   UNL     1       3.034  -0.879  -1.013  0.00  0.00    -0.276 OA
ENDBRANCH   1  12
BRANCH   4  15
ATOM     15  N   UNL     1       7.097   0.290   3.319  0.00  0.00    -0.284 N 
ATOM     16  H   UNL     1       7.898  -0.333   3.241  0.00  0.00    +0.155 HD
ATOM     17  C   UNL     1       7.296   1.056   4.436  0.00  0.00    +0.214 C 
ATOM     18  O   UNL     1       8.113   0.647   5.267  0.00  0.00    -0.276 OA
ATOM     19  C   UNL     1       6.596   2.366   4.658  0.00  0.00    +0.109 C 
ENDBRANCH   4  15
BRANCH   7  20
ATOM     20  C   UNL     1       7.540   0.881  -1.580  0.00  0.00    +0.339 C 
ATOM     21  O   UNL     1       8.548   1.557  -1.681  0.00  0.00    -0.245 OA
BRANCH  20  22
ATOM     22  O   UNL     1       7.120   0.043  -2.553  0.00  0.00    -0.477 OA
ATOM     23  H   UNL     1       6.213  -0.314  -2.458  0.00  0.00    +0.295 HD
ENDBRANCH  20  22
ENDBRANCH   7  20
TORSDOF 4
