REMARK  Name = 
REMARK  3 active torsions:
REMARK  status: ('A' for Active; 'I' for Inactive)
REMARK    1  A    between atoms: N_6  and  C_9
REMARK    2  A    between atoms: C_13  and  C_15
REMARK    3  A    between atoms: C_15  and  O_16
REMARK                            x       y       z     vdW  Elec       q    Type
REMARK                         _______ _______ _______ _____ _____    ______ ____
ROOT
ATOM      1  N   UNL     1       7.649   0.541  -5.174  0.00  0.00    -0.343 N 
ATOM      2  H   UNL     1       8.402   0.003  -5.582  0.00  0.00    +0.144 HD
ATOM      3  H   UNL     1       7.618   1.506  -5.488  0.00  0.00    +0.144 HD
ATOM      4  C   UNL     1       7.423   0.414  -3.832  0.00  0.00    +0.123 A 
ATOM      5  C   UNL     1       7.757  -0.850  -3.155  0.00  0.00    +0.061 A 
ATOM      6  C   UNL     1       7.582  -0.869  -1.835  0.00  0.00    +0.096 A 
ATOM      7  N   UNL     1       7.100   0.231  -1.153  0.00  0.00    -0.272 N 
ATOM      8  C   UNL     1       6.635   1.345  -1.870  0.00  0.00    +0.352 A 
ATOM      9  O   UNL     1       5.983   2.227  -1.315  0.00  0.00    -0.244 OA
ATOM     10  N   UNL     1       6.912   1.430  -3.214  0.00  0.00    -0.178 NA
ENDROOT
BRANCH   7  11
ATOM     11  C   UNL     1       6.751   0.156   0.276  0.00  0.00    +0.235 C 
ATOM     12  O   UNL     1       7.266  -1.061   0.866  0.00  0.00    -0.340 OA
ATOM     13  C   UNL     1       8.456  -0.820   1.631  0.00  0.00    +0.203 C 
ATOM     14  S   UNL     1       8.843   0.942   1.668  0.00  0.00    -0.123 S 
ATOM     15  C   UNL     1       7.174   1.348   1.154  0.00  0.00    +0.126 C 
BRANCH  13  16
ATOM     16  C   UNL     1       9.643  -1.616   1.070  0.00  0.00    +0.198 C 
BRANCH  16  17
ATOM     17  O   UNL     1      10.808  -1.495   1.885  0.00  0.00    -0.392 OA
ATOM     18  H   UNL     1      10.982  -0.539   1.979  0.00  0.00    +0.210 HD
ENDBRANCH  16  17
ENDBRANCH  13  16
ENDBRANCH   7  11
TORSDOF 3
