REMARK  Name = 
REMARK  11 active torsions:
REMARK  status: ('A' for Active; 'I' for Inactive)
REMARK    1  A    between atoms: C_1  and  C_2
REMARK    2  A    between atoms: C_2  and  C_3
REMARK    3  A    between atoms: C_3  and  C_4
REMARK    4  A    between atoms: N_6  and  C_7
REMARK    5  A    between atoms: C_11  and  C_15
REMARK    6  A    between atoms: C_16  and  O_17
REMARK    7  A    between atoms: O_17  and  C_18
REMARK    8  A    between atoms: C_18  and  C_19
REMARK    9  A    between atoms: C_22  and  S_24
REMARK   10  A    between atoms: S_24  and  N_27
REMARK   11  A    between atoms: N_30  and  C_31
REMARK                            x       y       z     vdW  Elec       q    Type
REMARK                         _______ _______ _______ _____ _____    ______ ____
ROOT
ATOM      1  C   UNL     1       5.855   1.553   4.728  0.00  0.00    +0.061 A 
ATOM      2  C   UNL     1       5.710   2.801   5.351  0.00  0.00    +0.043 A 
ATOM      3  C   UNL     1       5.305   2.856   6.688  0.00  0.00    +0.106 A 
ATOM      4  C   UNL     1       5.074   1.686   7.413  0.00  0.00    +0.032 A 
ATOM      5  C   UNL     1       5.225   0.446   6.798  0.00  0.00    +0.048 A 
ATOM      6  C   UNL     1       5.591   0.363   5.451  0.00  0.00    +0.131 A 
ENDROOT
BRANCH   1  11
ATOM      7  C   UNL     1       5.502  -0.388   0.183  0.00  0.00    +0.087 A 
ATOM      8  C   UNL     1       5.903   0.467   1.218  0.00  0.00    +0.095 A 
ATOM      9  N   UNL     1       5.621   0.502   2.520  0.00  0.00    -0.336 N 
ATOM     10  H   UNL     1       5.122  -0.233   3.010  0.00  0.00    +0.167 HD
ATOM     11  C   UNL     1       6.194   1.522   3.259  0.00  0.00    +0.146 A 
ATOM     12  N   UNL     1       6.973   2.457   2.782  0.00  0.00    -0.189 NA
ATOM     13  C   UNL     1       7.324   2.463   1.434  0.00  0.00    +0.299 A 
ATOM     14  O   UNL     1       8.077   3.294   0.943  0.00  0.00    -0.263 OA
ATOM     15  C   UNL     1       6.728   1.404   0.678  0.00  0.00    +0.151 A 
ATOM     16  N   UNL     1       6.823   1.072  -0.640  0.00  0.00    -0.260 N 
ATOM     17  C   UNL     1       7.614   1.730  -1.653  0.00  0.00    +0.173 C 
ATOM     18  N   UNL     1       6.079  -0.018  -0.973  0.00  0.00    -0.174 NA
BRANCH   7  19
ATOM     19  C   UNL     1       4.580  -1.560   0.254  0.00  0.00    +0.059 C 
BRANCH  19  21
ATOM     20  C   UNL     1       2.262  -2.384   0.837  0.00  0.00    +0.004 C 
ATOM     21  C   UNL     1       3.180  -1.177   0.746  0.00  0.00    +0.003 C 
ENDBRANCH  19  21
ENDBRANCH   7  19
ENDBRANCH   1  11
BRANCH   3  22
ATOM     22  S   UNL     1       4.845   4.404   7.433  0.00  0.00    +0.061 S 
ATOM     23  O   UNL     1       3.831   4.100   8.422  0.00  0.00    -0.153 OA
ATOM     24  O   UNL     1       4.570   5.336   6.364  0.00  0.00    -0.153 OA
BRANCH  22  25
ATOM     25  N   UNL     1       6.258   4.876   8.261  0.00  0.00    -0.174 NA
ATOM     26  C   UNL     1       6.011   5.842   9.378  0.00  0.00    +0.125 C 
ATOM     27  C   UNL     1       5.780   7.268   8.842  0.00  0.00    +0.101 C 
ATOM     28  N   UNL     1       6.878   7.786   8.001  0.00  0.00    -0.303 NA
ATOM     29  C   UNL     1       8.047   8.151   8.796  0.00  0.00    +0.105 C 
ATOM     30  C   UNL     1       7.218   6.809   6.943  0.00  0.00    +0.101 C 
ATOM     31  C   UNL     1       7.403   5.349   7.419  0.00  0.00    +0.125 C 
ENDBRANCH  22  25
ENDBRANCH   3  22
BRANCH   6  32
ATOM     32  O   UNL     1       5.685  -0.826   4.770  0.00  0.00    -0.492 OA
BRANCH  32  33
ATOM     33  C   UNL     1       5.368  -2.026   5.477  0.00  0.00    +0.226 C 
ATOM     34  C   UNL     1       5.492  -3.191   4.513  0.00  0.00    +0.048 C 
ENDBRANCH  32  33
ENDBRANCH   6  32
TORSDOF 7
