REMARK  Name = 
REMARK  8 active torsions:
REMARK  status: ('A' for Active; 'I' for Inactive)
REMARK    1  A    between atoms: C_1  and  C_2
REMARK    2  A    between atoms: C_2  and  N_3
REMARK    3  A    between atoms: C_2  and  C_4
REMARK    4  A    between atoms: C_2  and  C_13
REMARK    5  A    between atoms: C_4  and  C_5
REMARK    6  A    between atoms: C_8  and  O_9
REMARK    7  A    between atoms: C_10  and  O_11
REMARK    8  A    between atoms: C_13  and  O_14
REMARK                            x       y       z     vdW  Elec       q    Type
REMARK                         _______ _______ _______ _____ _____    ______ ____
ROOT
ATOM      1  C   UNL     1       2.791  -1.133  -0.910  0.00  0.00    +0.068 C 
ENDROOT
BRANCH   1   2
ATOM      2  C   UNL     1       2.338  -2.525  -0.512  0.00  0.00    -0.041 A 
ATOM      3  C   UNL     1       0.987  -2.887  -0.511  0.00  0.00    +0.053 A 
ATOM      4  C   UNL     1       0.615  -4.192  -0.201  0.00  0.00    +0.158 A 
ATOM      5  C   UNL     1       1.567  -5.161   0.084  0.00  0.00    +0.158 A 
ATOM      6  C   UNL     1       2.915  -4.834   0.073  0.00  0.00    +0.049 A 
ATOM      7  C   UNL     1       3.298  -3.518  -0.220  0.00  0.00    +0.007 A 
BRANCH   4   8
ATOM      8  O   UNL     1      -0.713  -4.513  -0.200  0.00  0.00    -0.503 OA
ATOM      9  H   UNL     1      -0.732  -5.465   0.024  0.00  0.00    +0.292 HD
ENDBRANCH   4   8
BRANCH   5  10
ATOM     10  O   UNL     1       1.125  -6.426   0.351  0.00  0.00    -0.503 OA
ATOM     11  H   UNL     1       1.902  -6.996   0.486  0.00  0.00    +0.292 HD
ENDBRANCH   5  10
ENDBRANCH   1   2
BRANCH   1  13
ATOM     12  C   UNL     1       3.011  -0.122   1.443  0.00  0.00    +0.040 C 
ATOM     13  C   UNL     1       2.445   0.056   0.029  0.00  0.00    +0.116 C 
BRANCH  13  14
ATOM     14  N   UNL     1       0.978   0.364   0.120  0.00  0.00    -0.316 NA
ATOM     15  H   UNL     1       0.621  -0.009   1.005  0.00  0.00    +0.119 HD
ATOM     16  H   UNL     1       0.482  -0.168  -0.599  0.00  0.00    +0.119 HD
ENDBRANCH  13  14
BRANCH  13  17
ATOM     17  C   UNL     1       3.124   1.311  -0.594  0.00  0.00    +0.325 C 
ATOM     18  O   UNL     1       4.315   1.433  -0.826  0.00  0.00    -0.249 OA
BRANCH  17  19
ATOM     19  O   UNL     1       2.210   2.279  -0.868  0.00  0.00    -0.479 OA
ATOM     20  H   UNL     1       1.344   1.912  -0.549  0.00  0.00    +0.295 HD
ENDBRANCH  17  19
ENDBRANCH  13  17
ENDBRANCH   1  13
TORSDOF 7
