REMARK  Name = 
REMARK  35 active torsions:
REMARK  status: ('A' for Active; 'I' for Inactive)
REMARK    1  A    between atoms: C_1  and  C_2
REMARK    2  A    between atoms: C_2  and  C_3
REMARK    3  A    between atoms: C_2  and  C_4
REMARK    4  A    between atoms: C_4  and  C_5
REMARK    5  A    between atoms: C_5  and  N_6
REMARK    6  A    between atoms: C_5  and  C_61
REMARK    7  A    between atoms: C_7  and  C_9
REMARK    8  A    between atoms: C_9  and  N_10
REMARK    9  A    between atoms: C_11  and  C_13
REMARK   10  A    between atoms: C_13  and  C_14
REMARK   11  A    between atoms: C_13  and  N_22
REMARK   12  A    between atoms: C_14  and  C_15
REMARK   13  A    between atoms: C_18  and  O_19
REMARK   14  A    between atoms: C_23  and  CA_25
REMARK   15  A    between atoms: CA_25  and  C_26
REMARK   16  A    between atoms: CA_25  and  N_28
REMARK   17  A    between atoms: C_26  and  O_27
REMARK   18  A    between atoms: C_29  and  CA_31
REMARK   19  A    between atoms: CA_31  and  CB_32
REMARK   20  A    between atoms: CA_31  and  N_42
REMARK   21  A    between atoms: CB_32  and  CG_33
REMARK   22  A    between atoms: C_43  and  CA_45
REMARK   23  A    between atoms: CA_45  and  CB_46
REMARK   24  A    between atoms: CA_45  and  N_52
REMARK   25  A    between atoms: CB_46  and  CG_47
REMARK   26  A    between atoms: C_53  and  CA_55
REMARK   27  A    between atoms: N_63  and  C_64
REMARK   28  A    between atoms: C_64  and  C_65
REMARK   29  A    between atoms: C_64  and  C_72
REMARK   30  A    between atoms: C_65  and  C_66
REMARK   31  A    between atoms: C_66  and  C_67
REMARK   32  A    between atoms: C_67  and  N_68
REMARK   33  A    between atoms: C_78  and  C_79
REMARK   34  A    between atoms: N_81  and  C_82
REMARK   35  A    between atoms: C_82  and  C_83
REMARK                            x       y       z     vdW  Elec       q    Type
REMARK                         _______ _______ _______ _____ _____    ______ ____
ROOT
ATOM      1  C   UNL     1       4.645  -6.134   1.433  0.00  0.00    +0.163 C 
ENDROOT
BRANCH   1   2
ATOM      2  N   UNL     1       5.002  -7.560   1.258  0.00  0.00    -0.302 N 
ATOM      3  H   UNL     1       4.720  -7.982   0.382  0.00  0.00    +0.150 HD
ATOM      4  C   UNL     1       6.065  -8.169   1.897  0.00  0.00    +0.236 C 
ATOM      5  O   UNL     1       6.728  -7.613   2.770  0.00  0.00    -0.274 OA
BRANCH   4   6
ATOM      6  CA  UNL     1       6.187  -9.683   1.618  0.00  0.00    +0.184 C 
BRANCH   6   7
ATOM      7  N   UNL     1       5.464 -10.354   2.712  0.00  0.00    -0.301 N 
ATOM      8  H   UNL     1       5.737 -10.083   3.644  0.00  0.00    +0.150 HD
ATOM      9  C   UNL     1       4.505 -11.310   2.498  0.00  0.00    +0.234 C 
ATOM     10  O   UNL     1       4.087 -11.505   1.356  0.00  0.00    -0.274 OA
BRANCH   9  11
ATOM     11  CA  UNL     1       3.907 -12.063   3.736  0.00  0.00    +0.163 C 
BRANCH  11  12
ATOM     12  N   UNL     1       2.465 -11.732   3.847  0.00  0.00    -0.302 N 
ATOM     13  H   UNL     1       2.231 -10.981   4.476  0.00  0.00    +0.150 HD
ATOM     14  C   UNL     1       1.489 -12.295   3.041  0.00  0.00    +0.234 C 
ATOM     15  O   UNL     1       1.772 -13.083   2.142  0.00  0.00    -0.274 OA
BRANCH  14  16
ATOM     16  CA  UNL     1       0.006 -11.859   3.294  0.00  0.00    +0.165 C 
BRANCH  16  17
ATOM     17  N   UNL     1      -0.520 -11.044   2.194  0.00  0.00    -0.302 N 
ATOM     18  H   UNL     1      -0.429 -10.035   2.220  0.00  0.00    +0.150 HD
ATOM     19  C   UNL     1      -1.217 -11.591   1.135  0.00  0.00    +0.234 C 
ATOM     20  O   UNL     1      -1.487 -12.786   1.053  0.00  0.00    -0.274 OA
BRANCH  19  21
ATOM     21  CA  UNL     1      -1.786 -10.569   0.134  0.00  0.00    +0.159 C 
ATOM     22  N   UNL     1      -1.195  -9.255   0.234  0.00  0.00    -0.304 N 
ATOM     23  H   UNL     1      -0.205  -9.050   0.208  0.00  0.00    +0.149 HD
ATOM     24  C   UNL     1      -2.116  -8.251   0.007  0.00  0.00    +0.214 C 
ATOM     25  O   UNL     1      -1.870  -7.061  -0.046  0.00  0.00    -0.276 OA
ATOM     26  C   UNL     1      -3.461  -8.888  -0.200  0.00  0.00    +0.098 C 
ATOM     27  C   UNL     1      -3.256 -10.274   0.402  0.00  0.00    +0.041 C 
ENDBRANCH  19  21
ENDBRANCH  16  17
BRANCH  16  28
ATOM     28  CB  UNL     1      -0.205 -11.175   4.654  0.00  0.00    +0.086 C 
BRANCH  28  29
ATOM     29  CG  UNL     1      -1.616 -10.827   4.982  0.00  0.00    +0.038 A 
ATOM     30  ND1 UNL     1      -2.626 -11.747   5.136  0.00  0.00    -0.348 N 
ATOM     31  HD1 UNL     1      -2.566 -12.748   5.002  0.00  0.00    +0.166 HD
ATOM     32  CE1 UNL     1      -3.745 -11.063   5.519  0.00  0.00    +0.196 A 
ATOM     33  NE2 UNL     1      -3.525  -9.771   5.585  0.00  0.00    -0.244 NA
ATOM     34  CD2 UNL     1      -2.209  -9.612   5.251  0.00  0.00    +0.133 A 
ENDBRANCH  28  29
ENDBRANCH  16  28
ENDBRANCH  14  16
ENDBRANCH  11  12
BRANCH  11  35
ATOM     35  CB  UNL     1       4.579 -11.814   5.113  0.00  0.00    +0.069 C 
BRANCH  35  36
ATOM     36  CG  UNL     1       6.067 -12.005   5.177  0.00  0.00    -0.020 A 
ATOM     37  CD2 UNL     1       6.827 -13.179   4.874  0.00  0.00    +0.003 A 
ATOM     38  CE2 UNL     1       8.169 -12.797   4.830  0.00  0.00    +0.047 A 
ATOM     39  CZ2 UNL     1       9.189 -13.648   4.392  0.00  0.00    +0.026 A 
ATOM     40  CH2 UNL     1       8.835 -14.950   4.036  0.00  0.00    +0.002 A 
ATOM     41  CZ3 UNL     1       7.519 -15.391   4.154  0.00  0.00    +0.001 A 
ATOM     42  NE1 UNL     1       8.240 -11.499   5.271  0.00  0.00    -0.360 N 
ATOM     43  HE1 UNL     1       9.098 -10.972   5.370  0.00  0.00    +0.165 HD
ATOM     44  CE3 UNL     1       6.506 -14.517   4.569  0.00  0.00    +0.010 A 
ATOM     45  CD1 UNL     1       6.982 -11.019   5.510  0.00  0.00    +0.087 A 
ENDBRANCH  35  36
ENDBRANCH  11  35
ENDBRANCH   9  11
ENDBRANCH   6   7
BRANCH   6  46
ATOM     46  C   UNL     1       7.661 -10.119   1.608  0.00  0.00    +0.187 C 
BRANCH  46  47
ATOM     47  O   UNL     1       7.803 -11.520   1.366  0.00  0.00    -0.393 OA
ATOM     48  H   UNL     1       7.392 -11.993   2.114  0.00  0.00    +0.209 HD
ENDBRANCH  46  47
ENDBRANCH   6  46
ENDBRANCH   4   6
ENDBRANCH   1   2
BRANCH   1  51
ATOM     49  N   UNL     1       4.734  -4.005   0.098  0.00  0.00    -0.305 N 
ATOM     50  H   UNL     1       3.810  -3.793   0.446  0.00  0.00    +0.149 HD
ATOM     51  C   UNL     1       5.252  -5.274   0.276  0.00  0.00    +0.234 C 
ATOM     52  O   UNL     1       6.215  -5.671  -0.384  0.00  0.00    -0.274 OA
BRANCH  49  53
ATOM     53  C   UNL     1       5.270  -3.079  -0.896  0.00  0.00    +0.200 C 
BRANCH  53  56
ATOM     54  N   UNL     1       4.136  -0.969  -1.523  0.00  0.00    -0.303 N 
ATOM     55  H   UNL     1       4.097  -1.366  -2.457  0.00  0.00    +0.149 HD
ATOM     56  C   UNL     1       4.898  -1.617  -0.570  0.00  0.00    +0.231 C 
ATOM     57  O   UNL     1       5.199  -1.089   0.498  0.00  0.00    -0.274 OA
BRANCH  54  58
ATOM     58  C   UNL     1       3.841   0.474  -1.453  0.00  0.00    +0.159 C 
BRANCH  58  59
ATOM     59  C   UNL     1       4.596   1.141  -2.625  0.00  0.00    +0.234 C 
ATOM     60  N   UNL     1       4.892   2.488  -2.490  0.00  0.00    -0.302 N 
ATOM     61  H   UNL     1       4.777   2.940  -1.588  0.00  0.00    +0.150 HD
ATOM     62  O   UNL     1       4.866   0.510  -3.649  0.00  0.00    -0.274 OA
BRANCH  60  63
ATOM     63  C   UNL     1       5.633   3.203  -3.537  0.00  0.00    +0.159 C 
BRANCH  63  64
ATOM     64  C   UNL     1       6.781   4.037  -2.916  0.00  0.00    +0.237 C 
ATOM     65  N   UNL     1       7.918   3.350  -2.543  0.00  0.00    -0.288 N 
ATOM     66  C   UNL     1       9.197   4.021  -2.272  0.00  0.00    +0.162 C 
ATOM     67  C   UNL     1      10.134   2.871  -1.837  0.00  0.00    +0.033 C 
ATOM     68  C   UNL     1       9.269   1.613  -1.836  0.00  0.00    +0.021 C 
ATOM     69  C   UNL     1       8.165   1.947  -2.807  0.00  0.00    +0.109 C 
ATOM     70  O   UNL     1       6.662   5.244  -2.698  0.00  0.00    -0.274 OA
BRANCH  66  71
ATOM     71  C   UNL     1       9.170   5.166  -1.234  0.00  0.00    +0.234 C 
ATOM     72  N   UNL     1       8.987   6.406  -1.804  0.00  0.00    -0.305 N 
ATOM     73  H   UNL     1       8.519   6.424  -2.706  0.00  0.00    +0.149 HD
ATOM     74  O   UNL     1       9.274   4.981  -0.021  0.00  0.00    -0.274 OA
BRANCH  72  75
ATOM     75  C   UNL     1       8.931   7.628  -1.017  0.00  0.00    +0.199 C 
BRANCH  75  76
ATOM     76  C   UNL     1       7.522   8.048  -0.588  0.00  0.00    +0.228 C 
ATOM     77  O   UNL     1       7.247   9.193  -0.239  0.00  0.00    -0.274 OA
ATOM     78  N   UNL     1       6.591   7.057  -0.496  0.00  0.00    -0.328 N 
ATOM     79  H   UNL     1       5.647   7.335  -0.274  0.00  0.00    +0.145 HD
ATOM     80  H   UNL     1       6.716   6.213  -1.049  0.00  0.00    +0.145 HD
ENDBRANCH  75  76
ENDBRANCH  72  75
ENDBRANCH  66  71
ENDBRANCH  63  64
BRANCH  63  81
ATOM     81  C   UNL     1       4.699   4.067  -4.400  0.00  0.00    +0.035 C 
BRANCH  81  82
ATOM     82  C   UNL     1       5.411   4.818  -5.542  0.00  0.00    +0.043 C 
BRANCH  82  83
ATOM     83  C   UNL     1       6.223   3.915  -6.473  0.00  0.00    +0.243 C 
BRANCH  83  84
ATOM     84  N   UNL     1       6.883   4.750  -7.473  0.00  0.00    -0.114 NA
ATOM     85  C   UNL     1       7.626   4.174  -8.342  0.00  0.00    +0.376 C 
ATOM     86  N   UNL     1       8.323   4.929  -9.214  0.00  0.00    -0.289 N 
ATOM     87  H   UNL     1       8.422   4.572 -10.152  0.00  0.00    +0.255 HD
ATOM     88  H   UNL     1       8.014   5.898  -9.197  0.00  0.00    +0.255 HD
ATOM     89  N   UNL     1       7.889   2.856  -8.494  0.00  0.00    -0.289 N 
ATOM     90  H   UNL     1       8.143   2.552  -9.421  0.00  0.00    +0.255 HD
ATOM     91  H   UNL     1       7.261   2.219  -8.027  0.00  0.00    +0.255 HD
ENDBRANCH  83  84
ENDBRANCH  82  83
ENDBRANCH  81  82
ENDBRANCH  63  81
ENDBRANCH  60  63
ENDBRANCH  58  59
BRANCH  58  92
ATOM     92  C   UNL     1       2.338   0.756  -1.633  0.00  0.00    +0.034 C 
BRANCH  92  94
ATOM     93  C   UNL     1       1.676   0.419   0.812  0.00  0.00    +0.007 C 
ATOM     94  C   UNL     1       1.393   0.047  -0.643  0.00  0.00    -0.015 C 
ATOM     95  C   UNL     1      -0.066   0.382  -0.979  0.00  0.00    +0.007 C 
ENDBRANCH  92  94
ENDBRANCH  58  92
ENDBRANCH  54  58
ENDBRANCH  53  56
ENDBRANCH  49  53
ENDBRANCH   1  51
BRANCH   1  96
ATOM     96  C   UNL     1       3.120  -5.965   1.660  0.00  0.00    +0.067 C 
BRANCH  96  97
ATOM     97  C   UNL     1       2.232  -6.271   0.472  0.00  0.00    -0.045 A 
ATOM     98  C   UNL     1       1.446  -5.264  -0.110  0.00  0.00    +0.007 A 
ATOM     99  C   UNL     1       0.708  -5.520  -1.268  0.00  0.00    +0.045 A 
ATOM    100  C   UNL     1       0.753  -6.780  -1.850  0.00  0.00    +0.117 A 
ATOM    101  C   UNL     1       1.465  -7.810  -1.251  0.00  0.00    +0.045 A 
ATOM    102  C   UNL     1       2.168  -7.563  -0.070  0.00  0.00    +0.007 A 
BRANCH 100 103
ATOM    103  O   UNL     1       0.057  -6.978  -3.005  0.00  0.00    -0.507 OA
ATOM    104  H   UNL     1       0.193  -7.894  -3.296  0.00  0.00    +0.292 HD
ENDBRANCH 100 103
ENDBRANCH  96  97
ENDBRANCH   1  96
TORSDOF 33
