REMARK  Name = 
REMARK  15 active torsions:
REMARK  status: ('A' for Active; 'I' for Inactive)
REMARK    1  A    between atoms: C_1  and  C_2
REMARK    2  A    between atoms: C_2  and  C_3
REMARK    3  A    between atoms: C_2  and  C_4
REMARK    4  A    between atoms: C_2  and  C_7
REMARK    5  A    between atoms: C_4  and  O_5
REMARK    6  A    between atoms: C_10  and  C_13
REMARK    7  A    between atoms: C_13  and  O_14
REMARK    8  A    between atoms: C_13  and  C_15
REMARK    9  A    between atoms: C_15  and  C_16
REMARK   10  A    between atoms: C_16  and  C_17
REMARK   11  A    between atoms: C_17  and  N_18
REMARK   12  A    between atoms: C_21  and  C_24
REMARK   13  A    between atoms: C_24  and  O_25
REMARK   14  A    between atoms: C_24  and  C_26
REMARK   15  A    between atoms: C_24  and  C_32
REMARK                            x       y       z     vdW  Elec       q    Type
REMARK                         _______ _______ _______ _____ _____    ______ ____
ROOT
ATOM      1  N   UNL     1       3.927  -9.537   1.072  0.00  0.00    -0.302 NA
ATOM      2  C   UNL     1       4.760  -8.879   0.058  0.00  0.00    +0.085 C 
ATOM      3  C   UNL     1       4.340  -9.169  -1.379  0.00  0.00    +0.022 C 
ATOM      4  C   UNL     1       4.304 -10.682  -1.694  0.00  0.00    +0.032 C 
ATOM      5  C   UNL     1       3.302 -11.275  -0.683  0.00  0.00    +0.022 C 
ATOM      6  C   UNL     1       3.597 -10.936   0.779  0.00  0.00    +0.085 C 
ENDROOT
BRANCH   1   7
ATOM      7  C   UNL     1       2.773  -8.721   1.458  0.00  0.00    +0.084 C 
BRANCH   7   8
ATOM      8  C   UNL     1       2.225  -9.112   2.840  0.00  0.00    +0.018 C 
BRANCH   8   9
ATOM      9  C   UNL     1       3.286  -9.359   3.922  0.00  0.00    +0.037 C 
BRANCH   9  10
ATOM     10  C   UNL     1       4.105  -8.122   4.328  0.00  0.00    +0.145 C 
BRANCH  10  14
ATOM     11  C   UNL     1       7.151  -8.677   7.387  0.00  0.00    -0.031 A 
ATOM     12  C   UNL     1       6.391  -9.769   6.934  0.00  0.00    +0.005 A 
ATOM     13  C   UNL     1       5.399  -9.609   5.968  0.00  0.00    +0.006 A 
ATOM     14  C   UNL     1       5.129  -8.351   5.421  0.00  0.00    -0.019 A 
ATOM     15  C   UNL     1       5.877  -7.257   5.880  0.00  0.00    +0.006 A 
ATOM     16  C   UNL     1       6.876  -7.416   6.844  0.00  0.00    +0.005 A 
BRANCH  11  18
ATOM     17  C   UNL     1       8.918  -7.619   8.941  0.00  0.00    +0.027 C 
ATOM     18  C   UNL     1       8.242  -8.911   8.445  0.00  0.00    +0.087 C 
ATOM     19  C   UNL     1       9.328  -9.808   7.811  0.00  0.00    +0.027 C 
BRANCH  18  20
ATOM     20  C   UNL     1       7.682  -9.601   9.710  0.00  0.00    +0.315 C 
ATOM     21  O   UNL     1       8.317 -10.393  10.390  0.00  0.00    -0.250 OA
BRANCH  20  22
ATOM     22  O   UNL     1       6.435  -9.215  10.064  0.00  0.00    -0.480 OA
ATOM     23  H   UNL     1       6.010  -8.595   9.440  0.00  0.00    +0.295 HD
ENDBRANCH  20  22
ENDBRANCH  18  20
ENDBRANCH  11  18
ENDBRANCH  10  14
BRANCH  10  24
ATOM     24  O   UNL     1       4.823  -7.579   3.224  0.00  0.00    -0.387 OA
ATOM     25  H   UNL     1       5.121  -8.337   2.684  0.00  0.00    +0.210 HD
ENDBRANCH  10  24
ENDBRANCH   9  10
ENDBRANCH   8   9
ENDBRANCH   7   8
ENDBRANCH   1   7
BRANCH   4  26
ATOM     26  C   UNL     1       5.737 -11.374  -1.749  0.00  0.00    +0.119 C 
BRANCH  26  27
ATOM     27  C   UNL     1       6.644 -10.624  -2.750  0.00  0.00    -0.011 A 
ATOM     28  C   UNL     1       6.332 -10.563  -4.120  0.00  0.00    +0.007 A 
ATOM     29  C   UNL     1       7.090  -9.777  -4.996  0.00  0.00    +0.000 A 
ATOM     30  C   UNL     1       8.177  -9.042  -4.528  0.00  0.00    +0.000 A 
ATOM     31  C   UNL     1       8.522  -9.108  -3.182  0.00  0.00    +0.000 A 
ATOM     32  C   UNL     1       7.767  -9.894  -2.308  0.00  0.00    +0.007 A 
ENDBRANCH  26  27
BRANCH  26  33
ATOM     33  C   UNL     1       5.713 -12.894  -2.007  0.00  0.00    -0.011 A 
ATOM     34  C   UNL     1       6.751 -13.705  -1.495  0.00  0.00    +0.007 A 
ATOM     35  C   UNL     1       6.680 -15.098  -1.536  0.00  0.00    +0.000 A 
ATOM     36  C   UNL     1       5.588 -15.716  -2.132  0.00  0.00    +0.000 A 
ATOM     37  C   UNL     1       4.589 -14.941  -2.715  0.00  0.00    +0.000 A 
ATOM     38  C   UNL     1       4.659 -13.543  -2.671  0.00  0.00    +0.007 A 
ENDBRANCH  26  33
BRANCH  26  39
ATOM     39  O   UNL     1       6.333 -11.228  -0.443  0.00  0.00    -0.379 OA
ATOM     40  H   UNL     1       6.029 -11.970   0.101  0.00  0.00    +0.211 HD
ENDBRANCH  26  39
ENDBRANCH   4  26
TORSDOF 13
