REMARK  Name = 
REMARK  19 active torsions:
REMARK  status: ('A' for Active; 'I' for Inactive)
REMARK    1  A    between atoms: C_1  and  C_2
REMARK    2  A    between atoms: C_2  and  C_3
REMARK    3  A    between atoms: C_2  and  O_4
REMARK    4  A    between atoms: O_4  and  C_5
REMARK    5  A    between atoms: C_5  and  C_7
REMARK    6  A    between atoms: C_7  and  C_8
REMARK    7  A    between atoms: C_8  and  C_9
REMARK    8  A    between atoms: C_9  and  C_10
REMARK    9  A    between atoms: C_11  and  C_12
REMARK   10  A    between atoms: C_12  and  C_13
REMARK   11  A    between atoms: C_15  and  O_17
REMARK   12  A    between atoms: C_19  and  O_21
REMARK   13  A    between atoms: C_22  and  C_24
REMARK   14  A    between atoms: C_24  and  C_25
REMARK   15  A    between atoms: C_25  and  C_26
REMARK   16  A    between atoms: C_26  and  O_28
REMARK   17  A    between atoms: C_26  and  C_29
REMARK   18  A    between atoms: C_29  and  C_30
REMARK   19  A    between atoms: C_30  and  C_31
REMARK                            x       y       z     vdW  Elec       q    Type
REMARK                         _______ _______ _______ _____ _____    ______ ____
ROOT
ATOM      1  C   UNL     1       9.407   8.057   1.418  0.00  0.00    +0.027 C 
ATOM      2  C   UNL     1      10.103   8.528   0.114  0.00  0.00    +0.024 C 
ATOM      3  C   UNL     1      11.426   9.179   0.575  0.00  0.00    +0.120 C 
ATOM      4  C   UNL     1      11.432   9.131   2.100  0.00  0.00    +0.063 C 
ATOM      5  C   UNL     1      10.560   7.929   2.423  0.00  0.00    +0.121 C 
ENDROOT
BRANCH   5   6
ATOM      6  O   UNL     1      11.330   6.751   2.199  0.00  0.00    -0.391 OA
ATOM      7  H   UNL     1      10.884   6.021   2.666  0.00  0.00    +0.210 HD
ENDBRANCH   5   6
BRANCH   3   8
ATOM      8  O   UNL     1      12.515   8.419   0.057  0.00  0.00    -0.391 OA
ATOM      9  H   UNL     1      12.492   7.553   0.514  0.00  0.00    +0.210 HD
ENDBRANCH   3   8
BRANCH   2  10
ATOM     10  C   UNL     1       9.221   9.496  -0.702  0.00  0.00    +0.009 C 
BRANCH  10  11
ATOM     11  C   UNL     1       9.925   9.914  -1.998  0.00  0.00    +0.032 C 
BRANCH  11  12
ATOM     12  C   UNL     1       9.146  10.897  -2.879  0.00  0.00    +0.115 C 
BRANCH  12  13
ATOM     13  O   UNL     1       8.830  12.074  -2.135  0.00  0.00    -0.392 OA
ATOM     14  H   UNL     1       8.152  11.842  -1.479  0.00  0.00    +0.210 HD
ENDBRANCH  12  13
BRANCH  12  15
ATOM     15  C   UNL     1       9.979  11.343  -4.093  0.00  0.00    +0.036 C 
BRANCH  15  16
ATOM     16  C   UNL     1      10.391  10.180  -4.998  0.00  0.00    +0.037 C 
BRANCH  16  17
ATOM     17  C   UNL     1      11.272  10.618  -6.139  0.00  0.00    -0.047 A 
ATOM     18  C   UNL     1      10.718  10.978  -7.371  0.00  0.00    +0.003 A 
ATOM     19  C   UNL     1      11.543  11.363  -8.428  0.00  0.00    +0.000 A 
ATOM     20  C   UNL     1      12.927  11.396  -8.259  0.00  0.00    +0.000 A 
ATOM     21  C   UNL     1      13.488  11.049  -7.031  0.00  0.00    +0.000 A 
ATOM     22  C   UNL     1      12.664  10.664  -5.974  0.00  0.00    +0.003 A 
ENDBRANCH  16  17
ENDBRANCH  15  16
ENDBRANCH  12  15
ENDBRANCH  11  12
ENDBRANCH  10  11
ENDBRANCH   2  10
BRANCH   1  23
ATOM     23  C   UNL     1       8.606   6.768   1.199  0.00  0.00    +0.033 C 
BRANCH  23  25
ATOM     24  C   UNL     1       6.473   6.221   2.465  0.00  0.00    -0.031 C 
ATOM     25  C   UNL     1       7.807   6.358   2.407  0.00  0.00    -0.031 C 
BRANCH  24  26
ATOM     26  C   UNL     1       5.505   6.503   1.350  0.00  0.00    +0.027 C 
BRANCH  26  27
ATOM     27  C   UNL     1       4.158   7.033   1.832  0.00  0.00    +0.015 C 
BRANCH  27  28
ATOM     28  C   UNL     1       4.252   8.362   2.587  0.00  0.00    +0.121 C 
BRANCH  28  29
ATOM     29  C   UNL     1       2.874   8.836   2.971  0.00  0.00    +0.307 C 
ATOM     30  O   UNL     1       1.828   8.274   2.671  0.00  0.00    -0.251 OA
BRANCH  29  31
ATOM     31  O   UNL     1       2.960   9.976   3.716  0.00  0.00    -0.462 OA
BRANCH  31  33
ATOM     32  C   UNL     1       1.304   9.716   5.460  0.00  0.00    +0.052 C 
ATOM     33  C   UNL     1       1.702  10.480   4.201  0.00  0.00    +0.170 C 
ATOM     34  C   UNL     1       1.875  11.962   4.500  0.00  0.00    +0.052 C 
ENDBRANCH  31  33
ENDBRANCH  29  31
ENDBRANCH  28  29
ENDBRANCH  27  28
ENDBRANCH  26  27
ENDBRANCH  24  26
ENDBRANCH  23  25
ENDBRANCH   1  23
TORSDOF 17
