REMARK  Name = 
REMARK  13 active torsions:
REMARK  status: ('A' for Active; 'I' for Inactive)
REMARK    1  A    between atoms: N_1  and  C_2
REMARK    2  A    between atoms: C_2  and  C_4
REMARK    3  A    between atoms: C_2  and  C_20
REMARK    4  A    between atoms: C_4  and  C_5
REMARK    5  A    between atoms: C_5  and  C_6
REMARK    6  A    between atoms: N_8  and  C_9
REMARK    7  A    between atoms: C_9  and  C_11
REMARK    8  A    between atoms: C_9  and  C_13
REMARK    9  A    between atoms: C_11  and  S_12
REMARK   10  A    between atoms: N_15  and  CA_16
REMARK   11  A    between atoms: CA_16  and  C_17
REMARK   12  A    between atoms: C_17  and  O_18
REMARK   13  A    between atoms: C_20  and  O_21
REMARK                            x       y       z     vdW  Elec       q    Type
REMARK                         _______ _______ _______ _____ _____    ______ ____
ROOT
ATOM      1  C   UNK A   1       2.739   1.225   3.804  0.00  0.00    +0.214 C 
ATOM      2  N   UNK A   1       2.744   2.409   4.505  0.00  0.00    -0.303 N 
ATOM      3  H   UNK A   1       2.601   3.278   3.998  0.00  0.00    +0.149 HD
ATOM      4  O   UNK A   1       3.067   0.153   4.302  0.00  0.00    -0.276 OA
ENDROOT
BRANCH   1   5
ATOM      5  C   UNK A   1       2.283   1.337   2.365  0.00  0.00    +0.098 C 
BRANCH   5   6
ATOM      6  C   UNK A   1       1.090   0.404   2.130  0.00  0.00    +0.039 C 
BRANCH   6   7
ATOM      7  C   UNK A   1       0.498   0.464   0.719  0.00  0.00    +0.161 C 
BRANCH   7   8
ATOM      8  N   UNK A   1       1.448  -0.003  -0.331  0.00  0.00    -0.318 NA
ATOM      9  H   UNK A   1       2.405   0.255  -0.075  0.00  0.00    +0.119 HD
ATOM     10  H   UNK A   1       1.463  -1.029  -0.296  0.00  0.00    +0.119 HD
ENDBRANCH   7   8
BRANCH   7  11
ATOM     11  C   UNK A   1       0.033   1.890   0.380  0.00  0.00    +0.322 C 
ATOM     12  O   UNK A   1      -0.638   2.602   1.111  0.00  0.00    -0.249 OA
BRANCH  11  13
ATOM     13  O   UNK A   1       0.497   2.284  -0.833  0.00  0.00    -0.480 OA
ATOM     14  H   UNK A   1       0.987   1.504  -1.198  0.00  0.00    +0.295 HD
ENDBRANCH  11  13
ENDBRANCH   7  11
ENDBRANCH   6   7
ENDBRANCH   5   6
ENDBRANCH   1   5
BRANCH   2  15
ATOM     15  C   UNK A   1       3.313   2.488   5.855  0.00  0.00    +0.168 C 
BRANCH  15  16
ATOM     16  C   UNK A   1       2.550   3.565   6.651  0.00  0.00    +0.235 C 
ATOM     17  N   GLY A   2       1.177   3.395   6.686  0.00  0.00    -0.303 N 
ATOM     18  H   GLY A   2       0.768   2.773   5.993  0.00  0.00    +0.149 HD
ATOM     19  O   UNK A   1       3.100   4.438   7.313  0.00  0.00    -0.274 OA
BRANCH  17  20
ATOM     20  CA  GLY A   2       0.315   4.431   7.269  0.00  0.00    +0.224 C 
BRANCH  20  21
ATOM     21  C   GLY A   2       0.035   4.252   8.762  0.00  0.00    +0.322 C 
ATOM     22  OXT GLY A   2      -0.674   5.003   9.415  0.00  0.00    -0.249 OA
BRANCH  21  23
ATOM     23  O   GLY A   2       0.612   3.148   9.292  0.00  0.00    -0.480 OA
ATOM     24  H   GLY A   2       1.167   2.706   8.622  0.00  0.00    +0.295 HD
ENDBRANCH  21  23
ENDBRANCH  20  21
ENDBRANCH  17  20
ENDBRANCH  15  16
BRANCH  15  25
ATOM     25  C   UNK A   1       4.819   2.806   5.892  0.00  0.00    +0.097 C 
BRANCH  25  26
ATOM     26  S   UNK A   1       5.898   1.617   5.025  0.00  0.00    -0.176 S 
ATOM     27  H   UNK A   1       5.092   0.545   5.142  0.00  0.00    +0.102 HD
ENDBRANCH  25  26
ENDBRANCH  15  25
ENDBRANCH   2  15
TORSDOF 13
