REMARK  Name = 
REMARK  17 active torsions:
REMARK  status: ('A' for Active; 'I' for Inactive)
REMARK    1  A    between atoms: C_1  and  C_2
REMARK    2  A    between atoms: C_2  and  C_3
REMARK    3  A    between atoms: C_3  and  C_4
REMARK    4  A    between atoms: C_4  and  C_5
REMARK    5  A    between atoms: C_5  and  C_6
REMARK    6  A    between atoms: C_6  and  O_8
REMARK    7  A    between atoms: C_6  and  C_9
REMARK    8  A    between atoms: C_10  and  C_11
REMARK    9  A    between atoms: C_13  and  O_15
REMARK   10  A    between atoms: C_19  and  C_21
REMARK   11  A    between atoms: C_21  and  C_22
REMARK   12  A    between atoms: C_22  and  C_23
REMARK   13  A    between atoms: C_23  and  C_24
REMARK   14  A    between atoms: C_24  and  C_25
REMARK   15  A    between atoms: C_25  and  C_26
REMARK   16  A    between atoms: C_26  and  C_27
REMARK   17  A    between atoms: C_27  and  O_28
REMARK                            x       y       z     vdW  Elec       q    Type
REMARK                         _______ _______ _______ _____ _____    ______ ____
ROOT
ATOM      1  C   UNL     1       8.833  -4.236  -4.281  0.00  0.00    +0.051 C 
ATOM      2  C   UNL     1       8.226  -5.659  -4.256  0.00  0.00    +0.065 C 
ATOM      3  C   UNL     1       9.424  -6.514  -4.651  0.00  0.00    +0.140 C 
ATOM      4  O   UNL     1       9.422  -7.739  -4.689  0.00  0.00    -0.297 OA
ATOM      5  C   UNL     1      10.632  -5.711  -5.004  0.00  0.00    +0.106 C 
ATOM      6  C   UNL     1      10.364  -4.445  -4.222  0.00  0.00    +0.129 C 
ENDROOT
BRANCH   6   7
ATOM      7  O   UNL     1      11.078  -3.351  -4.784  0.00  0.00    -0.391 OA
ATOM      8  H   UNL     1      10.810  -3.235  -5.711  0.00  0.00    +0.210 HD
ENDBRANCH   6   7
BRANCH   1  10
ATOM      9  C   UNL     1       7.758  -2.202  -3.254  0.00  0.00    -0.000 C 
ATOM     10  C   UNL     1       8.406  -3.371  -3.111  0.00  0.00    -0.022 C 
BRANCH   9  11
ATOM     11  C   UNL     1       7.458  -1.166  -2.193  0.00  0.00    +0.137 C 
BRANCH  11  12
ATOM     12  O   UNL     1       7.924  -1.595  -0.919  0.00  0.00    -0.388 OA
ATOM     13  H   UNL     1       7.441  -2.409  -0.703  0.00  0.00    +0.210 HD
ENDBRANCH  11  12
BRANCH  11  14
ATOM     14  C   UNL     1       8.098   0.205  -2.495  0.00  0.00    +0.035 C 
BRANCH  14  15
ATOM     15  C   UNL     1       7.652   0.773  -3.843  0.00  0.00    +0.003 C 
BRANCH  15  16
ATOM     16  C   UNL     1       8.250   2.140  -4.171  0.00  0.00    -0.000 C 
BRANCH  16  18
ATOM     17  C   UNL     1       8.367   3.906  -5.984  0.00  0.00    +0.004 C 
ATOM     18  C   UNL     1       7.798   2.562  -5.572  0.00  0.00    -0.003 C 
ENDBRANCH  16  18
ENDBRANCH  15  16
ENDBRANCH  14  15
ENDBRANCH  11  14
ENDBRANCH   9  11
ENDBRANCH   1  10
BRANCH   2  19
ATOM     19  C   UNL     1       7.040  -5.830  -5.233  0.00  0.00    +0.012 C 
BRANCH  19  20
ATOM     20  C   UNL     1       6.493  -7.263  -5.202  0.00  0.00    +0.001 C 
BRANCH  20  21
ATOM     21  C   UNL     1       5.330  -7.554  -6.152  0.00  0.00    +0.000 C 
BRANCH  21  22
ATOM     22  C   UNL     1       4.988  -9.050  -6.060  0.00  0.00    +0.001 C 
BRANCH  22  23
ATOM     23  C   UNL     1       3.842  -9.454  -6.982  0.00  0.00    +0.011 C 
BRANCH  23  24
ATOM     24  C   UNL     1       3.523 -10.945  -6.847  0.00  0.00    +0.120 C 
BRANCH  24  25
ATOM     25  C   UNL     1       2.379 -11.354  -7.746  0.00  0.00    +0.305 C 
ATOM     26  O   UNL     1       1.770 -10.614  -8.500  0.00  0.00    -0.251 OA
BRANCH  25  27
ATOM     27  O   UNL     1       2.081 -12.670  -7.634  0.00  0.00    -0.481 OA
ATOM     28  H   UNL     1       2.644 -13.149  -6.998  0.00  0.00    +0.295 HD
ENDBRANCH  25  27
ENDBRANCH  24  25
ENDBRANCH  23  24
ENDBRANCH  22  23
ENDBRANCH  21  22
ENDBRANCH  20  21
ENDBRANCH  19  20
ENDBRANCH   2  19
TORSDOF 16
