REMARK  Name = 
REMARK  4 active torsions:
REMARK  status: ('A' for Active; 'I' for Inactive)
REMARK    1  A    between atoms: C_1  and  C_2
REMARK    2  A    between atoms: C_2  and  C_3
REMARK    3  A    between atoms: C_3  and  N_4
REMARK    4  A    between atoms: N_4  and  C_5
REMARK                            x       y       z     vdW  Elec       q    Type
REMARK                         _______ _______ _______ _____ _____    ______ ____
ROOT
ATOM      1  C   UNL     1       5.026  -2.449  -1.706  0.00  0.00    +0.059 C 
ATOM      2  C   UNL     1       4.355  -3.816  -1.351  0.00  0.00    +0.063 C 
ATOM      3  C   UNL     1       3.059  -3.967  -2.084  0.00  0.00    +0.016 A 
ATOM      4  S   UNL     1       1.879  -5.146  -1.745  0.00  0.00    -0.057 S 
ATOM      5  C   UNL     1       0.915  -4.528  -3.034  0.00  0.00    +0.156 A 
ATOM      6  N   UNL     1       1.437  -3.525  -3.698  0.00  0.00    -0.230 NA
ATOM      7  N   UNL     1      -0.281  -5.058  -3.344  0.00  0.00    -0.338 N 
ATOM      8  H   UNL     1      -0.627  -4.818  -4.267  0.00  0.00    +0.144 HD
ATOM      9  H   UNL     1      -0.461  -6.013  -3.064  0.00  0.00    +0.144 HD
ATOM     10  C   UNL     1       2.662  -3.205  -3.160  0.00  0.00    +0.054 A 
ATOM     11  C   UNL     1       3.470  -2.086  -3.703  0.00  0.00    +0.058 C 
ATOM     12  C   UNL     1       4.928  -2.179  -3.232  0.00  0.00    +0.025 C 
ENDROOT
BRANCH   1  13
ATOM     13  N   UNL     1       6.424  -2.443  -1.224  0.00  0.00    -0.313 NA
ATOM     14  H   UNL     1       6.442  -2.692  -0.234  0.00  0.00    +0.122 HD
BRANCH  13  15
ATOM     15  C   UNL     1       7.079  -1.143  -1.398  0.00  0.00    +0.081 C 
BRANCH  15  17
ATOM     16  C   UNL     1       9.199   0.165  -1.101  0.00  0.00    +0.005 C 
ATOM     17  C   UNL     1       8.508  -1.171  -0.856  0.00  0.00    +0.012 C 
ENDBRANCH  15  17
ENDBRANCH  13  15
ENDBRANCH   1  13
TORSDOF 3
