REMARK  Name = 
REMARK  5 active torsions:
REMARK  status: ('A' for Active; 'I' for Inactive)
REMARK    1  A    between atoms: C_1  and  C_2
REMARK    2  A    between atoms: C_4  and  C_17
REMARK    3  A    between atoms: N_8  and  C_9
REMARK    4  A    between atoms: C_9  and  C_10
REMARK    5  A    between atoms: C_10  and  N_11
REMARK                            x       y       z     vdW  Elec       q    Type
REMARK                         _______ _______ _______ _____ _____    ______ ____
ROOT
ATOM      1  C   UNL     1       0.855   0.196   0.064  0.00  0.00    +0.047 C 
ATOM      2  C   UNL     1       2.356   0.162   0.096  0.00  0.00    -0.007 A 
ATOM      3  C   UNL     1       3.065  -1.026   0.256  0.00  0.00    +0.144 A 
ATOM      4  N   UNL     1       2.352  -2.218   0.441  0.00  0.00    -0.326 N 
ATOM      5  H   UNL     1       1.740  -2.425  -0.345  0.00  0.00    +0.148 HD
ATOM      6  N   UNL     1       4.416  -0.996   0.317  0.00  0.00    -0.134 NA
ATOM      7  N   UNL     1       5.119   0.195   0.232  0.00  0.00    -0.147 NA
ATOM      8  C   UNL     1       4.456   1.364   0.104  0.00  0.00    +0.094 A 
ATOM      9  C   UNL     1       3.073   1.363   0.016  0.00  0.00    +0.037 A 
ENDROOT
BRANCH   8  10
ATOM     10  C   UNL     1       5.241   2.612   0.082  0.00  0.00    +0.002 A 
ATOM     11  C   UNL     1       6.516   2.672  -0.504  0.00  0.00    +0.010 A 
ATOM     12  C   UNL     1       7.216   3.880  -0.597  0.00  0.00    +0.001 A 
ATOM     13  C   UNL     1       6.661   5.054  -0.092  0.00  0.00    +0.000 A 
ATOM     14  C   UNL     1       5.418   5.018   0.529  0.00  0.00    +0.001 A 
ATOM     15  C   UNL     1       4.725   3.808   0.623  0.00  0.00    +0.010 A 
ENDBRANCH   8  10
BRANCH   4  16
ATOM     16  C   UNL     1       3.136  -3.374   0.850  0.00  0.00    +0.118 C 
BRANCH  16  17
ATOM     17  C   UNL     1       2.182  -4.533   1.223  0.00  0.00    +0.103 C 
BRANCH  17  18
ATOM     18  N   UNL     1       1.359  -5.060   0.107  0.00  0.00    -0.297 NA
ATOM     19  C   UNL     1       0.388  -6.065   0.611  0.00  0.00    +0.112 C 
ATOM     20  C   UNL     1       1.032  -7.399   1.034  0.00  0.00    +0.175 C 
ATOM     21  O   UNL     1       1.808  -7.969  -0.028  0.00  0.00    -0.377 OA
ATOM     22  C   UNL     1       2.801  -7.049  -0.497  0.00  0.00    +0.175 C 
ATOM     23  C   UNL     1       2.165  -5.721  -0.944  0.00  0.00    +0.112 C 
ENDBRANCH  17  18
ENDBRANCH  16  17
ENDBRANCH   4  16
TORSDOF 4
