REMARK  Name = 
REMARK  3 active torsions:
REMARK  status: ('A' for Active; 'I' for Inactive)
REMARK    1  A    between atoms: C_1  and  C_2
REMARK    2  A    between atoms: C_3  and  C_11
REMARK    3  A    between atoms: C_5  and  C_6
REMARK                            x       y       z     vdW  Elec       q    Type
REMARK                         _______ _______ _______ _____ _____    ______ ____
ROOT
ATOM      1  C   UNL     1       1.050  -0.143   0.145  0.00  0.00    +0.064 C 
ATOM      2  C   UNL     1       2.530   0.040  -0.069  0.00  0.00    +0.024 A 
ATOM      3  N   UNL     1       3.258  -1.134  -0.077  0.00  0.00    -0.325 N 
ATOM      4  H   UNL     1       2.784  -2.024   0.037  0.00  0.00    +0.169 HD
ATOM      5  C   UNL     1       4.617  -1.225  -0.259  0.00  0.00    +0.266 A 
ATOM      6  O   UNL     1       5.183  -2.312  -0.284  0.00  0.00    -0.267 OA
ATOM      7  C   UNL     1       5.339   0.063  -0.415  0.00  0.00    +0.116 A 
ATOM      8  C   UNL     1       4.625   1.201  -0.407  0.00  0.00    +0.034 A 
ATOM      9  C   UNL     1       3.172   1.218  -0.251  0.00  0.00    +0.003 A 
ENDROOT
BRANCH   9  10
ATOM     10  C   UNL     1       2.431   2.492  -0.341  0.00  0.00    -0.013 A 
ATOM     11  C   UNL     1       1.966   2.940  -1.580  0.00  0.00    +0.028 A 
ATOM     12  C   UNL     1       1.311   4.159  -1.636  0.00  0.00    +0.111 A 
ATOM     13  N   UNL     1       1.097   4.943  -0.559  0.00  0.00    -0.263 NA
ATOM     14  C   UNL     1       1.561   4.493   0.626  0.00  0.00    +0.111 A 
ATOM     15  C   UNL     1       2.229   3.289   0.786  0.00  0.00    +0.028 A 
ENDBRANCH   9  10
BRANCH   7  16
ATOM     16  C   UNL     1       6.750   0.062  -0.563  0.00  0.00    +0.105 C 
ATOM     17  N   UNL     1       7.903   0.123  -0.683  0.00  0.00    -0.191 NA
ENDBRANCH   7  16
TORSDOF 2
