REMARK  Name = 
REMARK  10 active torsions:
REMARK  status: ('A' for Active; 'I' for Inactive)
REMARK    1  A    between atoms: CB_5  and  CG1_6
REMARK    2  A    between atoms: CA_8  and  C_30
REMARK    3  A    between atoms: CA_12  and  N_14
REMARK    4  A    between atoms: C_15  and  C_17
REMARK    5  A    between atoms: C_17  and  C_24
REMARK    6  A    between atoms: N_18  and  O_19
REMARK    7  A    between atoms: O_19  and  C_20
REMARK    8  A    between atoms: C_20  and  C_21
REMARK    9  A    between atoms: C_21  and  O_22
REMARK   10  A    between atoms: C_30  and  O_31
REMARK                            x       y       z     vdW  Elec       q    Type
REMARK                         _______ _______ _______ _____ _____    ______ ____
ROOT
ATOM      1  N   UNK A   1       3.778  -1.644   0.948  0.00  0.00    -0.296 N 
ATOM      2  H   UNK A   1       3.790  -1.051   1.775  0.00  0.00    +0.150 HD
ATOM      3  C   UNK A   0       4.444  -2.845   1.047  0.00  0.00    +0.268 C 
ATOM      4  O   UNK A   0       4.365  -3.723   0.199  0.00  0.00    -0.268 OA
ENDROOT
BRANCH   1   6
ATOM      5  C   UNK A   1       1.345  -2.018  -0.019  0.00  0.00    +0.169 C 
ATOM      6  C   UNK A   1       2.785  -1.407  -0.156  0.00  0.00    +0.191 C 
ATOM      7  C   UNK A   1       2.027  -0.048  -0.034  0.00  0.00    +0.244 C 
ATOM      8  O   UNK A   1       2.314   1.129  -0.018  0.00  0.00    -0.273 OA
ATOM      9  N   UNK A   2       0.895  -0.681   0.323  0.00  0.00    -0.249 N 
ATOM     10  C   UNK A   2      -0.343  -0.367   0.819  0.00  0.00    +0.126 C 
ATOM     11  C   UNK A   2      -1.086  -1.331   1.444  0.00  0.00    -0.010 C 
ATOM     12  C   UNK A   2      -0.642  -2.783   1.585  0.00  0.00    +0.108 C 
ATOM     13  S   UNK A   2       1.107  -3.119   1.378  0.00  0.00    -0.131 S 
BRANCH  10  14
ATOM     14  C   UNK A   2      -0.870   1.049   0.662  0.00  0.00    +0.352 C 
ATOM     15  O   UNK A   2      -2.061   1.318   0.592  0.00  0.00    -0.244 OA
BRANCH  14  16
ATOM     16  O   UNK A   2       0.033   2.041   0.556  0.00  0.00    -0.476 OA
ATOM     17  H   UNK A   2       0.982   1.809   0.471  0.00  0.00    +0.295 HD
ENDBRANCH  14  16
ENDBRANCH  10  14
BRANCH  11  18
ATOM     18  C   UNK A   2      -2.370  -1.068   2.127  0.00  0.00    -0.001 C 
ATOM     19  C   UNK A   2      -3.178  -1.959   2.725  0.00  0.00    +0.009 C 
ENDBRANCH  11  18
ENDBRANCH   1   6
BRANCH   3  20
ATOM     20  C   UNK A   0       5.376  -3.035   2.250  0.00  0.00    +0.190 C 
ATOM     21  N   UNK A   0       5.166  -2.578   3.457  0.00  0.00    -0.077 NA
BRANCH  20  22
ATOM     22  C   UNK A   0       6.619  -3.781   2.090  0.00  0.00    +0.107 A 
ATOM     23  N   UNK A   0       7.218  -4.406   3.188  0.00  0.00    -0.223 NA
ATOM     24  C   UNK A   0       8.309  -5.028   2.820  0.00  0.00    +0.156 A 
ATOM     25  N   UNK A   0       9.072  -5.737   3.663  0.00  0.00    -0.338 N 
ATOM     26  H   UNK A   0       8.637  -6.015   4.536  0.00  0.00    +0.144 HD
ATOM     27  H   UNK A   0       9.706  -6.424   3.274  0.00  0.00    +0.144 HD
ATOM     28  S   UNK A   0       8.708  -4.893   1.157  0.00  0.00    -0.060 S 
ATOM     29  C   UNK A   0       7.308  -3.944   0.903  0.00  0.00    +0.078 A 
ENDBRANCH  20  22
BRANCH  21  30
ATOM     30  O   UNK A   0       3.951  -1.927   3.668  0.00  0.00    -0.382 OA
BRANCH  30  31
ATOM     31  C   UNK A   0       3.928  -1.425   5.008  0.00  0.00    +0.382 C 
BRANCH  31  32
ATOM     32  C   UNK A   0       3.934  -2.476   6.117  0.00  0.00    +0.345 C 
ATOM     33  O   UNK A   0       3.361  -2.332   7.188  0.00  0.00    -0.247 OA
BRANCH  32  34
ATOM     34  O   UNK A   0       4.690  -3.565   5.845  0.00  0.00    -0.478 OA
ATOM     35  H   UNK A   0       5.112  -3.479   4.954  0.00  0.00    +0.295 HD
ENDBRANCH  32  34
ENDBRANCH  31  32
ENDBRANCH  30  31
ENDBRANCH  21  30
ENDBRANCH   3  20
TORSDOF 10
