REMARK  Name = 
REMARK  6 active torsions:
REMARK  status: ('A' for Active; 'I' for Inactive)
REMARK    1  A    between atoms: N_4  and  C_12
REMARK    2  A    between atoms: C_19  and  C_29
REMARK    3  A    between atoms: N_21  and  C_22
REMARK    4  A    between atoms: C_26  and  O_27
REMARK    5  A    between atoms: O_27  and  C_28
REMARK    6  A    between atoms: C_29  and  O_30
REMARK                            x       y       z     vdW  Elec       q    Type
REMARK                         _______ _______ _______ _____ _____    ______ ____
ROOT
ATOM      1  C   UNL     1       4.999  -1.537   1.703  0.00  0.00    +0.110 A 
ATOM      2  C   UNL     1       6.159  -1.050   2.414  0.00  0.00    +0.168 A 
ATOM      3  C   UNL     1       7.170  -1.943   2.930  0.00  0.00    +0.097 A 
ATOM      4  C   UNL     1       6.947  -3.334   2.784  0.00  0.00    +0.052 A 
ATOM      5  C   UNL     1       7.895  -4.335   3.321  0.00  0.00    +0.204 A 
ATOM      6  C   UNL     1       9.151  -3.856   3.928  0.00  0.00    +0.122 A 
ATOM      7  C   UNL     1       9.302  -2.526   3.992  0.00  0.00    +0.105 A 
ATOM      8  O   UNL     1       7.658  -5.542   3.279  0.00  0.00    -0.286 OA
ATOM      9  C   UNL     1       5.824  -3.825   2.135  0.00  0.00    +0.054 A 
ATOM     10  N   UNL     1       8.391  -1.552   3.601  0.00  0.00    -0.340 N 
ATOM     11  C   UNL     1       4.901  -2.947   1.594  0.00  0.00    +0.149 A 
ATOM     12  F   UNL     1       3.835  -3.520   1.010  0.00  0.00    -0.203 F 
ENDROOT
BRANCH   1  21
ATOM     13  C   UNL     1       2.196   0.045  -0.222  0.00  0.00    +0.025 C 
ATOM     14  C   UNL     1       2.860   0.846  -1.354  0.00  0.00    +0.008 C 
ATOM     15  C   UNL     1       2.464   2.322  -1.352  0.00  0.00    +0.015 C 
ATOM     16  C   UNL     1       2.530   2.953   0.035  0.00  0.00    +0.081 C 
ATOM     17  N   UNL     1       1.745   2.193   1.008  0.00  0.00    -0.311 NA
ATOM     18  H   UNL     1       1.821   2.638   1.923  0.00  0.00    +0.122 HD
ATOM     19  C   UNL     1       2.167   0.792   1.113  0.00  0.00    +0.075 C 
ATOM     20  C   UNL     1       3.591   0.557   1.656  0.00  0.00    +0.124 C 
ATOM     21  N   UNL     1       3.991  -0.749   1.155  0.00  0.00    -0.323 N 
ATOM     22  C   UNL     1       3.005  -1.216   0.155  0.00  0.00    +0.110 C 
ENDBRANCH   1  21
BRANCH  10  23
ATOM     23  C   UNL     1       8.872  -0.151   3.654  0.00  0.00    +0.088 C 
ATOM     24  C   UNL     1       9.784   0.390   4.740  0.00  0.00    +0.027 C 
ATOM     25  C   UNL     1       8.354   0.810   4.698  0.00  0.00    +0.027 C 
ENDBRANCH  10  23
BRANCH   2  26
ATOM     26  O   UNL     1       6.226   0.262   2.844  0.00  0.00    -0.491 OA
ATOM     27  C   UNL     1       6.503   1.264   1.870  0.00  0.00    +0.277 C 
ENDBRANCH   2  26
BRANCH   6  28
ATOM     28  C   UNL     1      10.207  -4.739   4.465  0.00  0.00    +0.342 C 
ATOM     29  O   UNL     1      11.253  -4.323   4.941  0.00  0.00    -0.245 OA
BRANCH  28  30
ATOM     30  O   UNL     1       9.922  -6.060   4.399  0.00  0.00    -0.477 OA
ATOM     31  H   UNL     1       9.042  -6.258   4.001  0.00  0.00    +0.295 HD
ENDBRANCH  28  30
ENDBRANCH   6  28
TORSDOF 5
