REMARK  Name = 
REMARK  2 active torsions:
REMARK  status: ('A' for Active; 'I' for Inactive)
REMARK    1  A    between atoms: C_13  and  C_23
REMARK    2  A    between atoms: N_19  and  C_20
REMARK                            x       y       z     vdW  Elec       q    Type
REMARK                         _______ _______ _______ _____ _____    ______ ____
ROOT
ATOM      1  C   UNL     1       2.132   0.009  -0.028  0.00  0.00    +0.167 C 
ATOM      2  C   UNL     1       2.402   0.186  -1.528  0.00  0.00    +0.237 C 
ATOM      3  O   UNL     1       1.969  -0.629  -2.348  0.00  0.00    -0.274 OA
ATOM      4  N   UNL     1       3.132   1.288  -1.912  0.00  0.00    -0.294 N 
ATOM      5  C   UNL     1       3.523   1.400  -3.306  0.00  0.00    +0.132 C 
ATOM      6  C   UNL     1       3.914   2.040  -0.954  0.00  0.00    +0.203 C 
ATOM      7  C   UNL     1       3.568   1.966   0.530  0.00  0.00    +0.234 C 
ATOM      8  O   UNL     1       4.179   2.724   1.283  0.00  0.00    -0.274 OA
ATOM      9  N   UNL     1       2.605   1.055   0.918  0.00  0.00    -0.276 N 
ATOM     10  C   UNL     1       2.101   0.922   2.320  0.00  0.00    +0.154 C 
ATOM     11  C   UNL     1       2.149  -0.545   2.685  0.00  0.00    +0.046 A 
ATOM     12  N   UNL     1       1.907  -1.064   3.934  0.00  0.00    -0.356 N 
ATOM     13  H   UNL     1       1.702  -0.520   4.762  0.00  0.00    +0.166 HD
ATOM     14  C   UNL     1       2.065  -2.434   3.916  0.00  0.00    +0.047 A 
ATOM     15  C   UNL     1       2.351  -2.804   2.601  0.00  0.00    +0.003 A 
ATOM     16  C   UNL     1       2.543  -4.169   2.308  0.00  0.00    +0.010 A 
ATOM     17  C   UNL     1       2.460  -5.112   3.339  0.00  0.00    +0.001 A 
ATOM     18  C   UNL     1       2.186  -4.712   4.645  0.00  0.00    +0.002 A 
ATOM     19  C   UNL     1       1.978  -3.364   4.958  0.00  0.00    +0.026 A 
ATOM     20  C   UNL     1       2.383  -1.608   1.834  0.00  0.00    -0.015 A 
ATOM     21  C   UNL     1       2.626  -1.399   0.380  0.00  0.00    +0.069 C 
ENDROOT
BRANCH  10  22
ATOM     22  C   UNL     1       2.716   1.847   3.362  0.00  0.00    -0.018 A 
ATOM     23  C   UNL     1       3.869   1.484   4.108  0.00  0.00    +0.009 A 
ATOM     24  C   UNL     1       4.493   2.392   4.970  0.00  0.00    +0.050 A 
ATOM     25  C   UNL     1       3.972   3.664   5.044  0.00  0.00    +0.166 A 
ATOM     26  O   UNL     1       4.487   4.693   5.770  0.00  0.00    -0.453 OA
ATOM     27  C   UNL     1       3.620   5.770   5.356  0.00  0.00    +0.466 C 
ATOM     28  O   UNL     1       2.531   5.340   4.514  0.00  0.00    -0.453 OA
ATOM     29  C   UNL     1       2.856   4.032   4.332  0.00  0.00    +0.167 A 
ATOM     30  C   UNL     1       2.195   3.149   3.505  0.00  0.00    +0.055 A 
ENDBRANCH  10  22
TORSDOF 1
