REMARK  Name = 
REMARK  8 active torsions:
REMARK  status: ('A' for Active; 'I' for Inactive)
REMARK    1  A    between atoms: C_5  and  O_6
REMARK    2  A    between atoms: C_5  and  C_10
REMARK    3  A    between atoms: O_6  and  C_7
REMARK    4  A    between atoms: C_7  and  C_8
REMARK    5  A    between atoms: C_10  and  C_11
REMARK    6  A    between atoms: C_13  and  C_14
REMARK    7  A    between atoms: C_22  and  C_24
REMARK    8  A    between atoms: C_31  and  C_32
REMARK                            x       y       z     vdW  Elec       q    Type
REMARK                         _______ _______ _______ _____ _____    ______ ____
ROOT
ATOM      1  C   UNL     1      -1.151  -1.101  -1.390  0.00  0.00    +0.003 C 
ATOM      2  C   UNL     1      -0.418   0.314  -0.519  0.00  0.00    -0.003 C 
ATOM      3  C   UNL     1      -0.841   1.603  -1.217  0.00  0.00    +0.011 C 
ATOM      4  C   UNL     1      -0.478   2.846  -0.396  0.00  0.00    +0.013 C 
ATOM      5  C   UNL     1       1.020   2.905  -0.078  0.00  0.00    -0.057 C 
ATOM      6  C   UNL     1       1.714   1.608   0.454  0.00  0.00    -0.007 C 
ATOM      7  C   UNL     1       1.399   1.552   1.965  0.00  0.00    +0.016 C 
ATOM      8  C   UNL     1       3.291   1.659   0.297  0.00  0.00    +0.019 C 
ATOM      9  C   UNL     1       3.881   2.934  -0.287  0.00  0.00    +0.080 C 
ATOM     10  C   UNL     1       3.113   4.111   0.211  0.00  0.00    +0.156 C 
ATOM     11  O   UNL     1       3.614   5.067   0.789  0.00  0.00    -0.293 OA
ATOM     12  C   UNL     1       1.679   4.082  -0.117  0.00  0.00    +0.046 C 
ATOM     13  C   UNL     1      -1.047   4.063  -1.152  0.00  0.00    +0.012 C 
ATOM     14  C   UNL     1       1.192   0.298  -0.288  0.00  0.00    +0.002 C 
ATOM     15  C   UNL     1       1.847  -1.134   0.277  0.00  0.00    +0.005 C 
ATOM     16  C   UNL     1       1.447  -2.695  -0.327  0.00  0.00    +0.011 C 
ATOM     17  C   UNL     1      -0.315  -2.800  -0.881  0.00  0.00    +0.018 C 
ATOM     18  C   UNL     1      -0.982  -4.081  -1.383  0.00  0.00    +0.016 C 
ATOM     19  C   UNL     1      -0.652  -1.930   0.116  0.00  0.00    +0.176 C 
ATOM     20  C   UNL     1       0.190  -1.654  -1.750  0.00  0.00    +0.057 C 
ATOM     21  C   UNL     1      -0.744  -1.101  -2.752  0.00  0.00    +0.009 C 
ENDROOT
BRANCH  19  22
ATOM     22  C   UNL     1      -0.381  -2.864   1.405  0.00  0.00    +0.174 C 
ATOM     23  O   UNL     1      -0.500  -4.102   1.422  0.00  0.00    -0.293 OA
ATOM     24  C   UNL     1      -0.050  -2.228   2.735  0.00  0.00    +0.090 C 
ENDBRANCH  19  22
BRANCH  19  25
ATOM     25  O   UNL     1      -2.171  -2.350   0.225  0.00  0.00    -0.450 OA
BRANCH  25  26
ATOM     26  C   UNL     1      -3.147  -1.548   0.710  0.00  0.00    +0.305 C 
ATOM     27  O   UNL     1      -2.973  -0.464   1.244  0.00  0.00    -0.251 OA
ATOM     28  C   UNL     1      -4.491  -2.161   0.409  0.00  0.00    +0.136 C 
ENDBRANCH  25  26
ENDBRANCH  19  25
TORSDOF 3
