REMARK  Name = 
REMARK  4 active torsions:
REMARK  status: ('A' for Active; 'I' for Inactive)
REMARK    1  A    between atoms: C_1  and  S_2
REMARK    2  A    between atoms: S_2  and  C_5
REMARK    3  A    between atoms: C_8  and  C_11
REMARK    4  A    between atoms: C_12  and  C_17
REMARK                            x       y       z     vdW  Elec       q    Type
REMARK                         _______ _______ _______ _____ _____    ______ ____
ROOT
ATOM      1  C   UNL     1       4.721  -5.166   2.060  0.00  0.00    +0.011 C 
ATOM      2  C   UNL     1       6.026  -5.382   2.719  0.00  0.00    +0.269 C 
ATOM      3  O   UNL     1       6.033  -6.767   3.036  0.00  0.00    -0.456 OA
ATOM      4  C   UNL     1       4.836  -7.319   2.678  0.00  0.00    +0.340 C 
ATOM      5  O   UNL     1       4.555  -8.493   2.834  0.00  0.00    -0.245 OA
ATOM      6  C   UNL     1       3.976  -6.282   2.059  0.00  0.00    +0.073 C 
ENDROOT
BRANCH   1  10
ATOM      7  C   UNL     1       3.618  -1.430   0.357  0.00  0.00    +0.088 A 
ATOM      8  C   UNL     1       4.304  -2.375  -0.409  0.00  0.00    +0.027 A 
ATOM      9  C   UNL     1       4.708  -3.572   0.181  0.00  0.00    +0.010 A 
ATOM     10  C   UNL     1       4.397  -3.848   1.522  0.00  0.00    -0.018 A 
ATOM     11  C   UNL     1       3.720  -2.887   2.284  0.00  0.00    +0.010 A 
ATOM     12  C   UNL     1       3.330  -1.675   1.703  0.00  0.00    +0.027 A 
BRANCH   7  14
ATOM     13  C   UNL     1       4.395   1.150  -0.364  0.00  0.00    +0.200 C 
ATOM     14  S   UNL     1       3.014   0.045  -0.434  0.00  0.00    -0.006 S 
ATOM     15  O   UNL     1       2.765  -0.284  -1.823  0.00  0.00    -0.170 OA
ATOM     16  O   UNL     1       1.962   0.587   0.405  0.00  0.00    -0.170 OA
ENDBRANCH   7  14
ENDBRANCH   1  10
BRANCH   6  17
ATOM     17  C   UNL     1       2.578  -6.477   1.640  0.00  0.00    -0.011 A 
ATOM     18  C   UNL     1       1.727  -7.295   2.398  0.00  0.00    +0.009 A 
ATOM     19  C   UNL     1       0.360  -7.379   2.112  0.00  0.00    +0.001 A 
ATOM     20  C   UNL     1      -0.178  -6.651   1.055  0.00  0.00    +0.000 A 
ATOM     21  C   UNL     1       0.659  -5.884   0.252  0.00  0.00    +0.001 A 
ATOM     22  C   UNL     1       2.026  -5.815   0.532  0.00  0.00    +0.009 A 
ENDBRANCH   6  17
TORSDOF 3
