REMARK  Name = 
REMARK  13 active torsions:
REMARK  status: ('A' for Active; 'I' for Inactive)
REMARK    1  A    between atoms: C_1  and  C_2
REMARK    2  A    between atoms: C_2  and  C_3
REMARK    3  A    between atoms: C_3  and  C_4
REMARK    4  A    between atoms: C_4  and  C_5
REMARK    5  A    between atoms: C_8  and  C_9
REMARK    6  A    between atoms: C_10  and  C_11
REMARK    7  A    between atoms: C_10  and  C_17
REMARK    8  A    between atoms: C_11  and  C_12
REMARK    9  A    between atoms: C_17  and  O_18
REMARK   10  A    between atoms: N_20  and  C_21
REMARK   11  A    between atoms: C_21  and  C_22
REMARK   12  A    between atoms: C_25  and  C_28
REMARK   13  A    between atoms: C_28  and  O_29
REMARK                            x       y       z     vdW  Elec       q    Type
REMARK                         _______ _______ _______ _____ _____    ______ ____
ROOT
ATOM      1  C   UNL     1       5.221   1.318   2.324  0.00  0.00    +0.110 A 
ATOM      2  N   UNL     1       5.687   0.737   3.493  0.00  0.00    -0.324 N 
ATOM      3  C   UNL     1       6.229   1.754   4.261  0.00  0.00    +0.062 A 
ATOM      4  C   UNL     1       6.323   2.821   3.394  0.00  0.00    +0.138 A 
ATOM      5  N   UNL     1       5.697   2.543   2.211  0.00  0.00    -0.240 NA
ENDROOT
BRANCH   3   6
ATOM      6  C   UNL     1       6.446   1.637   5.655  0.00  0.00    +0.038 C 
ATOM      7  C   UNL     1       7.575   1.195   6.237  0.00  0.00    +0.043 C 
BRANCH   7   8
ATOM      8  C   UNL     1       7.694   1.252   7.722  0.00  0.00    +0.333 C 
ATOM      9  O   UNL     1       8.762   1.389   8.296  0.00  0.00    -0.245 OA
BRANCH   8  10
ATOM     10  O   UNL     1       6.543   1.075   8.401  0.00  0.00    -0.477 OA
ATOM     11  H   UNL     1       5.759   0.828   7.881  0.00  0.00    +0.295 HD
ENDBRANCH   8  10
ENDBRANCH   7   8
BRANCH   7  12
ATOM     12  C   UNL     1       8.851   0.776   5.535  0.00  0.00    +0.084 C 
BRANCH  12  13
ATOM     13  C   UNL     1       9.389  -0.614   5.813  0.00  0.00    -0.006 A 
ATOM     14  S   UNL     1      10.925  -1.041   5.164  0.00  0.00    -0.101 S 
ATOM     15  C   UNL     1      10.929  -2.542   5.979  0.00  0.00    +0.045 A 
ATOM     16  C   UNL     1       9.764  -2.752   6.678  0.00  0.00    +0.008 A 
ATOM     17  C   UNL     1       8.862  -1.652   6.559  0.00  0.00    +0.011 A 
ENDBRANCH  12  13
ENDBRANCH   7  12
ENDBRANCH   3   6
BRANCH   1  18
ATOM     18  C   UNL     1       4.362   0.640   1.299  0.00  0.00    +0.074 C 
BRANCH  18  19
ATOM     19  C   UNL     1       2.907   1.141   1.284  0.00  0.00    +0.007 C 
BRANCH  19  21
ATOM     20  C   UNL     1       1.307   3.044   0.759  0.00  0.00    +0.004 C 
ATOM     21  C   UNL     1       2.765   2.626   0.928  0.00  0.00    -0.003 C 
ENDBRANCH  19  21
ENDBRANCH  18  19
ENDBRANCH   1  18
BRANCH   2  22
ATOM     22  C   UNL     1       5.955  -0.687   3.660  0.00  0.00    +0.158 C 
BRANCH  22  23
ATOM     23  C   UNL     1       4.804  -1.551   4.107  0.00  0.00    -0.028 A 
ATOM     24  C   UNL     1       3.790  -1.108   4.964  0.00  0.00    +0.006 A 
ATOM     25  C   UNL     1       2.861  -2.017   5.481  0.00  0.00    +0.015 A 
ATOM     26  C   UNL     1       2.930  -3.375   5.148  0.00  0.00    +0.059 A 
ATOM     27  C   UNL     1       3.931  -3.825   4.282  0.00  0.00    +0.015 A 
ATOM     28  C   UNL     1       4.855  -2.914   3.766  0.00  0.00    +0.006 A 
BRANCH  26  29
ATOM     29  C   UNL     1       1.989  -4.312   5.808  0.00  0.00    +0.337 C 
ATOM     30  O   UNL     1       1.561  -4.125   6.934  0.00  0.00    -0.245 OA
BRANCH  29  31
ATOM     31  O   UNL     1       1.638  -5.368   5.046  0.00  0.00    -0.477 OA
ATOM     32  H   UNL     1       1.904  -5.314   4.110  0.00  0.00    +0.295 HD
ENDBRANCH  29  31
ENDBRANCH  26  29
ENDBRANCH  22  23
ENDBRANCH   2  22
TORSDOF 12
