REMARK  Name = 
REMARK  10 active torsions:
REMARK  status: ('A' for Active; 'I' for Inactive)
REMARK    1  A    between atoms: C_9  and  O_12
REMARK    2  A    between atoms: O_12  and  C_13
REMARK    3  A    between atoms: C_13  and  C_15
REMARK    4  A    between atoms: C_15  and  C_16
REMARK    5  A    between atoms: C_15  and  C_18
REMARK    6  A    between atoms: C_16  and  O_17
REMARK    7  A    between atoms: N_24  and  C_25
REMARK    8  A    between atoms: N_24  and  C_26
REMARK    9  A    between atoms: C_26  and  C_27
REMARK   10  A    between atoms: C_26  and  C_28
REMARK                            x       y       z     vdW  Elec       q    Type
REMARK                         _______ _______ _______ _____ _____    ______ ____
ROOT
ATOM      1 BR   UNL     1      -1.602   1.346   0.620  0.00  0.00    +0.000 Br
ENDROOT
TORSDOF 0
REMARK  Name = 
REMARK  10 active torsions:
REMARK  status: ('A' for Active; 'I' for Inactive)
REMARK    1  A    between atoms: C_9  and  O_12
REMARK    2  A    between atoms: O_12  and  C_13
REMARK    3  A    between atoms: C_13  and  C_15
REMARK    4  A    between atoms: C_15  and  C_16
REMARK    5  A    between atoms: C_15  and  C_18
REMARK    6  A    between atoms: C_16  and  O_17
REMARK    7  A    between atoms: N_24  and  C_25
REMARK    8  A    between atoms: N_24  and  C_26
REMARK    9  A    between atoms: C_26  and  C_27
REMARK   10  A    between atoms: C_26  and  C_28
REMARK                            x       y       z     vdW  Elec       q    Type
REMARK                         _______ _______ _______ _____ _____    ______ ____
ROOT
ATOM      1  O   UNL     1       4.476  -2.122  -1.549  0.00  0.00    -0.460 OA
ENDROOT
BRANCH   1   7
ATOM      2  C   UNL     1       2.038  -0.037  -0.013  0.00  0.00    +0.070 C 
ATOM      3  N   UNL     1       2.699   0.304   1.355  0.00  0.00    +0.247 N 
ATOM      4  C   UNL     1       2.105   1.644   1.880  0.00  0.00    +0.193 C 
ATOM      5  C   UNL     1       4.138   0.507   0.864  0.00  0.00    +0.070 C 
ATOM      6  C   UNL     1       4.782  -0.838   0.509  0.00  0.00    +0.099 C 
ATOM      7  C   UNL     1       3.890  -1.831  -0.262  0.00  0.00    +0.187 C 
ATOM      8  C   UNL     1       3.993   1.368  -0.396  0.00  0.00    +0.060 C 
ATOM      9  C   UNL     1       2.416  -1.450  -0.459  0.00  0.00    +0.099 C 
ATOM     10  C   UNL     1       2.644   0.985  -0.990  0.00  0.00    +0.060 C 
BRANCH   3  11
ATOM     11  C   UNL     1       2.515  -0.783   2.469  0.00  0.00    +0.060 C 
ATOM     12  C   UNL     1       1.050  -1.054   2.811  0.00  0.00    +0.063 C 
ATOM     13  C   UNL     1       3.313  -0.437   3.730  0.00  0.00    +0.063 C 
ENDBRANCH   3  11
ENDBRANCH   1   7
BRANCH   1  14
ATOM     14  C   UNL     1       5.487  -3.045  -1.515  0.00  0.00    +0.317 C 
ATOM     15  O   UNL     1       5.938  -3.531  -0.482  0.00  0.00    -0.250 OA
BRANCH  14  16
ATOM     16  C   UNL     1       6.001  -3.369  -2.902  0.00  0.00    +0.153 C 
BRANCH  16  17
ATOM     17  C   UNL     1       5.167  -4.428  -3.599  0.00  0.00    -0.032 A 
ATOM     18  C   UNL     1       5.044  -5.729  -3.086  0.00  0.00    +0.004 A 
ATOM     19  C   UNL     1       4.281  -6.691  -3.749  0.00  0.00    +0.000 A 
ATOM     20  C   UNL     1       3.624  -6.368  -4.934  0.00  0.00    +0.000 A 
ATOM     21  C   UNL     1       3.732  -5.081  -5.456  0.00  0.00    +0.000 A 
ATOM     22  C   UNL     1       4.496  -4.117  -4.793  0.00  0.00    +0.004 A 
ENDBRANCH  16  17
BRANCH  16  23
ATOM     23  C   UNL     1       7.504  -3.709  -2.815  0.00  0.00    +0.175 C 
BRANCH  23  24
ATOM     24  O   UNL     1       7.807  -4.831  -1.990  0.00  0.00    -0.394 OA
ATOM     25  H   UNL     1       7.414  -4.665  -1.108  0.00  0.00    +0.209 HD
ENDBRANCH  23  24
ENDBRANCH  16  23
ENDBRANCH  14  16
ENDBRANCH   1  14
TORSDOF 7
