REMARK  Name = 
REMARK  5 active torsions:
REMARK  status: ('A' for Active; 'I' for Inactive)
REMARK    1  A    between atoms: C_1  and  N_2
REMARK    2  A    between atoms: C_4  and  S_11
REMARK    3  A    between atoms: N_7  and  C_8
REMARK    4  A    between atoms: C_8  and  C_9
REMARK    5  A    between atoms: S_11  and  N_12
REMARK                            x       y       z     vdW  Elec       q    Type
REMARK                         _______ _______ _______ _____ _____    ______ ____
ROOT
ATOM      1  C   UNL     1       1.543   0.251   0.156  0.00  0.00    +0.175 C 
ATOM      2  N   UNL     1       2.960   0.007  -0.026  0.00  0.00    -0.244 N 
ATOM      3  C   UNL     1       3.492  -1.256  -0.209  0.00  0.00    +0.185 A 
ATOM      4  N   UNL     1       2.891  -2.387  -0.001  0.00  0.00    -0.155 NA
ATOM      5  S   UNL     1       5.167  -1.059  -0.694  0.00  0.00    -0.011 S 
ATOM      6  C   UNL     1       5.032   0.624  -0.209  0.00  0.00    +0.254 A 
ATOM      7  N   UNL     1       3.838   1.072   0.076  0.00  0.00    -0.142 NA
ENDROOT
BRANCH   4   8
ATOM      8  C   UNL     1       3.572  -3.549  -0.258  0.00  0.00    +0.235 C 
ATOM      9  O   UNL     1       4.006  -3.860  -1.362  0.00  0.00    -0.274 OA
ATOM     10  C   UNL     1       3.701  -4.495   0.906  0.00  0.00    +0.111 C 
ENDBRANCH   4   8
BRANCH   6  11
ATOM     11  S   UNL     1       6.484   1.642  -0.010  0.00  0.00    +0.081 S 
ATOM     12  O   UNL     1       6.806   2.170  -1.316  0.00  0.00    -0.151 OA
ATOM     13  O   UNL     1       7.411   0.859   0.776  0.00  0.00    -0.151 OA
BRANCH  11  14
ATOM     14  N   UNL     1       6.061   2.957   0.966  0.00  0.00    -0.202 NA
ATOM     15  H   UNL     1       5.339   3.538   0.543  0.00  0.00    +0.144 HD
ATOM     16  H   UNL     1       5.879   2.681   1.930  0.00  0.00    +0.144 HD
ENDBRANCH  11  14
ENDBRANCH   6  11
TORSDOF 3
