REMARK  Name = 
REMARK  7 active torsions:
REMARK  status: ('A' for Active; 'I' for Inactive)
REMARK    1  A    between atoms: O_1  and  C_2
REMARK    2  A    between atoms: C_2  and  C_20
REMARK    3  A    between atoms: N_5  and  C_6
REMARK    4  A    between atoms: C_6  and  C_7
REMARK    5  A    between atoms: C_7  and  C_8
REMARK    6  A    between atoms: C_8  and  C_9
REMARK    7  A    between atoms: C_9  and  C_11
REMARK                            x       y       z     vdW  Elec       q    Type
REMARK                         _______ _______ _______ _____ _____    ______ ____
ROOT
ATOM      1  C   UNL     1       2.277   0.071   0.041  0.00  0.00    +0.093 C 
ATOM      2  C   UNL     1       2.734   1.111  -1.006  0.00  0.00    +0.055 C 
ATOM      3  C   UNL     1       2.440   0.664  -2.440  0.00  0.00    +0.087 C 
ATOM      4  N   UNL     1       2.948  -0.680  -2.756  0.00  0.00    -0.302 NA
ATOM      5  C   UNL     1       2.400  -1.666  -1.814  0.00  0.00    +0.087 C 
ATOM      6  C   UNL     1       2.714  -1.356  -0.350  0.00  0.00    +0.055 C 
ENDROOT
BRANCH   1   7
ATOM      7  C   UNL     1       2.804   0.448   1.429  0.00  0.00    -0.016 A 
ATOM      8  C   UNL     1       4.187   0.524   1.688  0.00  0.00    +0.008 A 
ATOM      9  C   UNL     1       4.665   0.914   2.945  0.00  0.00    +0.020 A 
ATOM     10  C   UNL     1       3.769   1.228   3.962  0.00  0.00    +0.041 A 
ATOM     11 CL   UNL     1       4.358   1.731   5.498  0.00  0.00    -0.084 Cl
ATOM     12  C   UNL     1       2.401   1.143   3.739  0.00  0.00    +0.020 A 
ATOM     13  C   UNL     1       1.923   0.756   2.483  0.00  0.00    +0.008 A 
ENDBRANCH   1   7
BRANCH   1  14
ATOM     14  O   UNL     1       0.840   0.094   0.082  0.00  0.00    -0.384 OA
ATOM     15  H   UNL     1       0.493  -0.135  -0.794  0.00  0.00    +0.211 HD
ENDBRANCH   1  14
BRANCH   4  16
ATOM     16  C   UNL     1       4.419  -0.694  -2.851  0.00  0.00    +0.085 C 
BRANCH  16  17
ATOM     17  C   UNL     1       5.005  -2.019  -3.346  0.00  0.00    +0.023 C 
BRANCH  17  18
ATOM     18  C   UNL     1       4.459  -2.429  -4.713  0.00  0.00    +0.081 C 
BRANCH  18  19
ATOM     19  C   UNL     1       5.030  -3.760  -5.160  0.00  0.00    +0.163 C 
ATOM     20  O   UNL     1       5.835  -4.400  -4.489  0.00  0.00    -0.292 OA
BRANCH  19  21
ATOM     21  C   UNL     1       4.631  -4.281  -6.497  0.00  0.00    +0.018 A 
ATOM     22  C   UNL     1       3.408  -3.944  -7.094  0.00  0.00    +0.014 A 
ATOM     23  C   UNL     1       3.088  -4.453  -8.357  0.00  0.00    +0.039 A 
ATOM     24  C   UNL     1       3.988  -5.284  -9.012  0.00  0.00    +0.123 A 
ATOM     25  F   UNL     1       3.681  -5.761 -10.225  0.00  0.00    -0.205 F 
ATOM     26  C   UNL     1       5.201  -5.632  -8.427  0.00  0.00    +0.039 A 
ATOM     27  C   UNL     1       5.520  -5.136  -7.163  0.00  0.00    +0.014 A 
ENDBRANCH  19  21
ENDBRANCH  18  19
ENDBRANCH  17  18
ENDBRANCH  16  17
ENDBRANCH   4  16
TORSDOF 7
