REMARK  Name = 
REMARK  6 active torsions:
REMARK  status: ('A' for Active; 'I' for Inactive)
REMARK    1  A    between atoms: N_1  and  CA_2
REMARK    2  A    between atoms: CA_2  and  CB_4
REMARK    3  A    between atoms: CA_2  and  C_12
REMARK    4  A    between atoms: CB_4  and  CG_5
REMARK    5  A    between atoms: CZ_8  and  OH_9
REMARK    6  A    between atoms: C_12  and  O_13
REMARK                            x       y       z     vdW  Elec       q    Type
REMARK                         _______ _______ _______ _____ _____    ______ ____
ROOT
ATOM      1  CB  TYR A   1       2.915  -0.944   0.984  0.00  0.00    +0.065 C 
ENDROOT
BRANCH   1   2
ATOM      2  CG  TYR A   1       2.422  -0.634   2.383  0.00  0.00    -0.045 A 
ATOM      3  CD2 TYR A   1       3.116   0.262   3.208  0.00  0.00    +0.007 A 
ATOM      4  CE2 TYR A   1       2.596   0.622   4.451  0.00  0.00    +0.045 A 
ATOM      5  CZ  TYR A   1       1.394   0.074   4.882  0.00  0.00    +0.117 A 
ATOM      6  CE1 TYR A   1       0.710  -0.847   4.097  0.00  0.00    +0.045 A 
ATOM      7  CD1 TYR A   1       1.226  -1.201   2.849  0.00  0.00    +0.007 A 
BRANCH   5   8
ATOM      8  OH  TYR A   1       0.909   0.474   6.091  0.00  0.00    -0.507 OA
ATOM      9  HH  TYR A   1       0.039   0.061   6.224  0.00  0.00    +0.292 HD
ENDBRANCH   5   8
ENDBRANCH   1   2
BRANCH   1  10
ATOM     10  CA  TYR A   1       2.352  -0.011  -0.106  0.00  0.00    +0.165 C 
BRANCH  10  11
ATOM     11  N   TYR A   1       2.699   1.435   0.089  0.00  0.00    -0.318 NA
ATOM     12  H1  TYR A   1       2.630   1.647   1.091  0.00  0.00    +0.119 HD
ATOM     13  H2  TYR A   1       3.697   1.540  -0.115  0.00  0.00    +0.119 HD
ENDBRANCH  10  11
BRANCH  10  14
ATOM     14  C   TYR A   1       0.824  -0.144  -0.229  0.00  0.00    +0.322 C 
ATOM     15  OXT TYR A   1       0.216  -1.197  -0.343  0.00  0.00    -0.249 OA
BRANCH  14  16
ATOM     16  O   TYR A   1       0.216   1.071  -0.222  0.00  0.00    -0.480 OA
ATOM     17  H   TYR A   1       0.949   1.734  -0.163  0.00  0.00    +0.295 HD
ENDBRANCH  14  16
ENDBRANCH  10  14
ENDBRANCH   1  10
TORSDOF 6
