REMARK  Name = 
REMARK  16 active torsions:
REMARK  status: ('A' for Active; 'I' for Inactive)
REMARK    1  A    between atoms: C_1  and  O_2
REMARK    2  A    between atoms: O_2  and  C_3
REMARK    3  A    between atoms: C_8  and  O_9
REMARK    4  A    between atoms: O_9  and  C_10
REMARK    5  A    between atoms: C_11  and  N_12
REMARK    6  A    between atoms: N_12  and  S_13
REMARK    7  A    between atoms: S_13  and  C_16
REMARK    8  A    between atoms: C_19  and  C_22
REMARK    9  A    between atoms: C_22  and  C_23
REMARK   10  A    between atoms: C_22  and  C_24
REMARK   11  A    between atoms: C_22  and  C_25
REMARK   12  A    between atoms: C_27  and  C_34
REMARK   13  A    between atoms: C_29  and  O_30
REMARK   14  A    between atoms: O_30  and  C_31
REMARK   15  A    between atoms: C_31  and  C_32
REMARK   16  A    between atoms: C_32  and  O_33
REMARK                            x       y       z     vdW  Elec       q    Type
REMARK                         _______ _______ _______ _____ _____    ______ ____
ROOT
ATOM      1  C   UNL     1       4.033  -1.280  -1.572  0.00  0.00    +0.231 A 
ATOM      2  C   UNL     1       2.660  -1.377  -1.419  0.00  0.00    +0.264 A 
ATOM      3  N   UNL     1       2.012  -2.537  -1.226  0.00  0.00    -0.187 NA
ATOM      4  C   UNL     1       2.767  -3.657  -1.244  0.00  0.00    +0.203 A 
ATOM      5  N   UNL     1       4.077  -3.680  -1.565  0.00  0.00    -0.204 NA
ATOM      6  C   UNL     1       4.668  -2.494  -1.733  0.00  0.00    +0.188 A 
ENDROOT
BRANCH   4   7
ATOM      7  C   UNL     1       2.155  -4.929  -0.783  0.00  0.00    +0.198 A 
ATOM      8  N   UNL     1       2.681  -6.091  -1.239  0.00  0.00    -0.233 NA
ATOM      9  C   UNL     1       2.147  -7.224  -0.752  0.00  0.00    +0.115 A 
ATOM     10  C   UNL     1       1.133  -7.248   0.174  0.00  0.00    +0.039 A 
ATOM     11  C   UNL     1       0.677  -6.022   0.593  0.00  0.00    +0.115 A 
ATOM     12  N   UNL     1       1.162  -4.856   0.134  0.00  0.00    -0.233 NA
ENDBRANCH   4   7
BRANCH   6  13
ATOM     13  N   UNL     1       6.027  -2.674  -2.076  0.00  0.00    -0.196 N 
ATOM     14  H   UNL     1       6.399  -3.539  -1.688  0.00  0.00    +0.175 HD
BRANCH  13  15
ATOM     15  S   UNL     1       6.502  -2.498  -3.673  0.00  0.00    +0.074 S 
ATOM     16  O   UNL     1       7.577  -3.445  -3.876  0.00  0.00    -0.150 OA
ATOM     17  O   UNL     1       6.709  -1.088  -3.943  0.00  0.00    -0.150 OA
BRANCH  15  18
ATOM     18  C   UNL     1       5.125  -3.030  -4.655  0.00  0.00    +0.109 A 
ATOM     19  C   UNL     1       4.912  -4.385  -4.926  0.00  0.00    +0.029 A 
ATOM     20  C   UNL     1       3.795  -4.766  -5.679  0.00  0.00    +0.006 A 
ATOM     21  C   UNL     1       2.883  -3.810  -6.182  0.00  0.00    -0.042 A 
ATOM     22  C   UNL     1       3.169  -2.454  -5.948  0.00  0.00    +0.006 A 
ATOM     23  C   UNL     1       4.278  -2.067  -5.194  0.00  0.00    +0.029 A 
BRANCH  21  24
ATOM     24  C   UNL     1       1.609  -4.249  -6.930  0.00  0.00    -0.013 C 
ATOM     25  C   UNL     1       0.760  -5.158  -6.015  0.00  0.00    +0.015 C 
ATOM     26  C   UNL     1       1.968  -5.021  -8.215  0.00  0.00    +0.015 C 
ATOM     27  C   UNL     1       0.708  -3.060  -7.344  0.00  0.00    +0.015 C 
ENDBRANCH  21  24
ENDBRANCH  15  18
ENDBRANCH  13  15
ENDBRANCH   6  13
BRANCH   1  28
ATOM     28  O   UNL     1       4.612  -0.050  -1.543  0.00  0.00    -0.443 OA
BRANCH  28  30
ATOM     29  C   UNL     1       6.360  -0.532   0.204  0.00  0.00    +0.162 A 
ATOM     30  C   UNL     1       5.828   0.149  -0.912  0.00  0.00    +0.170 A 
ATOM     31  C   UNL     1       6.548   1.207  -1.487  0.00  0.00    +0.050 A 
ATOM     32  C   UNL     1       7.797   1.574  -0.998  0.00  0.00    +0.004 A 
ATOM     33  C   UNL     1       8.344   0.881   0.074  0.00  0.00    +0.004 A 
ATOM     34  C   UNL     1       7.635  -0.167   0.667  0.00  0.00    +0.049 A 
BRANCH  29  36
ATOM     35  C   UNL     1       6.249  -2.341   1.768  0.00  0.00    +0.277 C 
ATOM     36  O   UNL     1       5.601  -1.503   0.811  0.00  0.00    -0.491 OA
ENDBRANCH  29  36
ENDBRANCH  28  30
ENDBRANCH   1  28
BRANCH   2  37
ATOM     37  O   UNL     1       1.920  -0.209  -1.495  0.00  0.00    -0.471 OA
BRANCH  37  38
ATOM     38  C   UNL     1       0.513  -0.331  -1.253  0.00  0.00    +0.258 C 
BRANCH  38  39
ATOM     39  C   UNL     1       0.224  -0.146   0.233  0.00  0.00    +0.196 C 
BRANCH  39  40
ATOM     40  O   UNL     1      -1.167   0.054   0.458  0.00  0.00    -0.392 OA
ATOM     41  H   UNL     1      -1.255   0.390   1.367  0.00  0.00    +0.210 HD
ENDBRANCH  39  40
ENDBRANCH  38  39
ENDBRANCH  37  38
ENDBRANCH   2  37
TORSDOF 12
