REMARK  Name = 
REMARK  9 active torsions:
REMARK  status: ('A' for Active; 'I' for Inactive)
REMARK    1  A    between atoms: C_1  and  C_2
REMARK    2  A    between atoms: C_2  and  C_3
REMARK    3  A    between atoms: C_3  and  C_4
REMARK    4  A    between atoms: C_4  and  N_5
REMARK    5  A    between atoms: C_7  and  O_9
REMARK    6  A    between atoms: C_10  and  O_12
REMARK    7  A    between atoms: C_13  and  O_15
REMARK    8  A    between atoms: C_16  and  C_18
REMARK    9  A    between atoms: C_18  and  O_19
REMARK                            x       y       z     vdW  Elec       q    Type
REMARK                         _______ _______ _______ _____ _____    ______ ____
ROOT
ATOM      1  N   UNL     1       4.977   0.795   2.689  0.00  0.00    -0.292 NA
ATOM      2  C   UNL     1       5.228   2.266   2.730  0.00  0.00    +0.113 C 
ATOM      3  C   UNL     1       6.363   2.703   1.775  0.00  0.00    +0.165 C 
ATOM      4  C   UNL     1       7.640   1.885   1.998  0.00  0.00    +0.174 C 
ATOM      5  C   UNL     1       7.368   0.378   2.032  0.00  0.00    +0.159 C 
ATOM      6  C   UNL     1       6.220   0.078   3.013  0.00  0.00    +0.118 C 
ENDROOT
BRANCH   3   7
ATOM      7  O   UNL     1       6.679   4.089   1.962  0.00  0.00    -0.388 OA
ATOM      8  H   UNL     1       7.528   4.221   1.492  0.00  0.00    +0.210 HD
ENDBRANCH   3   7
BRANCH   4   9
ATOM      9  O   UNL     1       8.544   2.251   0.933  0.00  0.00    -0.387 OA
ATOM     10  H   UNL     1       8.888   1.420   0.549  0.00  0.00    +0.210 HD
ENDBRANCH   4   9
BRANCH   5  11
ATOM     11  O   UNL     1       8.558  -0.318   2.405  0.00  0.00    -0.388 OA
ATOM     12  H   UNL     1       8.339  -1.262   2.502  0.00  0.00    +0.210 HD
ENDBRANCH   5  11
BRANCH   1  13
ATOM     13  C   UNL     1       4.349   0.345   1.430  0.00  0.00    +0.085 C 
BRANCH  13  14
ATOM     14  C   UNL     1       3.964  -1.147   1.400  0.00  0.00    +0.015 C 
BRANCH  14  16
ATOM     15  C   UNL     1       2.616  -2.992   2.460  0.00  0.00    +0.004 C 
ATOM     16  C   UNL     1       2.951  -1.511   2.486  0.00  0.00    -0.002 C 
ENDBRANCH  14  16
ENDBRANCH  13  14
ENDBRANCH   1  13
BRANCH   2  17
ATOM     17  C   UNL     1       3.974   3.155   2.516  0.00  0.00    +0.177 C 
BRANCH  17  18
ATOM     18  O   UNL     1       2.903   2.793   3.387  0.00  0.00    -0.393 OA
ATOM     19  H   UNL     1       3.280   2.698   4.278  0.00  0.00    +0.209 HD
ENDBRANCH  17  18
ENDBRANCH   2  17
TORSDOF 8
