REMARK  Name = 
REMARK  3 active torsions:
REMARK  status: ('A' for Active; 'I' for Inactive)
REMARK    1  A    between atoms: O_1  and  C_2
REMARK    2  A    between atoms: C_2  and  CA_4
REMARK    3  A    between atoms: C_6  and  C_7
REMARK                            x       y       z     vdW  Elec       q    Type
REMARK                         _______ _______ _______ _____ _____    ______ ____
ROOT
ATOM      1  CA  UNL     1       3.266   1.282  -0.412  0.00  0.00    +0.299 C 
ATOM      2  C   UNL     1       3.532   2.146   0.809  0.00  0.00    +0.253 C 
ATOM      3  O   UNL     1       3.272   1.817   1.965  0.00  0.00    -0.273 OA
ATOM      4  N   UNL     1       4.039   3.404   0.593  0.00  0.00    -0.283 N 
ATOM      5  H   UNL     1       3.975   3.995   1.415  0.00  0.00    +0.155 HD
ATOM      6  C   UNL     1       4.438   3.964  -0.627  0.00  0.00    +0.043 A 
ATOM      7  C   UNL     1       4.361   5.361  -0.718  0.00  0.00    +0.025 A 
ATOM      8  C   UNL     1       4.665   6.014  -1.914  0.00  0.00    +0.022 A 
ATOM      9  C   UNL     1       5.049   5.271  -3.025  0.00  0.00    +0.042 A 
ATOM     10  C   UNL     1       5.172   3.885  -2.941  0.00  0.00    +0.032 A 
ATOM     11 CL   UNL     1       5.422   6.074  -4.499  0.00  0.00    -0.084 Cl
ATOM     12  C   UNL     1       4.909   3.228  -1.728  0.00  0.00    +0.023 A 
ATOM     13  C   UNL     1       5.279   1.779  -1.609  0.00  0.00    +0.076 C 
ATOM     14  N   UNL     1       4.560   0.877  -1.024  0.00  0.00    -0.259 NA
ENDROOT
BRANCH  13  15
ATOM     15  C   UNL     1       6.602   1.322  -2.169  0.00  0.00    +0.001 A 
ATOM     16  C   UNL     1       7.724   2.163  -2.178  0.00  0.00    +0.010 A 
ATOM     17  C   UNL     1       8.949   1.697  -2.661  0.00  0.00    +0.001 A 
ATOM     18  C   UNL     1       9.069   0.385  -3.114  0.00  0.00    +0.000 A 
ATOM     19  C   UNL     1       7.962  -0.462  -3.097  0.00  0.00    +0.001 A 
ATOM     20  C   UNL     1       6.732   0.004  -2.628  0.00  0.00    +0.010 A 
ENDBRANCH  13  15
BRANCH   1  21
ATOM     21  C   UNL     1       2.507   0.004  -0.067  0.00  0.00    +0.339 C 
ATOM     22  OXT UNL     1       1.368  -0.049   0.372  0.00  0.00    -0.248 OA
BRANCH  21  23
ATOM     23  O   UNL     1       3.224  -1.114  -0.381  0.00  0.00    -0.479 OA
ATOM     24  H   UNL     1       4.095  -0.793  -0.719  0.00  0.00    +0.295 HD
ENDBRANCH  21  23
ENDBRANCH   1  21
TORSDOF 3
