REMARK  Name = 
REMARK  4 active torsions:
REMARK  status: ('A' for Active; 'I' for Inactive)
REMARK    1  A    between atoms: C_1  and  C_2
REMARK    2  A    between atoms: C_2  and  C_3
REMARK    3  A    between atoms: C_3  and  C_11
REMARK    4  A    between atoms: N_7  and  C_8
REMARK                            x       y       z     vdW  Elec       q    Type
REMARK                         _______ _______ _______ _____ _____    ______ ____
ROOT
ATOM      1  C   UNL     1       3.077   1.417   0.176  0.00  0.00    +0.138 C 
ATOM      2  C   UNL     1       2.921   2.059   1.584  0.00  0.00    +0.251 C 
ATOM      3  O   UNL     1       3.018   1.476   2.658  0.00  0.00    -0.272 OA
ATOM      4  N   UNL     1       2.705   3.401   1.426  0.00  0.00    -0.227 N 
ATOM      5  C   UNL     1       2.622   4.349   2.507  0.00  0.00    +0.143 C 
ATOM      6  C   UNL     1       2.495   3.692   0.116  0.00  0.00    +0.309 C 
ATOM      7  O   UNL     1       2.252   4.779  -0.379  0.00  0.00    -0.252 OA
ATOM      8  N   UNL     1       2.575   2.527  -0.610  0.00  0.00    -0.281 N 
ATOM      9  H   UNL     1       2.537   2.568  -1.618  0.00  0.00    +0.152 HD
ENDROOT
BRANCH   1  10
ATOM     10  C   UNL     1       4.548   1.121  -0.158  0.00  0.00    -0.015 A 
ATOM     11  C   UNL     1       5.420   0.599   0.815  0.00  0.00    +0.006 A 
ATOM     12  C   UNL     1       6.743   0.278   0.501  0.00  0.00    +0.000 A 
ATOM     13  C   UNL     1       7.219   0.458  -0.793  0.00  0.00    +0.000 A 
ATOM     14  C   UNL     1       6.372   0.959  -1.775  0.00  0.00    +0.000 A 
ATOM     15  C   UNL     1       5.049   1.283  -1.464  0.00  0.00    +0.006 A 
ENDBRANCH   1  10
BRANCH   1  17
ATOM     16  C   UNL     1       0.770   0.251   0.333  0.00  0.00    +0.007 C 
ATOM     17  C   UNL     1       2.250   0.133  -0.008  0.00  0.00    +0.037 C 
ENDBRANCH   1  17
TORSDOF 2
