REMARK  Name = 
REMARK  5 active torsions:
REMARK  status: ('A' for Active; 'I' for Inactive)
REMARK    1  A    between atoms: N_1  and  C_2
REMARK    2  A    between atoms: C_2  and  C_3
REMARK    3  A    between atoms: C_3  and  C_4
REMARK    4  A    between atoms: C_6  and  O_7
REMARK    5  A    between atoms: C_8  and  O_9
REMARK                            x       y       z     vdW  Elec       q    Type
REMARK                         _______ _______ _______ _____ _____    ______ ____
ROOT
ATOM      1  C   UNL     1       4.464  -0.797   1.214  0.00  0.00    -0.042 A 
ATOM      2  C   UNL     1       5.208  -0.898   0.026  0.00  0.00    +0.007 A 
ATOM      3  C   UNL     1       6.600  -0.786   0.046  0.00  0.00    +0.049 A 
ATOM      4  C   UNL     1       7.245  -0.578   1.255  0.00  0.00    +0.158 A 
ATOM      5  C   UNL     1       6.523  -0.498   2.442  0.00  0.00    +0.158 A 
ATOM      6  C   UNL     1       5.136  -0.609   2.433  0.00  0.00    +0.052 A 
ENDROOT
BRANCH   4   7
ATOM      7  O   UNL     1       8.604  -0.445   1.272  0.00  0.00    -0.503 OA
ATOM      8  H   UNL     1       8.819  -0.283   2.212  0.00  0.00    +0.292 HD
ENDBRANCH   4   7
BRANCH   5   9
ATOM      9  O   UNL     1       7.225  -0.299   3.600  0.00  0.00    -0.503 OA
ATOM     10  H   UNL     1       6.589  -0.275   4.336  0.00  0.00    +0.292 HD
ENDBRANCH   5   9
BRANCH   1  11
ATOM     11  C   UNL     1       2.956  -0.885   1.179  0.00  0.00    +0.050 C 
BRANCH  11  12
ATOM     12  C   UNL     1       2.451  -2.322   1.338  0.00  0.00    +0.082 C 
BRANCH  12  13
ATOM     13  N   UNL     1       0.990  -2.365   1.308  0.00  0.00    -0.330 NA
ATOM     14  H   UNL     1       0.657  -2.047   0.397  0.00  0.00    +0.118 HD
ATOM     15  H   UNL     1       0.679  -3.332   1.399  0.00  0.00    +0.118 HD
ENDBRANCH  12  13
ENDBRANCH  11  12
ENDBRANCH   1  11
TORSDOF 5
