REMARK  Name = 
REMARK  3 active torsions:
REMARK  status: ('A' for Active; 'I' for Inactive)
REMARK    1  A    between atoms: C_1  and  C_2
REMARK    2  A    between atoms: C_2  and  N_3
REMARK    3  A    between atoms: C_7  and  C_10
REMARK                            x       y       z     vdW  Elec       q    Type
REMARK                         _______ _______ _______ _____ _____    ______ ____
ROOT
ATOM      1  N   UNL     1       3.026  -1.391  -0.001  0.00  0.00    -0.224 N 
ATOM      2  C   UNL     1       2.616  -2.452   0.765  0.00  0.00    +0.248 C 
ATOM      3  O   UNL     1       1.876  -2.395   1.739  0.00  0.00    -0.273 OA
ATOM      4  C   UNL     1       3.236  -3.728   0.183  0.00  0.00    +0.191 C 
ATOM      5  N   UNL     1       3.988  -3.177  -0.911  0.00  0.00    -0.284 N 
ATOM      6  H   UNL     1       4.518  -3.705  -1.590  0.00  0.00    +0.151 HD
ATOM      7  C   UNL     1       3.830  -1.815  -1.016  0.00  0.00    +0.309 C 
ATOM      8  O   UNL     1       4.333  -1.139  -1.897  0.00  0.00    -0.252 OA
ENDROOT
BRANCH   4   9
ATOM      9  C   UNL     1       2.229  -4.752  -0.280  0.00  0.00    -0.018 A 
ATOM     10  C   UNL     1       1.205  -4.422  -1.185  0.00  0.00    +0.006 A 
ATOM     11  C   UNL     1       0.284  -5.385  -1.602  0.00  0.00    +0.000 A 
ATOM     12  C   UNL     1       0.376  -6.690  -1.125  0.00  0.00    +0.000 A 
ATOM     13  C   UNL     1       1.388  -7.035  -0.232  0.00  0.00    +0.000 A 
ATOM     14  C   UNL     1       2.310  -6.073   0.188  0.00  0.00    +0.006 A 
ENDBRANCH   4   9
BRANCH   1  16
ATOM     15  C   UNL     1       1.291   0.231  -0.611  0.00  0.00    +0.025 C 
ATOM     16  C   UNL     1       2.573  -0.027   0.167  0.00  0.00    +0.114 C 
ENDBRANCH   1  16
TORSDOF 2
