REMARK  Name = 
REMARK  9 active torsions:
REMARK  status: ('A' for Active; 'I' for Inactive)
REMARK    1  A    between atoms: C_1  and  C_2
REMARK    2  A    between atoms: C_2  and  C_3
REMARK    3  A    between atoms: C_3  and  C_5
REMARK    4  A    between atoms: N_16  and  C_17
REMARK    5  A    between atoms: C_17  and  C_18
REMARK    6  A    between atoms: C_18  and  C_19
REMARK    7  A    between atoms: C_18  and  N_20
REMARK    8  A    between atoms: N_20  and  C_21
REMARK    9  A    between atoms: N_20  and  C_22
REMARK                            x       y       z     vdW  Elec       q    Type
REMARK                         _______ _______ _______ _____ _____    ______ ____
ROOT
ATOM      1  C   UNL     1       4.585  -1.414   0.828  0.00  0.00    +0.019 A 
ATOM      2  C   UNL     1       5.397  -0.303   1.011  0.00  0.00    +0.012 A 
ATOM      3  C   UNL     1       6.757  -0.489   1.215  0.00  0.00    +0.017 A 
ATOM      4  C   UNL     1       7.319  -1.780   1.269  0.00  0.00    +0.034 A 
ATOM      5  S   UNL     1       9.039  -1.798   1.690  0.00  0.00    -0.086 S 
ATOM      6  C   UNL     1       9.460  -3.499   1.450  0.00  0.00    +0.034 A 
ATOM      7  C   UNL     1       8.530  -4.497   1.088  0.00  0.00    +0.048 A 
ATOM      8  N   UNL     1       7.123  -4.253   1.092  0.00  0.00    -0.297 N 
ATOM      9  C   UNL     1       9.090  -5.740   0.743  0.00  0.00    +0.024 A 
ATOM     10  C   UNL     1      10.437  -6.054   0.980  0.00  0.00    +0.002 A 
ATOM     11  C   UNL     1      11.303  -5.085   1.455  0.00  0.00    +0.001 A 
ATOM     12  C   UNL     1      10.825  -3.797   1.639  0.00  0.00    +0.017 A 
ATOM     13  C   UNL     1       6.538  -2.940   1.064  0.00  0.00    +0.049 A 
ATOM     14  C   UNL     1       5.162  -2.705   0.819  0.00  0.00    +0.036 A 
ENDROOT
BRANCH   1  15
ATOM     15  C   UNL     1       3.104  -1.270   0.665  0.00  0.00    +0.163 C 
ATOM     16  O   UNL     1       2.416  -2.285   0.522  0.00  0.00    -0.292 OA
BRANCH  15  18
ATOM     17  C   UNL     1       0.986   0.114   0.538  0.00  0.00    +0.012 C 
ATOM     18  C   UNL     1       2.500   0.125   0.705  0.00  0.00    +0.076 C 
ENDBRANCH  15  18
ENDBRANCH   1  15
BRANCH   8  19
ATOM     19  C   UNL     1       6.172  -5.426   1.079  0.00  0.00    +0.129 C 
BRANCH  19  20
ATOM     20  C   UNL     1       6.453  -6.645   2.038  0.00  0.00    +0.071 C 
ATOM     21  C   UNL     1       6.577  -6.146   3.487  0.00  0.00    +0.026 C 
BRANCH  20  22
ATOM     22  N   UNL     1       5.421  -7.739   1.951  0.00  0.00    -0.304 NA
ATOM     23  C   UNL     1       5.801  -8.900   2.771  0.00  0.00    +0.104 C 
ATOM     24  C   UNL     1       5.194  -8.205   0.575  0.00  0.00    +0.104 C 
ENDBRANCH  20  22
ENDBRANCH  19  20
ENDBRANCH   8  19
TORSDOF 5
