REMARK  Name = 
REMARK  6 active torsions:
REMARK  status: ('A' for Active; 'I' for Inactive)
REMARK    1  A    between atoms: C_1  and  O_2
REMARK    2  A    between atoms: O_2  and  C_3
REMARK    3  A    between atoms: C_4  and  C_22
REMARK    4  A    between atoms: C_6  and  C_9
REMARK    5  A    between atoms: C_16  and  C_19
REMARK    6  A    between atoms: C_19  and  O_20
REMARK                            x       y       z     vdW  Elec       q    Type
REMARK                         _______ _______ _______ _____ _____    ______ ____
ROOT
ATOM      1  C   UNL     1       2.967  -0.560   0.971  0.00  0.00    +0.124 A 
ATOM      2  C   UNL     1       2.948  -1.918   1.321  0.00  0.00    +0.046 A 
ATOM      3  C   UNL     1       3.688  -2.401   2.396  0.00  0.00    +0.012 A 
ATOM      4  C   UNL     1       4.484  -1.549   3.163  0.00  0.00    -0.017 A 
ATOM      5  C   UNL     1       4.494  -0.186   2.795  0.00  0.00    +0.016 A 
ATOM      6  C   UNL     1       3.748   0.357   1.710  0.00  0.00    +0.001 A 
ENDROOT
BRANCH   4   7
ATOM      7  C   UNL     1       5.308  -2.078   4.278  0.00  0.00    -0.017 A 
ATOM      8  C   UNL     1       6.567  -1.541   4.591  0.00  0.00    +0.009 A 
ATOM      9  C   UNL     1       7.365  -2.086   5.604  0.00  0.00    +0.009 A 
ATOM     10  C   UNL     1       6.942  -3.210   6.326  0.00  0.00    -0.017 A 
ATOM     11  C   UNL     1       7.754  -3.805   7.308  0.00  0.00    +0.023 A 
ATOM     12  C   UNL     1       7.316  -4.948   7.991  0.00  0.00    +0.059 A 
ATOM     13  C   UNL     1       6.073  -5.512   7.682  0.00  0.00    +0.015 A 
ATOM     14  C   UNL     1       5.258  -4.918   6.720  0.00  0.00    +0.009 A 
ATOM     15  C   UNL     1       5.679  -3.768   6.036  0.00  0.00    -0.017 A 
ATOM     16  C   UNL     1       4.877  -3.182   5.041  0.00  0.00    +0.017 A 
BRANCH  12  17
ATOM     17  C   UNL     1       8.158  -5.636   9.001  0.00  0.00    +0.337 C 
ATOM     18  O   UNL     1       8.128  -6.842   9.177  0.00  0.00    -0.245 OA
BRANCH  17  19
ATOM     19  O   UNL     1       8.924  -4.801   9.733  0.00  0.00    -0.477 OA
ATOM     20  H   UNL     1       8.718  -3.855   9.630  0.00  0.00    +0.295 HD
ENDBRANCH  17  19
ENDBRANCH  12  17
ENDBRANCH   4   7
BRANCH   6  21
ATOM     21  C   UNL     1       3.895   1.873   1.378  0.00  0.00    -0.000 C 
ATOM     22  C   UNL     1       4.115   2.741   2.670  0.00  0.00    +0.015 C 
ATOM     23  C   UNL     1       4.352   4.225   2.343  0.00  0.00    -0.010 C 
ATOM     24  C   UNL     1       5.593   4.344   1.444  0.00  0.00    +0.007 C 
ATOM     25  C   UNL     1       5.374   3.558   0.142  0.00  0.00    -0.010 C 
ATOM     26  C   UNL     1       4.143   4.127  -0.580  0.00  0.00    +0.007 C 
ATOM     27  C   UNL     1       2.904   4.004   0.322  0.00  0.00    -0.010 C 
ATOM     28  C   UNL     1       3.130   4.788   1.617  0.00  0.00    +0.007 C 
ATOM     29  C   UNL     1       5.142   2.068   0.468  0.00  0.00    +0.015 C 
ATOM     30  C   UNL     1       2.673   2.517   0.646  0.00  0.00    +0.015 C 
ENDBRANCH   6  21
BRANCH   1  32
ATOM     31  C   UNL     1       1.090  -0.806  -0.461  0.00  0.00    +0.277 C 
ATOM     32  O   UNL     1       2.307  -0.132  -0.150  0.00  0.00    -0.495 OA
ENDBRANCH   1  32
TORSDOF 5
