REMARK  Name = 
REMARK  6 active torsions:
REMARK  status: ('A' for Active; 'I' for Inactive)
REMARK    1  A    between atoms: N_1  and  CA_2
REMARK    2  A    between atoms: CA_2  and  C_4
REMARK    3  A    between atoms: CA_2  and  C_22
REMARK    4  A    between atoms: N_6  and  CA_7
REMARK    5  A    between atoms: CA_15  and  C_19
REMARK    6  A    between atoms: C_19  and  O_20
REMARK                            x       y       z     vdW  Elec       q    Type
REMARK                         _______ _______ _______ _____ _____    ______ ____
ROOT
ATOM      1  C   UNL     1       2.980  -1.474  -0.217  0.00  0.00    +0.235 C 
ATOM      2  N   UNL     1       2.442  -2.563   0.435  0.00  0.00    -0.301 N 
ATOM      3  H   UNL     1       1.485  -2.514   0.777  0.00  0.00    +0.150 HD
ATOM      4  O   UNL     1       4.173  -1.476  -0.541  0.00  0.00    -0.274 OA
ENDROOT
BRANCH   2   5
ATOM      5  CA  UNL     1       3.368  -3.652   0.859  0.00  0.00    +0.180 C 
ATOM      6  C   UNL     1       2.837  -4.911   1.612  0.00  0.00    +0.242 C 
ATOM      7  O   UNL     1       1.979  -5.755   1.498  0.00  0.00    -0.273 OA
ATOM      8  N   UNL     1       3.739  -4.723   2.612  0.00  0.00    -0.258 N 
ATOM      9  CA  UNL     1       3.681  -5.107   3.941  0.00  0.00    +0.136 C 
ATOM     10  C   UNL     1       3.841  -4.168   4.903  0.00  0.00    +0.047 C 
ATOM     11 CL   UNL     1       3.825  -4.479   6.610  0.00  0.00    -0.086 Cl
ATOM     12  C   UNL     1       3.971  -2.691   4.596  0.00  0.00    +0.051 C 
ATOM     13  C   UNL     1       3.471  -2.356   3.195  0.00  0.00    +0.031 C 
ATOM     14  C   UNL     1       4.086  -3.351   2.221  0.00  0.00    +0.111 C 
BRANCH   9  15
ATOM     15  C   UNL     1       3.557  -6.570   4.285  0.00  0.00    +0.352 C 
ATOM     16  OXT UNL     1       4.010  -7.072   5.304  0.00  0.00    -0.244 OA
BRANCH  15  17
ATOM     17  O   UNL     1       2.967  -7.344   3.348  0.00  0.00    -0.476 OA
ATOM     18  H   UNL     1       2.519  -6.880   2.609  0.00  0.00    +0.295 HD
ENDBRANCH  15  17
ENDBRANCH   9  15
ENDBRANCH   2   5
BRANCH   1  19
ATOM     19  CA  UNL     1       2.132  -0.195  -0.415  0.00  0.00    +0.168 C 
BRANCH  19  20
ATOM     20  C   UNL     1       0.658  -0.283  -0.067  0.00  0.00    -0.022 A 
ATOM     21  C   UNL     1       0.139   0.154   1.164  0.00  0.00    +0.005 A 
ATOM     22  C   UNL     1      -1.236   0.137   1.407  0.00  0.00    +0.000 A 
ATOM     23  C   UNL     1      -2.113  -0.330   0.432  0.00  0.00    +0.000 A 
ATOM     24  C   UNL     1      -1.616  -0.792  -0.783  0.00  0.00    +0.000 A 
ATOM     25  C   UNL     1      -0.241  -0.774  -1.029  0.00  0.00    +0.005 A 
ENDBRANCH  19  20
BRANCH  19  26
ATOM     26  N   UNL     1       2.823   0.913   0.288  0.00  0.00    -0.316 NA
ATOM     27  H1  UNL     1       2.923   0.673   1.271  0.00  0.00    +0.119 HD
ATOM     28  H2  UNL     1       3.782   0.935  -0.071  0.00  0.00    +0.119 HD
ENDBRANCH  19  26
ENDBRANCH   1  19
TORSDOF 6
