REMARK  Name = 
REMARK  9 active torsions:
REMARK  status: ('A' for Active; 'I' for Inactive)
REMARK    1  A    between atoms: C_1  and  C_2
REMARK    2  A    between atoms: C_2  and  C_3
REMARK    3  A    between atoms: C_2  and  N_4
REMARK    4  A    between atoms: N_4  and  C_5
REMARK    5  A    between atoms: C_5  and  C_6
REMARK    6  A    between atoms: C_6  and  O_7
REMARK    7  A    between atoms: C_6  and  C_8
REMARK    8  A    between atoms: C_8  and  O_9
REMARK    9  A    between atoms: O_9  and  C_10
REMARK                            x       y       z     vdW  Elec       q    Type
REMARK                         _______ _______ _______ _____ _____    ______ ____
ROOT
ATOM      1  O   UNL     1       6.971  -2.711   3.266  0.00  0.00    -0.489 OA
ENDROOT
BRANCH   1   2
ATOM      2  C   UNL     1       8.354  -2.724   3.291  0.00  0.00    +0.130 A 
ATOM      3  C   UNL     1       9.029  -3.908   3.677  0.00  0.00    +0.041 A 
ATOM      4  C   UNL     1       8.612  -5.206   4.099  0.00  0.00    +0.031 A 
ATOM      5  C   UNL     1       9.737  -5.958   4.346  0.00  0.00    +0.084 A 
ATOM      6  N   UNL     1      10.828  -5.176   4.084  0.00  0.00    -0.361 N 
ATOM      7  H   UNL     1      11.792  -5.465   4.180  0.00  0.00    +0.165 HD
ATOM      8  C   UNL     1      10.428  -3.923   3.680  0.00  0.00    +0.050 A 
ATOM      9  C   UNL     1      11.202  -2.815   3.321  0.00  0.00    +0.026 A 
ATOM     10  C   UNL     1      10.530  -1.645   2.981  0.00  0.00    +0.006 A 
ATOM     11  C   UNL     1       9.139  -1.595   2.978  0.00  0.00    +0.046 A 
ENDBRANCH   1   2
BRANCH   1  12
ATOM     12  C   UNL     1       6.431  -1.879   2.233  0.00  0.00    +0.261 C 
BRANCH  12  13
ATOM     13  C   UNL     1       4.893  -1.903   2.198  0.00  0.00    +0.166 C 
BRANCH  13  14
ATOM     14  O   UNL     1       4.369  -3.203   1.896  0.00  0.00    -0.387 OA
ATOM     15  H   UNL     1       5.027  -3.681   1.364  0.00  0.00    +0.210 HD
ENDBRANCH  13  14
BRANCH  13  16
ATOM     16  C   UNL     1       4.434  -0.907   1.108  0.00  0.00    +0.115 C 
BRANCH  16  17
ATOM     17  N   UNL     1       2.979  -0.747   1.098  0.00  0.00    -0.311 NA
ATOM     18  H   UNL     1       2.562  -1.682   1.050  0.00  0.00    +0.122 HD
BRANCH  17  20
ATOM     19  C   UNL     1       0.961   0.081   0.040  0.00  0.00    +0.023 C 
ATOM     20  C   UNL     1       2.490   0.089  -0.004  0.00  0.00    +0.048 C 
ATOM     21  C   UNL     1       2.997   1.531   0.092  0.00  0.00    +0.023 C 
ENDBRANCH  17  20
ENDBRANCH  16  17
ENDBRANCH  13  16
ENDBRANCH  12  13
ENDBRANCH   1  12
TORSDOF 7
