REMARK  Name = 
REMARK  2 active torsions:
REMARK  status: ('A' for Active; 'I' for Inactive)
REMARK    1  A    between atoms: O_1  and  C_2
REMARK    2  A    between atoms: C_4  and  C_5
REMARK                            x       y       z     vdW  Elec       q    Type
REMARK                         _______ _______ _______ _____ _____    ______ ____
ROOT
ATOM      1  C   UNL     1       2.454   0.111   0.018  0.00  0.00    +0.320 C 
ATOM      2  C   UNL     1       2.907   1.382   0.787  0.00  0.00    +0.269 C 
ATOM      3  O   UNL     1       2.144   2.197   1.301  0.00  0.00    -0.270 OA
ATOM      4  N   UNL     1       4.261   1.640   0.791  0.00  0.00    -0.281 N 
ATOM      5  H   UNL     1       4.469   2.590   1.076  0.00  0.00    +0.155 HD
ATOM      6  C   UNL     1       5.276   0.830   0.250  0.00  0.00    +0.043 A 
ATOM      7  C   UNL     1       6.410   1.507  -0.225  0.00  0.00    +0.025 A 
ATOM      8  C   UNL     1       7.447   0.808  -0.842  0.00  0.00    +0.022 A 
ATOM      9  C   UNL     1       7.363  -0.574  -0.973  0.00  0.00    +0.042 A 
ATOM     10  C   UNL     1       6.259  -1.267  -0.479  0.00  0.00    +0.032 A 
ATOM     11 CL   UNL     1       8.649  -1.439  -1.716  0.00  0.00    -0.084 Cl
ATOM     12  C   UNL     1       5.221  -0.576   0.165  0.00  0.00    +0.023 A 
ATOM     13  C   UNL     1       4.131  -1.375   0.820  0.00  0.00    +0.079 C 
ATOM     14  N   UNL     1       2.888  -1.039   0.791  0.00  0.00    -0.243 NA
ENDROOT
BRANCH  13  15
ATOM     15  C   UNL     1       4.486  -2.633   1.582  0.00  0.00    +0.019 A 
ATOM     16  C   UNL     1       3.629  -3.750   1.645  0.00  0.00    +0.050 A 
ATOM     17 CL   UNL     1       2.111  -3.865   0.818  0.00  0.00    -0.083 Cl
ATOM     18  C   UNL     1       4.009  -4.890   2.368  0.00  0.00    +0.020 A 
ATOM     19  C   UNL     1       5.242  -4.944   3.013  0.00  0.00    +0.001 A 
ATOM     20  C   UNL     1       6.095  -3.847   2.963  0.00  0.00    +0.001 A 
ATOM     21  C   UNL     1       5.712  -2.692   2.273  0.00  0.00    +0.011 A 
ENDBRANCH  13  15
BRANCH   1  22
ATOM     22  O   UNL     1       1.066   0.048  -0.220  0.00  0.00    -0.364 OA
ATOM     23  H   UNL     1       0.784  -0.653   0.393  0.00  0.00    +0.212 HD
ENDBRANCH   1  22
TORSDOF 2
