REMARK  Name = 
REMARK  7 active torsions:
REMARK  status: ('A' for Active; 'I' for Inactive)
REMARK    1  A    between atoms: C_5  and  C_6
REMARK    2  A    between atoms: CA_7  and  C_25
REMARK    3  A    between atoms: CA_11  and  N_13
REMARK    4  A    between atoms: C_14  and  CA_16
REMARK    5  A    between atoms: CA_16  and  N_18
REMARK    6  A    between atoms: CA_16  and  C_19
REMARK    7  A    between atoms: C_25  and  O_26
REMARK                            x       y       z     vdW  Elec       q    Type
REMARK                         _______ _______ _______ _____ _____    ______ ____
ROOT
ATOM      1  C   UNL     1       9.092  -1.127   4.963  0.00  0.00    +0.169 C 
ATOM      2  CA  UNL     1       8.518  -1.134   3.508  0.00  0.00    +0.191 C 
ATOM      3  C   UNL     1       9.782  -2.013   3.203  0.00  0.00    +0.244 C 
ATOM      4  O   UNL     1      10.342  -2.518   2.260  0.00  0.00    -0.273 OA
ATOM      5  N   UNL     1      10.031  -2.144   4.524  0.00  0.00    -0.249 N 
ATOM      6  CA  UNL     1      10.815  -2.899   5.352  0.00  0.00    +0.122 C 
ATOM      7  C   UNL     1      10.521  -2.945   6.683  0.00  0.00    -0.034 C 
ATOM      8  C   UNL     1      11.286  -3.783   7.688  0.00  0.00    +0.042 C 
ATOM      9  C   UNL     1       9.367  -2.216   7.344  0.00  0.00    +0.103 C 
ATOM     10  S   UNL     1       8.005  -1.818   6.233  0.00  0.00    -0.131 S 
ENDROOT
BRANCH   2  11
ATOM     11  N   UNL     1       7.217  -1.819   3.342  0.00  0.00    -0.300 N 
ATOM     12  H   UNL     1       6.783  -2.312   4.124  0.00  0.00    +0.150 HD
ATOM     13  C   UNL     1       6.503  -1.868   2.167  0.00  0.00    +0.235 C 
ATOM     14  O   UNL     1       6.871  -1.317   1.135  0.00  0.00    -0.274 OA
BRANCH  13  15
ATOM     15  CA  UNL     1       5.189  -2.682   2.293  0.00  0.00    +0.168 C 
BRANCH  15  16
ATOM     16  C   UNL     1       5.376  -4.119   1.844  0.00  0.00    -0.022 A 
ATOM     17  C   UNL     1       5.714  -5.148   2.740  0.00  0.00    +0.005 A 
ATOM     18  C   UNL     1       5.863  -6.464   2.295  0.00  0.00    +0.000 A 
ATOM     19  C   UNL     1       5.691  -6.767   0.947  0.00  0.00    +0.000 A 
ATOM     20  C   UNL     1       5.383  -5.756   0.041  0.00  0.00    +0.000 A 
ATOM     21  C   UNL     1       5.230  -4.440   0.486  0.00  0.00    +0.005 A 
ENDBRANCH  15  16
BRANCH  15  22
ATOM     22  N   UNL     1       4.687  -2.597   3.694  0.00  0.00    -0.316 NA
ATOM     23  H1  UNL     1       4.451  -1.622   3.884  0.00  0.00    +0.119 HD
ATOM     24  H2  UNL     1       3.801  -3.103   3.728  0.00  0.00    +0.119 HD
ENDBRANCH  15  22
ENDBRANCH  13  15
ENDBRANCH   2  11
BRANCH   6  25
ATOM     25  C   UNL     1      11.986  -3.707   4.811  0.00  0.00    +0.351 C 
ATOM     26  OXT UNL     1      12.708  -4.405   5.510  0.00  0.00    -0.244 OA
BRANCH  25  27
ATOM     27  O   UNL     1      12.280  -3.570   3.505  0.00  0.00    -0.476 OA
ATOM     28  H   UNL     1      11.603  -3.169   2.918  0.00  0.00    +0.295 HD
ENDBRANCH  25  27
ENDBRANCH   6  25
TORSDOF 6
