REMARK  Name = 
REMARK  7 active torsions:
REMARK  status: ('A' for Active; 'I' for Inactive)
REMARK    1  A    between atoms: C_1  and  N_2
REMARK    2  A    between atoms: C_3  and  C_5
REMARK    3  A    between atoms: C_9  and  O_10
REMARK    4  A    between atoms: O_10  and  C_11
REMARK    5  A    between atoms: C_14  and  N_15
REMARK    6  A    between atoms: N_18  and  C_19
REMARK    7  A    between atoms: C_21  and  C_26
REMARK                            x       y       z     vdW  Elec       q    Type
REMARK                         _______ _______ _______ _____ _____    ______ ____
ROOT
ATOM      1  C   UNL     1       6.852   3.067  -2.840  0.00  0.00    +0.129 A 
ATOM      2  C   UNL     1       6.870   4.447  -3.043  0.00  0.00    +0.048 A 
ATOM      3  C   UNL     1       6.342   4.993  -4.225  0.00  0.00    +0.027 A 
ATOM      4  C   UNL     1       5.781   4.161  -5.201  0.00  0.00    +0.035 A 
ATOM      5  C   UNL     1       5.726   2.785  -4.960  0.00  0.00    +0.027 A 
ATOM      6  C   UNL     1       6.219   2.245  -3.772  0.00  0.00    +0.048 A 
ENDROOT
BRANCH   4   7
ATOM      7  N   UNL     1       5.332   4.729  -6.414  0.00  0.00    -0.269 N 
ATOM      8  H   UNL     1       5.457   5.726  -6.542  0.00  0.00    +0.156 HD
ATOM      9  C   UNL     1       4.487   4.104  -7.308  0.00  0.00    +0.308 C 
ATOM     10  N   UNL     1       4.500   4.726  -8.550  0.00  0.00    -0.269 N 
ATOM     11  H   UNL     1       5.409   5.082  -8.811  0.00  0.00    +0.156 HD
ATOM     12  O   UNL     1       3.821   3.100  -7.067  0.00  0.00    -0.252 OA
BRANCH  10  13
ATOM     13  C   UNL     1       3.649   4.302  -9.593  0.00  0.00    +0.035 A 
ATOM     14  C   UNL     1       2.309   3.990  -9.357  0.00  0.00    +0.025 A 
ATOM     15  C   UNL     1       1.488   3.577 -10.406  0.00  0.00    +0.022 A 
ATOM     16  C   UNL     1       2.007   3.453 -11.697  0.00  0.00    +0.053 A 
ATOM     17 CL   UNL     1       0.929   2.941 -12.943  0.00  0.00    -0.083 Cl
ATOM     18  C   UNL     1       3.352   3.743 -11.951  0.00  0.00    +0.075 A 
ATOM     19  C   UNL     1       4.165   4.196 -10.886  0.00  0.00    +0.037 A 
BRANCH  18  20
ATOM     20  C   UNL     1       3.950   3.564 -13.319  0.00  0.00    +0.419 C 
ATOM     21  F   UNL     1       3.407   4.401 -14.246  0.00  0.00    -0.166 F 
ATOM     22  F   UNL     1       3.815   2.302 -13.810  0.00  0.00    -0.166 F 
ATOM     23  F   UNL     1       5.292   3.818 -13.350  0.00  0.00    -0.166 F 
ENDBRANCH  18  20
ENDBRANCH  10  13
ENDBRANCH   4   7
BRANCH   1  24
ATOM     24  O   UNL     1       7.461   2.580  -1.703  0.00  0.00    -0.456 OA
BRANCH  24  27
ATOM     25  C   UNL     1       9.454  -0.259  -2.933  0.00  0.00    +0.129 A 
ATOM     26  C   UNL     1       8.846   0.987  -2.942  0.00  0.00    +0.079 A 
ATOM     27  C   UNL     1       8.177   1.401  -1.794  0.00  0.00    +0.132 A 
ATOM     28  C   UNL     1       8.234   0.610  -0.651  0.00  0.00    +0.066 A 
ATOM     29  C   UNL     1       8.908  -0.601  -0.722  0.00  0.00    +0.115 A 
ATOM     30  N   UNL     1       9.504  -1.072  -1.841  0.00  0.00    -0.250 NA
BRANCH  25  34
ATOM     31  C   UNL     1      11.165  -2.666  -5.295  0.00  0.00    +0.128 C 
ATOM     32  N   UNL     1      10.599  -2.035  -4.135  0.00  0.00    -0.313 N 
ATOM     33  H   UNL     1      10.525  -2.524  -3.247  0.00  0.00    +0.149 HD
ATOM     34  C   UNL     1      10.048  -0.774  -4.207  0.00  0.00    +0.262 C 
ATOM     35  O   UNL     1      10.017  -0.109  -5.238  0.00  0.00    -0.269 OA
ENDBRANCH  25  34
ENDBRANCH  24  27
ENDBRANCH   1  24
TORSDOF 6
