REMARK  Name = 
REMARK  6 active torsions:
REMARK  status: ('A' for Active; 'I' for Inactive)
REMARK    1  A    between atoms: C_1  and  C_2
REMARK    2  A    between atoms: C_9  and  C_10
REMARK    3  A    between atoms: C_13  and  N_14
REMARK    4  A    between atoms: N_14  and  N_15
REMARK    5  A    between atoms: C_16  and  C_17
REMARK    6  A    between atoms: C_16  and  C_19
REMARK                            x       y       z     vdW  Elec       q    Type
REMARK                         _______ _______ _______ _____ _____    ______ ____
ROOT
ATOM      1  C   UNL     1       2.665  -2.594   0.000  0.00  0.00    -0.002 A 
ATOM      2  C   UNL     1       1.614  -2.731   0.919  0.00  0.00    +0.011 A 
ATOM      3  C   UNL     1       1.257  -3.993   1.416  0.00  0.00    +0.025 A 
ATOM      4  C   UNL     1       1.954  -5.141   1.021  0.00  0.00    +0.048 A 
ATOM      5  C   UNL     1       3.009  -4.992   0.112  0.00  0.00    +0.025 A 
ATOM      6  C   UNL     1       3.364  -3.735  -0.395  0.00  0.00    +0.011 A 
ENDROOT
BRANCH   1   9
ATOM      7  C   UNL     1       5.348  -0.850   0.068  0.00  0.00    +0.014 C 
ATOM      8  C   UNL     1       4.365  -0.937  -1.104  0.00  0.00    +0.046 C 
ATOM      9  C   UNL     1       2.961  -1.239  -0.587  0.00  0.00    +0.070 C 
ATOM     10  N   UNL     1       1.992  -0.376  -0.613  0.00  0.00    -0.184 NA
ATOM     11  N   UNL     1       2.187   0.836  -1.176  0.00  0.00    -0.207 N 
ATOM     12  H   UNL     1       1.389   1.464  -1.173  0.00  0.00    +0.177 HD
ATOM     13  C   UNL     1       3.284   1.262  -1.859  0.00  0.00    +0.233 C 
ATOM     14  O   UNL     1       3.304   2.366  -2.403  0.00  0.00    -0.274 OA
ATOM     15  C   UNL     1       4.447   0.322  -1.960  0.00  0.00    +0.107 C 
ENDBRANCH   1   9
BRANCH   4  16
ATOM     16  N   UNL     1       1.553  -6.415   1.486  0.00  0.00    -0.236 N 
ATOM     17  H   UNL     1       0.809  -6.372   2.186  0.00  0.00    +0.174 HD
BRANCH  16  18
ATOM     18  N   UNL     1       2.525  -7.376   1.553  0.00  0.00    -0.160 NA
ATOM     19  C   UNL     1       2.240  -8.563   1.997  0.00  0.00    +0.234 C 
BRANCH  19  20
ATOM     20  C   UNL     1       3.353  -9.469   2.046  0.00  0.00    +0.132 C 
ATOM     21  N   UNL     1       4.239 -10.219   2.099  0.00  0.00    -0.188 NA
ENDBRANCH  19  20
BRANCH  19  22
ATOM     22  C   UNL     1       0.912  -8.919   2.403  0.00  0.00    +0.132 C 
ATOM     23  N   UNL     1      -0.163  -9.187   2.746  0.00  0.00    -0.188 NA
ENDBRANCH  19  22
ENDBRANCH  16  18
ENDBRANCH   4  16
TORSDOF 5
