REMARK  Name = 
REMARK  6 active torsions:
REMARK  status: ('A' for Active; 'I' for Inactive)
REMARK    1  A    between atoms: CG1_1  and  CB_2
REMARK    2  A    between atoms: CB_2  and  CG2_3
REMARK    3  A    between atoms: CB_2  and  CA_4
REMARK    4  A    between atoms: CA_4  and  N_6
REMARK    5  A    between atoms: CA_4  and  C_7
REMARK    6  A    between atoms: C_7  and  O_8
REMARK                            x       y       z     vdW  Elec       q    Type
REMARK                         _______ _______ _______ _____ _____    ______ ____
ROOT
ATOM      1  CA  VAL A   1       3.064  -1.122   0.830  0.00  0.00    +0.163 C 
ENDROOT
BRANCH   1   3
ATOM      2  CG1 VAL A   1       1.008  -0.960   2.368  0.00  0.00    +0.009 C 
ATOM      3  CB  VAL A   1       2.540  -0.953   2.273  0.00  0.00    +0.010 C 
ATOM      4  CG2 VAL A   1       3.089   0.314   2.936  0.00  0.00    +0.009 C 
ENDBRANCH   1   3
BRANCH   1   5
ATOM      5  N   VAL A   1       2.569  -0.071  -0.107  0.00  0.00    -0.318 NA
ATOM      6  H1  VAL A   1       2.841   0.842   0.267  0.00  0.00    +0.119 HD
ATOM      7  H2  VAL A   1       3.110  -0.149  -0.976  0.00  0.00    +0.119 HD
ENDBRANCH   1   5
BRANCH   1   8
ATOM      8  C   VAL A   1       2.647  -2.495   0.274  0.00  0.00    +0.322 C 
ATOM      9  OXT VAL A   1       3.164  -3.563   0.561  0.00  0.00    -0.249 OA
BRANCH   8  10
ATOM     10  O   VAL A   1       1.592  -2.377  -0.577  0.00  0.00    -0.480 OA
ATOM     11  H   VAL A   1       1.381  -1.411  -0.616  0.00  0.00    +0.295 HD
ENDBRANCH   8  10
ENDBRANCH   1   8
TORSDOF 4
