REMARK  Name = 
REMARK  10 active torsions:
REMARK  status: ('A' for Active; 'I' for Inactive)
REMARK    1  A    between atoms: C_1  and  N_2
REMARK    2  A    between atoms: N_2  and  C_3
REMARK    3  A    between atoms: C_4  and  C_6
REMARK    4  A    between atoms: C_6  and  C_7
REMARK    5  A    between atoms: C_6  and  C_23
REMARK    6  A    between atoms: C_6  and  C_29
REMARK    7  A    between atoms: C_7  and  C_8
REMARK    8  A    between atoms: C_8  and  N_9
REMARK    9  A    between atoms: C_12  and  O_13
REMARK   10  A    between atoms: C_12  and  C_16
REMARK                            x       y       z     vdW  Elec       q    Type
REMARK                         _______ _______ _______ _____ _____    ______ ____
ROOT
ATOM      1  C   UNL     1       4.589   1.446  -0.479  0.00  0.00    +0.098 C 
ENDROOT
BRANCH   1   2
ATOM      2  C   UNL     1       5.080   2.952  -0.448  0.00  0.00    -0.028 A 
ATOM      3  C   UNL     1       6.458   3.261  -0.334  0.00  0.00    +0.005 A 
ATOM      4  C   UNL     1       6.937   4.567  -0.380  0.00  0.00    +0.000 A 
ATOM      5  C   UNL     1       6.050   5.621  -0.507  0.00  0.00    +0.000 A 
ATOM      6  C   UNL     1       4.682   5.361  -0.512  0.00  0.00    +0.000 A 
ATOM      7  C   UNL     1       4.205   4.048  -0.454  0.00  0.00    +0.005 A 
ENDBRANCH   1   2
BRANCH   1   8
ATOM      8  C   UNL     1       5.100   0.646  -1.734  0.00  0.00    -0.028 A 
ATOM      9  C   UNL     1       4.375  -0.467  -2.221  0.00  0.00    +0.005 A 
ATOM     10  C   UNL     1       4.778  -1.178  -3.360  0.00  0.00    +0.000 A 
ATOM     11  C   UNL     1       5.936  -0.820  -4.040  0.00  0.00    +0.000 A 
ATOM     12  C   UNL     1       6.690   0.245  -3.574  0.00  0.00    +0.000 A 
ATOM     13  C   UNL     1       6.271   0.967  -2.450  0.00  0.00    +0.005 A 
ENDBRANCH   1   8
BRANCH   1  16
ATOM     14  C   UNL     1       0.731   1.417  -1.265  0.00  0.00    +0.131 C 
ATOM     15  N   UNL     1       2.154   1.660  -1.462  0.00  0.00    -0.307 N 
ATOM     16  C   UNL     1       2.994   1.348  -0.380  0.00  0.00    +0.230 C 
ATOM     17  O   UNL     1       2.461   0.967   0.673  0.00  0.00    -0.274 OA
ATOM     18  C   UNL     1       2.514   2.435  -2.644  0.00  0.00    +0.131 C 
ENDBRANCH   1  16
BRANCH   1  19
ATOM     19  C   UNL     1       5.168   0.880   0.892  0.00  0.00    +0.041 C 
BRANCH  19  20
ATOM     20  C   UNL     1       4.944  -0.580   1.318  0.00  0.00    +0.086 C 
BRANCH  20  21
ATOM     21  N   UNL     1       5.491  -1.587   0.414  0.00  0.00    -0.302 NA
ATOM     22  C   UNL     1       5.062  -2.942   0.752  0.00  0.00    +0.087 C 
ATOM     23  C   UNL     1       5.847  -3.565   1.907  0.00  0.00    +0.055 C 
ATOM     24  C   UNL     1       7.378  -3.483   1.720  0.00  0.00    +0.093 C 
ATOM     25  C   UNL     1       7.765  -2.040   1.345  0.00  0.00    +0.055 C 
ATOM     26  C   UNL     1       6.936  -1.518   0.178  0.00  0.00    +0.087 C 
BRANCH  24  27
ATOM     27  C   UNL     1       8.001  -4.516   0.772  0.00  0.00    -0.016 A 
ATOM     28  C   UNL     1       7.248  -5.450   0.042  0.00  0.00    +0.008 A 
ATOM     29  C   UNL     1       7.864  -6.412  -0.767  0.00  0.00    +0.020 A 
ATOM     30  C   UNL     1       9.250  -6.462  -0.855  0.00  0.00    +0.041 A 
ATOM     31 CL   UNL     1      10.003  -7.674  -1.815  0.00  0.00    -0.084 Cl
ATOM     32  C   UNL     1      10.026  -5.550  -0.151  0.00  0.00    +0.020 A 
ATOM     33  C   UNL     1       9.406  -4.590   0.655  0.00  0.00    +0.008 A 
ENDBRANCH  24  27
BRANCH  24  34
ATOM     34  O   UNL     1       7.972  -3.772   3.001  0.00  0.00    -0.384 OA
ATOM     35  H   UNL     1       7.549  -3.199   3.662  0.00  0.00    +0.211 HD
ENDBRANCH  24  34
ENDBRANCH  20  21
ENDBRANCH  19  20
ENDBRANCH   1  19
TORSDOF 8
