REMARK  Name = 
REMARK  17 active torsions:
REMARK  status: ('A' for Active; 'I' for Inactive)
REMARK    1  A    between atoms: C_1  and  N_2
REMARK    2  A    between atoms: N_2  and  C_3
REMARK    3  A    between atoms: C_3  and  C_4
REMARK    4  A    between atoms: C_3  and  C_5
REMARK    5  A    between atoms: C_8  and  N_9
REMARK    6  A    between atoms: C_10  and  O_11
REMARK    7  A    between atoms: O_11  and  C_12
REMARK    8  A    between atoms: C_13  and  N_14
REMARK    9  A    between atoms: C_16  and  N_17
REMARK   10  A    between atoms: C_18  and  O_19
REMARK   11  A    between atoms: O_19  and  C_20
REMARK   12  A    between atoms: C_23  and  C_24
REMARK   13  A    between atoms: C_23  and  O_25
REMARK   14  A    between atoms: C_26  and  N_27
REMARK   15  A    between atoms: N_27  and  C_28
REMARK   16  A    between atoms: C_29  and  O_30
REMARK   17  A    between atoms: C_31  and  O_32
REMARK                            x       y       z     vdW  Elec       q    Type
REMARK                         _______ _______ _______ _____ _____    ______ ____
ROOT
ATOM      1  C   UNL     1       4.563  -3.593  -1.454  0.00  0.00    +0.169 C 
ATOM      2  C   UNL     1       5.721  -3.928  -2.420  0.00  0.00    +0.175 C 
ATOM      3  C   UNL     1       6.833  -2.835  -2.383  0.00  0.00    +0.169 C 
ATOM      4  C   UNL     1       6.261  -1.409  -2.634  0.00  0.00    +0.084 C 
ATOM      5  C   UNL     1       5.022  -1.129  -1.762  0.00  0.00    +0.042 C 
ATOM      6  C   UNL     1       3.964  -2.235  -1.894  0.00  0.00    +0.084 C 
ENDROOT
BRANCH   4   7
ATOM      7  N   UNL     1       5.942  -1.110  -4.039  0.00  0.00    -0.325 NA
ATOM      8  H   UNL     1       6.569  -1.563  -4.695  0.00  0.00    +0.119 HD
ATOM      9  H   UNL     1       4.990  -1.347  -4.290  0.00  0.00    +0.119 HD
ENDBRANCH   4   7
BRANCH   6  10
ATOM     10  N   UNL     1       2.720  -1.852  -1.212  0.00  0.00    -0.325 NA
ATOM     11  H   UNL     1       2.083  -2.642  -1.157  0.00  0.00    +0.119 HD
ATOM     12  H   UNL     1       2.886  -1.471  -0.295  0.00  0.00    +0.119 HD
ENDBRANCH   6  10
BRANCH   2  13
ATOM     13  O   UNL     1       5.190  -4.118  -3.743  0.00  0.00    -0.387 OA
ATOM     14  H   UNL     1       5.734  -3.580  -4.344  0.00  0.00    +0.210 HD
ENDBRANCH   2  13
BRANCH   1  15
ATOM     15  O   UNL     1       5.166  -3.617  -0.163  0.00  0.00    -0.342 OA
BRANCH  15  18
ATOM     16  C   UNL     1       4.808  -3.812   3.426  0.00  0.00    +0.138 C 
ATOM     17  O   UNL     1       5.310  -3.807   2.085  0.00  0.00    -0.345 OA
ATOM     18  C   UNL     1       4.385  -3.532   1.024  0.00  0.00    +0.268 C 
ATOM     19  C   UNL     1       3.189  -4.530   1.067  0.00  0.00    +0.107 C 
ATOM     20  C   UNL     1       2.551  -4.472   2.455  0.00  0.00    +0.026 C 
ATOM     21  C   UNL     1       3.583  -4.733   3.546  0.00  0.00    +0.035 C 
BRANCH  19  22
ATOM     22  N   UNL     1       3.571  -5.927   0.764  0.00  0.00    -0.323 NA
ATOM     23  H   UNL     1       3.955  -5.967  -0.181  0.00  0.00    +0.119 HD
ATOM     24  H   UNL     1       4.374  -6.167   1.349  0.00  0.00    +0.119 HD
ENDBRANCH  19  22
BRANCH  16  25
ATOM     25  C   UNL     1       4.621  -2.385   4.054  0.00  0.00    +0.079 C 
ATOM     26  C   UNL     1       5.851  -1.506   3.776  0.00  0.00    +0.026 C 
BRANCH  25  28
ATOM     27  C   UNL     1       4.178  -1.264   6.223  0.00  0.00    +0.101 C 
ATOM     28  N   UNL     1       4.393  -2.514   5.512  0.00  0.00    -0.314 NA
ATOM     29  H   UNL     1       3.597  -3.123   5.692  0.00  0.00    +0.122 HD
ENDBRANCH  25  28
ENDBRANCH  16  25
ENDBRANCH  15  18
ENDBRANCH   1  15
BRANCH   3  30
ATOM     30  O   UNL     1       7.805  -3.276  -3.333  0.00  0.00    -0.341 OA
BRANCH  30  31
ATOM     31  C   UNL     1       8.855  -2.398  -3.743  0.00  0.00    +0.281 C 
ATOM     32  C   UNL     1       9.269  -2.955  -5.122  0.00  0.00    +0.190 C 
ATOM     33  C   UNL     1      10.004  -4.312  -4.895  0.00  0.00    +0.121 C 
ATOM     34  C   UNL     1      11.267  -4.021  -4.020  0.00  0.00    +0.104 C 
ATOM     35  C   UNL     1      12.136  -5.247  -3.746  0.00  0.00    +0.045 C 
ATOM     36  C   UNL     1      10.770  -3.427  -2.678  0.00  0.00    +0.199 C 
ATOM     37  O   UNL     1       9.926  -2.289  -2.810  0.00  0.00    -0.346 OA
BRANCH  33  38
ATOM     38  N   UNL     1      10.287  -5.030  -6.164  0.00  0.00    -0.311 NA
ATOM     39  H   UNL     1      10.798  -5.887  -5.953  0.00  0.00    +0.122 HD
ATOM     40  C   UNL     1       9.052  -5.402  -6.852  0.00  0.00    +0.101 C 
ENDBRANCH  33  38
BRANCH  32  41
ATOM     41  O   UNL     1      10.019  -2.001  -5.879  0.00  0.00    -0.385 OA
ATOM     42  H   UNL     1      10.960  -2.267  -5.768  0.00  0.00    +0.210 HD
ENDBRANCH  32  41
BRANCH  34  43
ATOM     43  O   UNL     1      12.103  -3.056  -4.703  0.00  0.00    -0.385 OA
ATOM     44  H   UNL     1      12.832  -2.814  -4.104  0.00  0.00    +0.210 HD
ENDBRANCH  34  43
ENDBRANCH  30  31
ENDBRANCH   3  30
TORSDOF 13
