REMARK  Name = 
REMARK  4 active torsions:
REMARK  status: ('A' for Active; 'I' for Inactive)
REMARK    1  A    between atoms: N_1  and  C_2
REMARK    2  A    between atoms: C_4  and  O_5
REMARK    3  A    between atoms: C_6  and  C_9
REMARK    4  A    between atoms: C_9  and  O_10
REMARK                            x       y       z     vdW  Elec       q    Type
REMARK                         _______ _______ _______ _____ _____    ______ ____
ROOT
ATOM      1  C   UNL     1       2.415   0.010  -0.087  0.00  0.00    +0.028 A 
ATOM      2  C   UNL     1       3.148  -1.178  -0.099  0.00  0.00    +0.024 A 
ATOM      3  C   UNL     1       4.535  -1.161  -0.279  0.00  0.00    +0.020 A 
ATOM      4  C   UNL     1       5.224   0.053  -0.404  0.00  0.00    +0.100 A 
ATOM      5  C   UNL     1       4.494   1.245  -0.322  0.00  0.00    +0.133 A 
ATOM      6  C   UNL     1       3.105   1.224  -0.144  0.00  0.00    +0.069 A 
ENDROOT
BRANCH   1   7
ATOM      7  N   UNL     1       1.049  -0.011   0.214  0.00  0.00    -0.358 N 
ATOM      8  H   UNL     1       0.584  -0.877  -0.044  0.00  0.00    +0.142 HD
ATOM      9  H   UNL     1       0.535   0.805  -0.103  0.00  0.00    +0.142 HD
ENDBRANCH   1   7
BRANCH   4  10
ATOM     10  C   UNL     1       6.703  -0.017  -0.600  0.00  0.00    +0.340 C 
ATOM     11  O   UNL     1       7.307  -1.077  -0.663  0.00  0.00    -0.245 OA
BRANCH  10  12
ATOM     12  O   UNL     1       7.327   1.174  -0.710  0.00  0.00    -0.477 OA
ATOM     13  H   UNL     1       6.703   1.929  -0.632  0.00  0.00    +0.295 HD
ENDBRANCH  10  12
ENDBRANCH   4  10
BRANCH   5  14
ATOM     14  O   UNL     1       5.139   2.455  -0.407  0.00  0.00    -0.506 OA
ATOM     15  H   UNL     1       4.479   3.166  -0.298  0.00  0.00    +0.292 HD
ENDBRANCH   5  14
TORSDOF 4
