REMARK  Name = 
REMARK  13 active torsions:
REMARK  status: ('A' for Active; 'I' for Inactive)
REMARK    1  A    between atoms: C_1  and  C_2
REMARK    2  A    between atoms: C_2  and  O_3
REMARK    3  A    between atoms: O_3  and  C_4
REMARK    4  A    between atoms: C_4  and  C_6
REMARK    5  A    between atoms: C_6  and  C_8
REMARK    6  A    between atoms: C_6  and  N_16
REMARK    7  A    between atoms: C_8  and  C_9
REMARK    8  A    between atoms: C_9  and  C_10
REMARK    9  A    between atoms: N_16  and  CA_17
REMARK   10  A    between atoms: CA_17  and  CB_19
REMARK   11  A    between atoms: CA_17  and  C_20
REMARK   12  A    between atoms: CA_26  and  C_28
REMARK   13  A    between atoms: C_28  and  O_29
REMARK                            x       y       z     vdW  Elec       q    Type
REMARK                         _______ _______ _______ _____ _____    ______ ____
ROOT
ATOM      1  N   ALA A   1       6.360   2.554  -1.966  0.00  0.00    -0.294 NA
ATOM      2  H   ALA A   1       6.600   3.310  -2.616  0.00  0.00    +0.123 HD
ENDROOT
BRANCH   1   3
ATOM      3  CA  ALA A   1       7.034   2.787  -0.671  0.00  0.00    +0.138 C 
ATOM      4  CB  ALA A   1       6.948   1.583   0.258  0.00  0.00    +0.034 C 
BRANCH   3   5
ATOM      5  C   ALA A   1       8.515   3.201  -0.868  0.00  0.00    +0.233 C 
ATOM      6  N   PRO A   2       9.025   4.179  -0.034  0.00  0.00    -0.287 N 
ATOM      7  CA  PRO A   2      10.269   4.890  -0.347  0.00  0.00    +0.184 C 
ATOM      8  CB  PRO A   2      10.092   6.273   0.303  0.00  0.00    +0.035 C 
ATOM      9  CG  PRO A   2       8.709   6.245   0.959  0.00  0.00    +0.021 C 
ATOM     10  CD  PRO A   2       8.421   4.770   1.147  0.00  0.00    +0.109 C 
ATOM     11  O   ALA A   1       9.258   2.699  -1.718  0.00  0.00    -0.274 OA
BRANCH   7  12
ATOM     12  C   PRO A   2      11.501   4.128   0.188  0.00  0.00    +0.325 C 
ATOM     13  OXT PRO A   2      12.371   4.611   0.898  0.00  0.00    -0.249 OA
BRANCH  12  14
ATOM     14  O   PRO A   2      11.581   2.857  -0.280  0.00  0.00    -0.479 OA
ATOM     15  H   PRO A   2      10.853   2.641  -0.911  0.00  0.00    +0.295 HD
ENDBRANCH  12  14
ENDBRANCH   7  12
ENDBRANCH   3   5
ENDBRANCH   1   3
BRANCH   1  16
ATOM     16  C   UNK A   0       4.873   2.455  -1.886  0.00  0.00    +0.164 C 
BRANCH  16  17
ATOM     17  C   UNK A   0       4.346   2.195  -3.310  0.00  0.00    +0.324 C 
ATOM     18  O   UNK A   0       4.402   3.012  -4.223  0.00  0.00    -0.249 OA
BRANCH  17  19
ATOM     19  O   UNK A   0       3.803   0.948  -3.400  0.00  0.00    -0.464 OA
BRANCH  19  21
ATOM     20  C   UNK A   0       1.856   1.102  -4.826  0.00  0.00    +0.048 C 
ATOM     21  C   UNK A   0       3.276   0.585  -4.686  0.00  0.00    +0.229 C 
ENDBRANCH  19  21
ENDBRANCH  17  19
ENDBRANCH  16  17
BRANCH  16  22
ATOM     22  C   UNK A   0       4.220   3.736  -1.323  0.00  0.00    +0.035 C 
BRANCH  22  23
ATOM     23  C   UNK A   0       2.692   3.693  -1.196  0.00  0.00    +0.037 C 
BRANCH  23  24
ATOM     24  C   UNK A   0       2.210   4.960  -0.516  0.00  0.00    -0.047 A 
ATOM     25  C   UNK A   0       2.106   5.031   0.881  0.00  0.00    +0.003 A 
ATOM     26  C   UNK A   0       1.744   6.228   1.506  0.00  0.00    +0.000 A 
ATOM     27  C   UNK A   0       1.485   7.365   0.743  0.00  0.00    +0.000 A 
ATOM     28  C   UNK A   0       1.585   7.305  -0.646  0.00  0.00    +0.000 A 
ATOM     29  C   UNK A   0       1.946   6.110  -1.272  0.00  0.00    +0.003 A 
ENDBRANCH  23  24
ENDBRANCH  22  23
ENDBRANCH  16  22
ENDBRANCH   1  16
TORSDOF 11
