REMARK  Name = 
REMARK  9 active torsions:
REMARK  status: ('A' for Active; 'I' for Inactive)
REMARK    1  A    between atoms: O_1  and  C_2
REMARK    2  A    between atoms: C_2  and  C_3
REMARK    3  A    between atoms: C_3  and  O_4
REMARK    4  A    between atoms: O_4  and  C_5
REMARK    5  A    between atoms: C_5  and  C_6
REMARK    6  A    between atoms: C_6  and  N_7
REMARK    7  A    between atoms: N_10  and  C_13
REMARK    8  A    between atoms: C_13  and  C_14
REMARK    9  A    between atoms: C_13  and  C_20
REMARK                            x       y       z     vdW  Elec       q    Type
REMARK                         _______ _______ _______ _____ _____    ______ ____
ROOT
ATOM      1  C   UNL     1       6.516  -5.213  -5.020  0.00  0.00    +0.117 C 
ENDROOT
BRANCH   1   2
ATOM      2  C   UNL     1       5.460  -5.609  -6.066  0.00  0.00    -0.026 A 
ATOM      3  C   UNL     1       4.416  -6.502  -5.775  0.00  0.00    +0.007 A 
ATOM      4  C   UNL     1       3.481  -6.862  -6.751  0.00  0.00    +0.020 A 
ATOM      5  C   UNL     1       3.562  -6.309  -8.025  0.00  0.00    +0.041 A 
ATOM      6 CL   UNL     1       2.407  -6.747  -9.222  0.00  0.00    -0.084 Cl
ATOM      7  C   UNL     1       4.568  -5.397  -8.331  0.00  0.00    +0.020 A 
ATOM      8  C   UNL     1       5.515  -5.054  -7.360  0.00  0.00    +0.007 A 
ENDBRANCH   1   2
BRANCH   1  12
ATOM      9  N   UNL     1       6.852  -1.699  -3.654  0.00  0.00    -0.298 NA
ATOM     10  C   UNL     1       5.730  -2.158  -4.501  0.00  0.00    +0.100 C 
ATOM     11  C   UNL     1       5.036  -3.463  -4.037  0.00  0.00    +0.100 C 
ATOM     12  N   UNL     1       5.940  -4.610  -3.778  0.00  0.00    -0.289 NA
ATOM     13  C   UNL     1       7.008  -4.117  -2.868  0.00  0.00    +0.100 C 
ATOM     14  C   UNL     1       7.738  -2.847  -3.368  0.00  0.00    +0.100 C 
BRANCH   9  15
ATOM     15  C   UNL     1       6.380  -1.016  -2.429  0.00  0.00    +0.112 C 
BRANCH  15  16
ATOM     16  C   UNL     1       7.524  -0.303  -1.683  0.00  0.00    +0.175 C 
BRANCH  16  17
ATOM     17  O   UNL     1       7.061   0.378  -0.508  0.00  0.00    -0.376 OA
BRANCH  17  18
ATOM     18  C   UNL     1       8.185   0.936   0.183  0.00  0.00    +0.187 C 
BRANCH  18  19
ATOM     19  C   UNL     1       7.762   1.663   1.451  0.00  0.00    +0.184 C 
BRANCH  19  20
ATOM     20  O   UNL     1       8.919   2.186   2.100  0.00  0.00    -0.393 OA
ATOM     21  H   UNL     1       8.615   2.640   2.902  0.00  0.00    +0.209 HD
ENDBRANCH  19  20
ENDBRANCH  18  19
ENDBRANCH  17  18
ENDBRANCH  16  17
ENDBRANCH  15  16
ENDBRANCH   9  15
ENDBRANCH   1  12
BRANCH   1  22
ATOM     22  C   UNL     1       7.454  -6.392  -4.692  0.00  0.00    -0.026 A 
ATOM     23  C   UNL     1       8.798  -6.365  -5.106  0.00  0.00    +0.005 A 
ATOM     24  C   UNL     1       9.687  -7.373  -4.718  0.00  0.00    +0.000 A 
ATOM     25  C   UNL     1       9.244  -8.434  -3.931  0.00  0.00    +0.000 A 
ATOM     26  C   UNL     1       7.913  -8.490  -3.531  0.00  0.00    +0.000 A 
ATOM     27  C   UNL     1       7.030  -7.474  -3.899  0.00  0.00    +0.005 A 
ENDBRANCH   1  22
TORSDOF 9
