REMARK  Name = 
REMARK  7 active torsions:
REMARK  status: ('A' for Active; 'I' for Inactive)
REMARK    1  A    between atoms: C_1  and  C_2
REMARK    2  A    between atoms: C_2  and  C_3
REMARK    3  A    between atoms: C_11  and  C_12
REMARK    4  A    between atoms: C_11  and  C_14
REMARK    5  A    between atoms: C_12  and  C_13
REMARK    6  A    between atoms: C_14  and  C_15
REMARK    7  A    between atoms: C_15  and  O_16
REMARK                            x       y       z     vdW  Elec       q    Type
REMARK                         _______ _______ _______ _____ _____    ______ ____
ROOT
ATOM      1  C   UNL     1       2.923  -1.399   0.632  0.00  0.00    -0.024 A 
ATOM      2  C   UNL     1       3.904  -1.493   1.636  0.00  0.00    +0.005 A 
ATOM      3  C   UNL     1       4.296  -2.722   2.165  0.00  0.00    +0.001 A 
ATOM      4  C   UNL     1       3.732  -3.914   1.700  0.00  0.00    +0.010 A 
ATOM      5  C   UNL     1       2.758  -3.863   0.685  0.00  0.00    +0.004 A 
ATOM      6  C   UNL     1       2.027  -4.845  -0.039  0.00  0.00    -0.014 A 
ATOM      7  C   UNL     1       2.084  -6.327   0.006  0.00  0.00    +0.065 C 
ATOM      8  C   UNL     1       1.004  -6.936  -0.905  0.00  0.00    +0.166 C 
ATOM      9  O   UNL     1       0.773  -6.199  -2.132  0.00  0.00    -0.366 OA
ATOM     10  C   UNL     1       0.317  -4.824  -1.960  0.00  0.00    +0.119 C 
ATOM     11  C   UNL     1       1.226  -4.190  -0.948  0.00  0.00    +0.053 A 
ATOM     12  N   UNL     1       1.426  -2.846  -0.789  0.00  0.00    -0.355 N 
ATOM     13  H   UNL     1       1.002  -2.115  -1.342  0.00  0.00    +0.166 HD
ATOM     14  C   UNL     1       2.377  -2.616   0.183  0.00  0.00    +0.050 A 
ENDROOT
BRANCH   1  16
ATOM     15  C   UNL     1       3.391   0.350  -1.115  0.00  0.00    +0.009 C 
ATOM     16  C   UNL     1       2.528  -0.054   0.073  0.00  0.00    +0.034 C 
ENDBRANCH   1  16
BRANCH  10  17
ATOM     17  C   UNL     1       0.406  -4.108  -3.334  0.00  0.00    +0.038 C 
ATOM     18  C   UNL     1       1.806  -4.041  -3.938  0.00  0.00    +0.007 C 
ENDBRANCH  10  17
BRANCH  10  19
ATOM     19  C   UNL     1      -1.133  -4.822  -1.442  0.00  0.00    +0.161 C 
BRANCH  19  20
ATOM     20  C   UNL     1      -2.130  -5.503  -2.347  0.00  0.00    +0.308 C 
ATOM     21  O   UNL     1      -3.301  -5.151  -2.413  0.00  0.00    -0.251 OA
BRANCH  20  22
ATOM     22  O   UNL     1      -1.676  -6.581  -3.020  0.00  0.00    -0.481 OA
ATOM     23  H   UNL     1      -0.717  -6.760  -2.887  0.00  0.00    +0.295 HD
ENDBRANCH  20  22
ENDBRANCH  19  20
ENDBRANCH  10  19
TORSDOF 5
