REMARK  Name = 
REMARK  9 active torsions:
REMARK  status: ('A' for Active; 'I' for Inactive)
REMARK    1  A    between atoms: C_4  and  C_5
REMARK    2  A    between atoms: C_10  and  C_11
REMARK    3  A    between atoms: C_10  and  C_12
REMARK    4  A    between atoms: C_16  and  O_17
REMARK    5  A    between atoms: C_19  and  C_20
REMARK    6  A    between atoms: C_20  and  C_21
REMARK    7  A    between atoms: C_21  and  C_22
REMARK    8  A    between atoms: C_22  and  C_23
REMARK    9  A    between atoms: C_23  and  C_24
REMARK                            x       y       z     vdW  Elec       q    Type
REMARK                         _______ _______ _______ _____ _____    ______ ____
ROOT
ATOM      1  C   UNL     1       1.628   0.647  -1.970  0.00  0.00    +0.056 C 
ATOM      2  C   UNL     1       1.772   0.025  -0.610  0.00  0.00    +0.043 A 
ATOM      3  C   UNL     1       1.786  -1.359  -0.398  0.00  0.00    +0.124 A 
ATOM      4  C   UNL     1       2.256  -1.888   0.795  0.00  0.00    +0.049 A 
ATOM      5  C   UNL     1       2.712  -1.046   1.810  0.00  0.00    -0.040 A 
ATOM      6  C   UNL     1       2.496   0.333   1.681  0.00  0.00    +0.049 A 
ATOM      7  C   UNL     1       1.987   0.867   0.493  0.00  0.00    +0.129 A 
ATOM      8  O   UNL     1       1.782   2.221   0.474  0.00  0.00    -0.486 OA
ATOM      9  C   UNL     1       1.418   2.862  -0.783  0.00  0.00    +0.109 C 
ATOM     10  C   UNL     1      -0.106   2.946  -0.907  0.00  0.00    +0.055 C 
ATOM     11  C   UNL     1       1.946   4.304  -0.637  0.00  0.00    +0.055 C 
ATOM     12  C   UNL     1       2.138   2.122  -1.923  0.00  0.00    +0.044 C 
ATOM     13  C   UNL     1       2.176   2.683  -3.358  0.00  0.00    +0.012 C 
ATOM     14  C   UNL     1       3.164   1.842  -4.232  0.00  0.00    +0.030 C 
ATOM     15  C   UNL     1       3.484   0.497  -3.585  0.00  0.00    -0.076 C 
ATOM     16  C   UNL     1       4.771   0.443  -2.782  0.00  0.00    +0.039 C 
ATOM     17  C   UNL     1       2.387  -0.110  -3.083  0.00  0.00    -0.019 C 
ENDROOT
BRANCH   3  18
ATOM     18  O   UNL     1       1.379  -2.275  -1.325  0.00  0.00    -0.506 OA
ATOM     19  H   UNL     1       0.924  -1.813  -2.048  0.00  0.00    +0.292 HD
ENDBRANCH   3  18
BRANCH   5  20
ATOM     20  C   UNL     1       3.434  -1.627   3.001  0.00  0.00    +0.035 C 
BRANCH  20  21
ATOM     21  C   UNL     1       4.660  -2.481   2.624  0.00  0.00    +0.005 C 
BRANCH  21  22
ATOM     22  C   UNL     1       5.780  -1.680   1.948  0.00  0.00    +0.000 C 
BRANCH  22  23
ATOM     23  C   UNL     1       6.976  -2.572   1.605  0.00  0.00    -0.003 C 
ATOM     24  C   UNL     1       8.095  -1.780   0.945  0.00  0.00    +0.004 C 
ENDBRANCH  22  23
ENDBRANCH  21  22
ENDBRANCH  20  21
ENDBRANCH   5  20
TORSDOF 5
