REMARK  Name = 
REMARK  4 active torsions:
REMARK  status: ('A' for Active; 'I' for Inactive)
REMARK    1  A    between atoms: N_1  and  C_2
REMARK    2  A    between atoms: C_2  and  C_3
REMARK    3  A    between atoms: C_7  and  C_11
REMARK    4  A    between atoms: C_11  and  O_12
REMARK                            x       y       z     vdW  Elec       q    Type
REMARK                         _______ _______ _______ _____ _____    ______ ____
ROOT
ATOM      1  C   UNL     1       3.002  -0.387  -1.231  0.00  0.00    +0.003 C 
ATOM      2  C   UNL     1       1.875  -0.604  -2.255  0.00  0.00    +0.005 C 
ATOM      3  C   UNL     1       1.032  -1.853  -1.985  0.00  0.00    +0.015 C 
ATOM      4  C   UNL     1       1.868  -3.127  -1.791  0.00  0.00    +0.098 C 
ATOM      5  C   UNL     1       2.990  -2.902  -0.770  0.00  0.00    +0.015 C 
ATOM      6  C   UNL     1       3.837  -1.671  -1.091  0.00  0.00    +0.005 C 
ENDROOT
BRANCH   4   7
ATOM      7  C   UNL     1       2.398  -3.666  -3.117  0.00  0.00    +0.308 C 
ATOM      8  O   UNL     1       2.291  -3.108  -4.197  0.00  0.00    -0.251 OA
BRANCH   7   9
ATOM      9  O   UNL     1       2.979  -4.884  -3.004  0.00  0.00    -0.480 OA
ATOM     10  H   UNL     1       2.974  -5.250  -2.100  0.00  0.00    +0.295 HD
ENDBRANCH   7   9
ENDBRANCH   4   7
BRANCH   1  11
ATOM     11  C   UNL     1       2.442   0.127   0.111  0.00  0.00    +0.081 C 
BRANCH  11  12
ATOM     12  N   UNL     1       3.512   0.478   1.040  0.00  0.00    -0.330 NA
ATOM     13  H   UNL     1       4.047   1.259   0.659  0.00  0.00    +0.118 HD
ATOM     14  H   UNL     1       3.108   0.814   1.913  0.00  0.00    +0.118 HD
ENDBRANCH  11  12
ENDBRANCH   1  11
TORSDOF 4
