REMARK  Name = 
REMARK  7 active torsions:
REMARK  status: ('A' for Active; 'I' for Inactive)
REMARK    1  A    between atoms: C_1  and  O_2
REMARK    2  A    between atoms: O_2  and  C_3
REMARK    3  A    between atoms: C_10  and  C_12
REMARK    4  A    between atoms: C_19  and  C_20
REMARK    5  A    between atoms: C_21  and  C_22
REMARK    6  A    between atoms: C_22  and  C_23
REMARK    7  A    between atoms: C_23  and  O_24
REMARK                            x       y       z     vdW  Elec       q    Type
REMARK                         _______ _______ _______ _____ _____    ______ ____
ROOT
ATOM      1  C   UNL     1       2.801  -1.033  -0.849  0.00  0.00    +0.121 A 
ATOM      2  C   UNL     1       3.480  -0.444  -1.909  0.00  0.00    +0.048 A 
ATOM      3  C   UNL     1       4.104  -1.220  -2.896  0.00  0.00    +0.030 A 
ATOM      4  C   UNL     1       4.068  -2.626  -2.780  0.00  0.00    +0.057 A 
ATOM      5  N   UNL     1       4.673  -3.656  -3.522  0.00  0.00    -0.280 N 
ATOM      6  C   UNL     1       4.085  -4.868  -3.109  0.00  0.00    +0.028 A 
ATOM      7  C   UNL     1       3.297  -4.623  -1.989  0.00  0.00    -0.008 A 
ATOM      8  C   UNL     1       4.371  -6.211  -3.708  0.00  0.00    +0.064 C 
ATOM      9  C   UNL     1       5.695  -3.499  -4.512  0.00  0.00    +0.263 C 
ATOM     10  O   UNL     1       5.771  -4.362  -5.386  0.00  0.00    -0.267 OA
ATOM     11  C   UNL     1       3.326  -3.223  -1.761  0.00  0.00    +0.008 A 
ATOM     12  C   UNL     1       2.731  -2.420  -0.768  0.00  0.00    +0.056 A 
ENDROOT
BRANCH   9  13
ATOM     13  C   UNL     1       6.682  -2.381  -4.608  0.00  0.00    +0.040 A 
ATOM     14  C   UNL     1       7.200  -2.054  -5.872  0.00  0.00    +0.015 A 
ATOM     15  C   UNL     1       8.054  -0.958  -6.030  0.00  0.00    +0.021 A 
ATOM     16  C   UNL     1       8.399  -0.189  -4.923  0.00  0.00    +0.041 A 
ATOM     17 CL   UNL     1       9.349   1.230  -5.129  0.00  0.00    -0.084 Cl
ATOM     18  C   UNL     1       7.964  -0.556  -3.650  0.00  0.00    +0.021 A 
ATOM     19  C   UNL     1       7.133  -1.672  -3.488  0.00  0.00    +0.015 A 
ENDBRANCH   9  13
BRANCH   1  21
ATOM     20  C   UNL     1       1.147  -0.730   0.807  0.00  0.00    +0.277 C 
ATOM     21  O   UNL     1       2.233  -0.181   0.059  0.00  0.00    -0.495 OA
ENDBRANCH   1  21
BRANCH   7  22
ATOM     22  C   UNL     1       2.579  -5.628  -1.122  0.00  0.00    +0.158 C 
BRANCH  22  23
ATOM     23  C   UNL     1       1.123  -5.314  -0.815  0.00  0.00    +0.309 C 
ATOM     24  O   UNL     1       0.616  -5.530   0.279  0.00  0.00    -0.251 OA
BRANCH  23  25
ATOM     25  O   UNL     1       0.397  -4.834  -1.847  0.00  0.00    -0.480 OA
ATOM     26  H   UNL     1       0.924  -4.680  -2.657  0.00  0.00    +0.295 HD
ENDBRANCH  23  25
ENDBRANCH  22  23
ENDBRANCH   7  22
TORSDOF 5
