REMARK  Name = 
REMARK  12 active torsions:
REMARK  status: ('A' for Active; 'I' for Inactive)
REMARK    1  A    between atoms: C_1  and  O_2
REMARK    2  A    between atoms: O_2  and  C_3
REMARK    3  A    between atoms: C_12  and  O_13
REMARK    4  A    between atoms: C_17  and  O_18
REMARK    5  A    between atoms: C_17  and  C_36
REMARK    6  A    between atoms: C_20  and  O_22
REMARK    7  A    between atoms: O_22  and  C_23
REMARK    8  A    between atoms: C_26  and  N_28
REMARK    9  A    between atoms: C_29  and  O_31
REMARK   10  A    between atoms: C_32  and  C_34
REMARK   11  A    between atoms: C_36  and  C_37
REMARK   12  A    between atoms: C_39  and  O_40
REMARK                            x       y       z     vdW  Elec       q    Type
REMARK                         _______ _______ _______ _____ _____    ______ ____
ROOT
ATOM      1  C   UNL     1       3.198   0.206  -1.221  0.00  0.00    +0.132 A 
ATOM      2  C   UNL     1       3.828  -0.882  -1.871  0.00  0.00    +0.075 A 
ATOM      3  C   UNL     1       3.863  -2.252  -1.298  0.00  0.00    +0.202 C 
ATOM      4  C   UNL     1       4.356  -3.390  -2.113  0.00  0.00    +0.078 A 
ATOM      5  C   UNL     1       4.902  -3.175  -3.377  0.00  0.00    +0.078 A 
ATOM      6  C   UNL     1       5.062  -1.781  -3.860  0.00  0.00    +0.198 C 
ATOM      7  O   UNL     1       5.691  -1.501  -4.872  0.00  0.00    -0.286 OA
ATOM      8  C   UNL     1       5.306  -4.281  -4.155  0.00  0.00    +0.132 A 
ATOM      9  C   UNL     1       5.113  -5.607  -3.716  0.00  0.00    +0.007 A 
ATOM     10  C   UNL     1       5.540  -6.780  -4.592  0.00  0.00    +0.082 C 
ATOM     11  C   UNL     1       4.960  -8.134  -4.172  0.00  0.00    +0.130 C 
ATOM     12  C   UNL     1       5.060  -8.275  -2.650  0.00  0.00    +0.079 C 
ATOM     13  C   UNL     1       4.188  -7.227  -1.963  0.00  0.00    +0.158 C 
ATOM     14  C   UNL     1       4.550  -5.824  -2.438  0.00  0.00    +0.030 A 
ATOM     15  C   UNL     1       4.230  -4.711  -1.637  0.00  0.00    +0.134 A 
ATOM     16  O   UNL     1       3.484  -2.495  -0.157  0.00  0.00    -0.286 OA
ATOM     17  C   UNL     1       4.439  -0.675  -3.105  0.00  0.00    +0.037 A 
ATOM     18  C   UNL     1       4.488   0.612  -3.669  0.00  0.00    +0.012 A 
ATOM     19  C   UNL     1       3.904   1.687  -3.016  0.00  0.00    +0.004 A 
ATOM     20  C   UNL     1       3.259   1.486  -1.798  0.00  0.00    +0.046 A 
ENDROOT
BRANCH  11  21
ATOM     21  C   UNL     1       5.747  -9.276  -4.836  0.00  0.00    +0.162 C 
ATOM     22  O   UNL     1       6.759  -9.755  -4.319  0.00  0.00    -0.295 OA
ATOM     23  C   UNL     1       5.269  -9.760  -6.184  0.00  0.00    +0.089 C 
ENDBRANCH  11  21
BRANCH   1  25
ATOM     24  C   UNL     1       1.482   0.852   0.293  0.00  0.00    +0.277 C 
ATOM     25  O   UNL     1       2.568  -0.016  -0.024  0.00  0.00    -0.494 OA
ENDBRANCH   1  25
BRANCH   8  26
ATOM     26  O   UNL     1       5.851  -4.049  -5.389  0.00  0.00    -0.506 OA
ATOM     27  H   UNL     1       6.361  -4.805  -5.714  0.00  0.00    +0.292 HD
ENDBRANCH   8  26
BRANCH  11  28
ATOM     28  O   UNL     1       3.611  -8.230  -4.637  0.00  0.00    -0.381 OA
ATOM     29  H   UNL     1       3.030  -7.697  -4.054  0.00  0.00    +0.211 HD
ENDBRANCH  11  28
BRANCH  15  30
ATOM     30  O   UNL     1       3.809  -4.974  -0.350  0.00  0.00    -0.506 OA
ATOM     31  H   UNL     1       3.630  -4.112   0.097  0.00  0.00    +0.292 HD
ENDBRANCH  15  30
BRANCH  13  32
ATOM     32  O   UNL     1       2.788  -7.418  -2.275  0.00  0.00    -0.343 OA
BRANCH  32  33
ATOM     33  C   UNL     1       2.214  -8.658  -1.832  0.00  0.00    +0.253 C 
ATOM     34  O   UNL     1       0.866  -8.801  -2.282  0.00  0.00    -0.346 OA
ATOM     35  C   UNL     1      -0.116  -7.977  -1.636  0.00  0.00    +0.148 C 
ATOM     36  C   UNL     1      -1.479  -8.528  -2.057  0.00  0.00    +0.041 C 
ATOM     37  C   UNL     1       0.007  -7.924  -0.095  0.00  0.00    +0.160 C 
ATOM     38  C   UNL     1       1.474  -7.734   0.323  0.00  0.00    +0.087 C 
ATOM     39  C   UNL     1       2.296  -8.843  -0.327  0.00  0.00    +0.082 C 
BRANCH  38  40
ATOM     40  N   UNL     1       1.622  -7.776   1.791  0.00  0.00    -0.325 NA
ATOM     41  H   UNL     1       2.083  -8.644   2.067  0.00  0.00    +0.119 HD
ATOM     42  H   UNL     1       2.291  -7.046   2.051  0.00  0.00    +0.119 HD
ENDBRANCH  38  40
BRANCH  37  43
ATOM     43  O   UNL     1      -0.475  -9.129   0.520  0.00  0.00    -0.388 OA
ATOM     44  H   UNL     1      -0.173  -9.057   1.448  0.00  0.00    +0.210 HD
ENDBRANCH  37  43
ENDBRANCH  32  33
ENDBRANCH  13  32
TORSDOF 9
