REMARK  Name = 
REMARK  9 active torsions:
REMARK  status: ('A' for Active; 'I' for Inactive)
REMARK    1  A    between atoms: C_1  and  O_2
REMARK    2  A    between atoms: O_2  and  C_3
REMARK    3  A    between atoms: C_6  and  C_9
REMARK    4  A    between atoms: C_9  and  C_10
REMARK    5  A    between atoms: C_9  and  C_14
REMARK    6  A    between atoms: C_10  and  N_11
REMARK    7  A    between atoms: N_11  and  C_12
REMARK    8  A    between atoms: N_11  and  C_13
REMARK    9  A    between atoms: C_14  and  O_15
REMARK                            x       y       z     vdW  Elec       q    Type
REMARK                         _______ _______ _______ _____ _____    ______ ____
ROOT
ATOM      1  C   UNL     1       5.610   0.938   4.485  0.00  0.00    +0.065 C 
ENDROOT
BRANCH   1   5
ATOM      2  C   UNL     1       3.066   0.129   1.036  0.00  0.00    +0.120 A 
ATOM      3  C   UNL     1       2.694  -0.336   2.296  0.00  0.00    +0.046 A 
ATOM      4  C   UNL     1       3.503  -0.076   3.410  0.00  0.00    +0.007 A 
ATOM      5  C   UNL     1       4.703   0.641   3.283  0.00  0.00    -0.040 A 
ATOM      6  C   UNL     1       5.043   1.133   2.014  0.00  0.00    +0.007 A 
ATOM      7  C   UNL     1       4.225   0.889   0.906  0.00  0.00    +0.046 A 
BRANCH   2   9
ATOM      8  C   UNL     1       1.643  -1.297  -0.178  0.00  0.00    +0.277 C 
ATOM      9  O   UNL     1       2.346  -0.061  -0.111  0.00  0.00    -0.495 OA
ENDBRANCH   2   9
ENDBRANCH   1   5
BRANCH   1  10
ATOM     10  C   UNL     1       6.353  -0.338   5.058  0.00  0.00    +0.074 C 
ATOM     11  C   UNL     1       7.173  -0.036   6.335  0.00  0.00    +0.035 C 
ATOM     12  C   UNL     1       8.306   0.949   6.062  0.00  0.00    +0.003 C 
ATOM     13  C   UNL     1       9.281   0.362   5.049  0.00  0.00    +0.000 C 
ATOM     14  C   UNL     1       8.595  -0.150   3.780  0.00  0.00    +0.003 C 
ATOM     15  C   UNL     1       7.336  -0.982   4.048  0.00  0.00    +0.035 C 
BRANCH  10  16
ATOM     16  O   UNL     1       5.398  -1.339   5.443  0.00  0.00    -0.388 OA
ATOM     17  H   UNL     1       5.089  -1.772   4.623  0.00  0.00    +0.210 HD
ENDBRANCH  10  16
ENDBRANCH   1  10
BRANCH   1  18
ATOM     18  C   UNL     1       4.842   1.738   5.595  0.00  0.00    +0.094 C 
BRANCH  18  19
ATOM     19  N   UNL     1       4.310   3.066   5.203  0.00  0.00    -0.308 NA
ATOM     20  C   UNL     1       5.370   3.980   4.766  0.00  0.00    +0.104 C 
ATOM     21  C   UNL     1       3.608   3.667   6.344  0.00  0.00    +0.104 C 
ENDBRANCH  18  19
ENDBRANCH   1  18
TORSDOF 6
