REMARK  Name = 
REMARK  4 active torsions:
REMARK  status: ('A' for Active; 'I' for Inactive)
REMARK    1  A    between atoms: C_1  and  N_2
REMARK    2  A    between atoms: N_2  and  C_3
REMARK    3  A    between atoms: C_3  and  C_4
REMARK    4  A    between atoms: C_4  and  O_5
REMARK                            x       y       z     vdW  Elec       q    Type
REMARK                         _______ _______ _______ _____ _____    ______ ____
ROOT
ATOM      1  C   UNL     1       1.050  -0.116   0.287  0.00  0.00    +0.243 C 
ATOM      2  N   UNL     1       2.510   0.037   0.336  0.00  0.00    -0.255 N 
ATOM      3  C   UNL     1       3.311  -1.016   0.700  0.00  0.00    +0.379 C 
ATOM      4  N   UNL     1       4.589  -1.083   0.605  0.00  0.00    -0.130 NA
ATOM      5  H   UNL     1       5.004  -0.261   0.169  0.00  0.00    +0.306 HD
ATOM      6  N   UNL     1       2.715  -2.054   1.323  0.00  0.00    -0.289 N 
ATOM      7  H   UNL     1       3.389  -2.803   1.446  0.00  0.00    +0.255 HD
ATOM      8  H   UNL     1       1.875  -2.406   0.889  0.00  0.00    +0.255 HD
ENDROOT
BRANCH   2   9
ATOM      9  C   UNL     1       3.021   1.130  -0.534  0.00  0.00    +0.318 C 
BRANCH   9  10
ATOM     10  C   UNL     1       3.924   2.126   0.189  0.00  0.00    +0.339 C 
ATOM     11  O   UNL     1       4.394   3.116  -0.355  0.00  0.00    -0.247 OA
BRANCH  10  12
ATOM     12  O   UNL     1       4.173   1.832   1.483  0.00  0.00    -0.478 OA
ATOM     13  H   UNL     1       3.737   0.988   1.741  0.00  0.00    +0.295 HD
ENDBRANCH  10  12
ENDBRANCH   9  10
ENDBRANCH   2   9
TORSDOF 3
