REMARK  Name = 
REMARK  17 active torsions:
REMARK  status: ('A' for Active; 'I' for Inactive)
REMARK    1  A    between atoms: C_1  and  C_2
REMARK    2  A    between atoms: C_2  and  C_3
REMARK    3  A    between atoms: C_2  and  C_4
REMARK    4  A    between atoms: C_2  and  N_5
REMARK    5  A    between atoms: C_6  and  C_8
REMARK    6  A    between atoms: N_11  and  C_12
REMARK    7  A    between atoms: C_12  and  C_13
REMARK    8  A    between atoms: N_21  and  C_22
REMARK    9  A    between atoms: C_22  and  C_23
REMARK   10  A    between atoms: C_23  and  O_25
REMARK   11  A    between atoms: C_23  and  C_26
REMARK   12  A    between atoms: C_26  and  C_27
REMARK   13  A    between atoms: C_27  and  C_29
REMARK   14  A    between atoms: C_27  and  C_36
REMARK   15  A    between atoms: C_29  and  C_30
REMARK   16  A    between atoms: N_38  and  C_39
REMARK   17  A    between atoms: C_41  and  O_43
REMARK                            x       y       z     vdW  Elec       q    Type
REMARK                         _______ _______ _______ _____ _____    ______ ____
ROOT
ATOM      1  C   UNL     1       3.444  -5.393 -11.188  0.00  0.00    +0.129 C 
ENDROOT
BRANCH   1   2
ATOM      2  O   UNL     1       3.152  -6.687 -10.638  0.00  0.00    -0.391 OA
ATOM      3  H   UNL     1       2.367  -6.544 -10.075  0.00  0.00    +0.210 HD
ENDBRANCH   1   2
BRANCH   1   4
ATOM      4  C   UNL     1       2.174  -4.924 -11.943  0.00  0.00    +0.116 C 
BRANCH   4   6
ATOM      5  C   UNL     1      -0.323  -4.764 -11.702  0.00  0.00    +0.157 C 
ATOM      6  N   UNL     1       1.004  -4.970 -11.011  0.00  0.00    -0.287 NA
ATOM      7  C   UNL     1       1.103  -3.892  -9.986  0.00  0.00    +0.100 C 
ATOM      8  C   UNL     1       1.069  -2.458 -10.542  0.00  0.00    +0.100 C 
ATOM      9  N   UNL     1      -0.135  -2.169 -11.345  0.00  0.00    -0.295 NA
ATOM     10  C   UNL     1      -0.441  -3.286 -12.325  0.00  0.00    +0.113 C 
BRANCH   5  13
ATOM     11  N   UNL     1      -0.331  -7.336 -12.058  0.00  0.00    -0.309 N 
ATOM     12  H   UNL     1       0.399  -7.215 -11.360  0.00  0.00    +0.149 HD
ATOM     13  C   UNL     1      -0.817  -6.103 -12.522  0.00  0.00    +0.232 C 
ATOM     14  O   UNL     1      -1.653  -6.023 -13.426  0.00  0.00    -0.274 OA
BRANCH  11  16
ATOM     15  C   UNL     1      -0.719  -9.145 -13.874  0.00  0.00    +0.031 C 
ATOM     16  C   UNL     1      -0.690  -8.788 -12.374  0.00  0.00    +0.026 C 
ATOM     17  C   UNL     1       0.374  -9.718 -11.731  0.00  0.00    +0.031 C 
ATOM     18  C   UNL     1      -2.048  -9.250 -11.778  0.00  0.00    +0.031 C 
ENDBRANCH  11  16
ENDBRANCH   5  13
BRANCH   9  19
ATOM     19  C   UNL     1       0.046  -0.813 -11.923  0.00  0.00    +0.121 C 
BRANCH  19  20
ATOM     20  C   UNL     1      -1.177  -0.132 -12.470  0.00  0.00    -0.015 A 
ATOM     21  C   UNL     1      -2.240   0.266 -11.652  0.00  0.00    +0.008 A 
ATOM     22  C   UNL     1      -3.318   0.955 -12.204  0.00  0.00    +0.020 A 
ATOM     23  C   UNL     1      -3.292   1.240 -13.559  0.00  0.00    +0.111 A 
ATOM     24  N   UNL     1      -2.269   0.908 -14.374  0.00  0.00    -0.263 NA
ATOM     25  C   UNL     1      -1.239   0.236 -13.811  0.00  0.00    +0.115 A 
ENDBRANCH  19  20
ENDBRANCH   9  19
ENDBRANCH   4   6
ENDBRANCH   1   4
BRANCH   1  26
ATOM     26  C   UNL     1       4.735  -5.526 -11.992  0.00  0.00    +0.045 C 
BRANCH  26  27
ATOM     27  C   UNL     1       5.478  -4.239 -12.433  0.00  0.00    +0.082 C 
BRANCH  27  28
ATOM     28  C   UNL     1       6.781  -4.656 -13.143  0.00  0.00    +0.217 C 
ATOM     29  N   UNL     1       7.681  -3.661 -13.443  0.00  0.00    -0.306 N 
ATOM     30  H   UNL     1       7.486  -2.693 -13.235  0.00  0.00    +0.149 HD
ATOM     31  O   UNL     1       6.972  -5.812 -13.518  0.00  0.00    -0.275 OA
BRANCH  29  32
ATOM     32  C   UNL     1       8.829  -3.969 -14.275  0.00  0.00    +0.132 C 
ATOM     33  C   UNL     1       9.404  -2.757 -14.943  0.00  0.00    -0.022 A 
ATOM     34  C   UNL     1      10.800  -2.780 -14.905  0.00  0.00    -0.040 A 
ATOM     35  C   UNL     1      11.544  -1.869 -15.655  0.00  0.00    +0.004 A 
ATOM     36  C   UNL     1      10.859  -0.920 -16.426  0.00  0.00    +0.000 A 
ATOM     37  C   UNL     1       9.467  -0.873 -16.419  0.00  0.00    +0.000 A 
ATOM     38  C   UNL     1      11.332  -3.885 -14.055  0.00  0.00    +0.069 C 
ATOM     39  C   UNL     1       8.727  -1.789 -15.673  0.00  0.00    +0.006 A 
ATOM     40  C   UNL     1      10.059  -4.594 -13.538  0.00  0.00    +0.143 C 
BRANCH  40  41
ATOM     41  O   UNL     1      10.011  -4.464 -12.112  0.00  0.00    -0.389 OA
ATOM     42  H   UNL     1       9.403  -3.725 -11.909  0.00  0.00    +0.210 HD
ENDBRANCH  40  41
ENDBRANCH  29  32
ENDBRANCH  27  28
BRANCH  27  43
ATOM     43  C   UNL     1       5.651  -3.148 -11.350  0.00  0.00    +0.048 C 
BRANCH  43  44
ATOM     44  C   UNL     1       6.572  -3.297 -10.154  0.00  0.00    -0.047 A 
ATOM     45  C   UNL     1       6.620  -2.227  -9.242  0.00  0.00    +0.003 A 
ATOM     46  C   UNL     1       7.465  -2.254  -8.128  0.00  0.00    +0.000 A 
ATOM     47  C   UNL     1       8.279  -3.358  -7.904  0.00  0.00    +0.000 A 
ATOM     48  C   UNL     1       8.244  -4.427  -8.792  0.00  0.00    +0.000 A 
ATOM     49  C   UNL     1       7.392  -4.401  -9.910  0.00  0.00    +0.003 A 
ENDBRANCH  43  44
ENDBRANCH  27  43
ENDBRANCH  26  27
ENDBRANCH   1  26
TORSDOF 14
