REMARK  Name = 
REMARK  5 active torsions:
REMARK  status: ('A' for Active; 'I' for Inactive)
REMARK    1  A    between atoms: C_1  and  C_2
REMARK    2  A    between atoms: C_8  and  S_21
REMARK    3  A    between atoms: N_13  and  C_14
REMARK    4  A    between atoms: C_19  and  C_20
REMARK    5  A    between atoms: S_21  and  N_22
REMARK                            x       y       z     vdW  Elec       q    Type
REMARK                         _______ _______ _______ _____ _____    ______ ____
ROOT
ATOM      1  C   UNL     1       1.099  -0.022  -0.239  0.00  0.00    +0.050 C 
ATOM      2  C   UNL     1       2.602  -0.135  -0.013  0.00  0.00    +0.163 C 
ATOM      3  N   UNL     1       3.094  -1.039   1.003  0.00  0.00    -0.249 N 
ATOM      4  C   UNL     1       4.472  -1.244   0.970  0.00  0.00    +0.254 C 
ATOM      5  O   UNL     1       5.065  -2.294   1.200  0.00  0.00    -0.270 OA
ATOM      6  C   UNL     1       5.241   0.016   0.798  0.00  0.00    +0.060 A 
ATOM      7  C   UNL     1       4.515   1.204   0.623  0.00  0.00    +0.042 A 
ATOM      8  C   UNL     1       5.183   2.421   0.769  0.00  0.00    +0.045 A 
ATOM      9  C   UNL     1       6.562   2.459   1.021  0.00  0.00    +0.069 A 
ATOM     10  C   UNL     1       7.285   1.264   1.098  0.00  0.00    +0.124 A 
ATOM     11 CL   UNL     1       7.265   4.026   1.212  0.00  0.00    -0.081 Cl
ATOM     12  C   UNL     1       6.622   0.034   1.009  0.00  0.00    +0.045 A 
ATOM     13  N   UNL     1       3.156   1.192   0.265  0.00  0.00    -0.325 N 
ATOM     14  H   UNL     1       2.584   1.760   0.884  0.00  0.00    +0.148 HD
ENDROOT
BRANCH   3  15
ATOM     15  C   UNL     1       2.252  -1.976   1.647  0.00  0.00    +0.041 A 
ATOM     16  C   UNL     1       1.569  -1.604   2.824  0.00  0.00    -0.029 A 
ATOM     17  C   UNL     1       1.634  -0.219   3.410  0.00  0.00    +0.045 C 
ATOM     18  C   UNL     1       0.820  -2.573   3.514  0.00  0.00    +0.005 A 
ATOM     19  C   UNL     1       0.794  -3.896   3.078  0.00  0.00    +0.000 A 
ATOM     20  C   UNL     1       1.499  -4.266   1.936  0.00  0.00    +0.002 A 
ATOM     21  C   UNL     1       2.227  -3.310   1.223  0.00  0.00    +0.024 A 
ENDBRANCH   3  15
BRANCH  10  22
ATOM     22  S   UNL     1       9.036   1.251   1.308  0.00  0.00    +0.057 S 
ATOM     23  O   UNL     1       9.522  -0.094   1.102  0.00  0.00    -0.153 OA
ATOM     24  O   UNL     1       9.384   2.022   2.472  0.00  0.00    -0.153 OA
BRANCH  22  25
ATOM     25  N   UNL     1       9.567   2.100  -0.041  0.00  0.00    -0.203 NA
ATOM     26  H   UNL     1      10.159   1.503  -0.620  0.00  0.00    +0.144 HD
ATOM     27  H   UNL     1      10.006   2.974   0.249  0.00  0.00    +0.144 HD
ENDBRANCH  22  25
ENDBRANCH  10  22
TORSDOF 3
