REMARK  Name = 
REMARK  11 active torsions:
REMARK  status: ('A' for Active; 'I' for Inactive)
REMARK    1  A    between atoms: C_1  and  C_2
REMARK    2  A    between atoms: C_2  and  C_3
REMARK    3  A    between atoms: C_2  and  N_4
REMARK    4  A    between atoms: N_4  and  C_5
REMARK    5  A    between atoms: C_5  and  C_6
REMARK    6  A    between atoms: C_6  and  O_7
REMARK    7  A    between atoms: C_6  and  C_8
REMARK    8  A    between atoms: C_8  and  O_9
REMARK    9  A    between atoms: O_9  and  C_10
REMARK   10  A    between atoms: C_15  and  C_16
REMARK   11  A    between atoms: C_16  and  C_17
REMARK                            x       y       z     vdW  Elec       q    Type
REMARK                         _______ _______ _______ _____ _____    ______ ____
ROOT
ATOM      1  C   UNL     1       6.445   2.042   2.143  0.00  0.00    +0.261 C 
ENDROOT
BRANCH   1   2
ATOM      2  C   UNL     1       4.938   1.796   2.280  0.00  0.00    +0.166 C 
BRANCH   2   3
ATOM      3  O   UNL     1       4.262   3.028   2.573  0.00  0.00    -0.387 OA
ATOM      4  H   UNL     1       4.653   3.369   3.397  0.00  0.00    +0.210 HD
ENDBRANCH   2   3
BRANCH   2   5
ATOM      5  C   UNL     1       4.613   0.756   3.358  0.00  0.00    +0.115 C 
BRANCH   5   6
ATOM      6  N   UNL     1       3.180   0.437   3.308  0.00  0.00    -0.311 NA
ATOM      7  H   UNL     1       2.654   1.314   3.359  0.00  0.00    +0.122 HD
BRANCH   6   9
ATOM      8  C   UNL     1       1.233  -0.643   4.272  0.00  0.00    +0.023 C 
ATOM      9  C   UNL     1       2.752  -0.485   4.361  0.00  0.00    +0.048 C 
ATOM     10  C   UNL     1       3.424  -1.852   4.213  0.00  0.00    +0.023 C 
ENDBRANCH   6   9
ENDBRANCH   5   6
ENDBRANCH   2   5
ENDBRANCH   1   2
BRANCH   1  11
ATOM     11  O   UNL     1       7.052   2.427   3.392  0.00  0.00    -0.489 OA
BRANCH  11  12
ATOM     12  C   UNL     1       8.409   2.673   3.318  0.00  0.00    +0.124 A 
ATOM     13  C   UNL     1       9.164   2.645   4.510  0.00  0.00    -0.002 A 
ATOM     14  C   UNL     1      10.552   2.864   4.440  0.00  0.00    +0.007 A 
ATOM     15  C   UNL     1      11.181   3.153   3.231  0.00  0.00    +0.001 A 
ATOM     16  C   UNL     1      10.430   3.227   2.069  0.00  0.00    +0.004 A 
ATOM     17  C   UNL     1       9.058   2.985   2.113  0.00  0.00    +0.046 A 
BRANCH  13  18
ATOM     18  C   UNL     1       8.561   2.413   5.880  0.00  0.00    +0.065 C 
BRANCH  18  19
ATOM     19  C   UNL     1       8.712   1.002   6.387  0.00  0.00    -0.030 C 
ATOM     20  C   UNL     1       9.425   0.652   7.467  0.00  0.00    +0.004 C 
ENDBRANCH  18  19
ENDBRANCH  13  18
ENDBRANCH  11  12
ENDBRANCH   1  11
TORSDOF 9
