REMARK  Name = 
REMARK  8 active torsions:
REMARK  status: ('A' for Active; 'I' for Inactive)
REMARK    1  A    between atoms: O_1  and  C_2
REMARK    2  A    between atoms: C_2  and  CA_3
REMARK    3  A    between atoms: CA_3  and  N_5
REMARK    4  A    between atoms: CA_3  and  C_11
REMARK    5  A    between atoms: C_6  and  C_8
REMARK    6  A    between atoms: C_11  and  O_13
REMARK    7  A    between atoms: C_11  and  C_14
REMARK    8  A    between atoms: C_17  and  N_20
REMARK                            x       y       z     vdW  Elec       q    Type
REMARK                         _______ _______ _______ _____ _____    ______ ____
ROOT
ATOM      1  C   UNL     1       4.412   1.454  -0.528  0.00  0.00    +0.167 C 
ENDROOT
BRANCH   1   2
ATOM      2  C   UNL     1       4.756   2.704  -1.320  0.00  0.00    -0.017 A 
ATOM      3  C   UNL     1       5.848   2.775  -2.201  0.00  0.00    +0.013 A 
ATOM      4  C   UNL     1       6.135   3.960  -2.894  0.00  0.00    +0.084 A 
ATOM      5  C   UNL     1       5.342   5.098  -2.684  0.00  0.00    +0.273 A 
ATOM      6  C   UNL     1       4.253   5.046  -1.812  0.00  0.00    +0.084 A 
ATOM      7  C   UNL     1       3.954   3.851  -1.157  0.00  0.00    +0.013 A 
BRANCH   5   8
ATOM      8  N   UNL     1       5.657   6.356  -3.371  0.00  0.00    +0.080 N 
ATOM      9  O   UNL     1       6.589   6.349  -4.187  0.00  0.00    +0.041 OA
ATOM     10  O   UNL     1       4.958   7.349  -3.113  0.00  0.00    -0.576 OA
ENDBRANCH   5   8
ENDBRANCH   1   2
BRANCH   1  11
ATOM     11  O   UNL     1       4.747   0.273  -1.286  0.00  0.00    -0.385 OA
ATOM     12  H   UNL     1       4.509   0.452  -2.212  0.00  0.00    +0.210 HD
ENDBRANCH   1  11
BRANCH   1  13
ATOM     13  CA  UNL     1       5.017   1.299   0.910  0.00  0.00    +0.131 C 
BRANCH  13  14
ATOM     14  N   UNL     1       4.522   0.019   1.477  0.00  0.00    -0.305 N 
ATOM     15  H   UNL     1       4.229  -0.673   0.789  0.00  0.00    +0.149 HD
ATOM     16  C   UNL     1       4.866  -0.463   2.727  0.00  0.00    +0.246 C 
ATOM     17  O   UNL     1       5.638   0.137   3.478  0.00  0.00    -0.273 OA
BRANCH  16  18
ATOM     18  C   UNL     1       4.181  -1.758   3.166  0.00  0.00    +0.256 C 
ATOM     19 CL   UNL     1       4.598  -3.067   2.047  0.00  0.00    -0.094 Cl
ATOM     20 CL   UNL     1       2.419  -1.502   3.206  0.00  0.00    -0.094 Cl
ENDBRANCH  16  18
ENDBRANCH  13  14
BRANCH  13  21
ATOM     21  C   UNL     1       4.647   2.479   1.839  0.00  0.00    +0.181 C 
BRANCH  21  22
ATOM     22  O   UNL     1       5.258   3.699   1.442  0.00  0.00    -0.393 OA
ATOM     23  H   UNL     1       4.935   4.390   2.046  0.00  0.00    +0.209 HD
ENDBRANCH  21  22
ENDBRANCH  13  21
ENDBRANCH   1  13
TORSDOF 8
