REMARK  Name = 
REMARK  6 active torsions:
REMARK  status: ('A' for Active; 'I' for Inactive)
REMARK    1  A    between atoms: N_1  and  S_2
REMARK    2  A    between atoms: S_2  and  C_5
REMARK    3  A    between atoms: C_11  and  C_12
REMARK    4  A    between atoms: C_12  and  S_13
REMARK    5  A    between atoms: S_13  and  C_14
REMARK    6  A    between atoms: C_14  and  C_15
REMARK                            x       y       z     vdW  Elec       q    Type
REMARK                         _______ _______ _______ _____ _____    ______ ____
ROOT
ATOM      1  C   UNL     1       3.188  -0.776   1.490  0.00  0.00    +0.125 A 
ATOM      2  C   UNL     1       3.684   0.091   2.470  0.00  0.00    +0.065 A 
ATOM      3  C   UNL     1       4.047  -0.426   3.719  0.00  0.00    +0.181 A 
ATOM      4  C   UNL     1       3.951  -1.777   4.022  0.00  0.00    +0.149 A 
ATOM      5  N   UNL     1       4.280  -2.265   5.285  0.00  0.00    -0.200 N 
ATOM      6  H   UNL     1       4.318  -3.274   5.406  0.00  0.00    +0.298 HD
ATOM      7  C   UNL     1       4.812  -1.482   6.286  0.00  0.00    +0.328 C 
ATOM      8  N   UNL     1       5.018  -0.208   6.264  0.00  0.00    +0.091 NA
ATOM      9  C   UNL     1       3.445  -2.629   3.033  0.00  0.00    +0.073 A 
ATOM     10  S   UNL     1       4.643   0.670   4.966  0.00  0.00    +0.182 S 
ATOM     11  O   UNL     1       5.869   1.225   4.428  0.00  0.00    -0.125 OA
ATOM     12  O   UNL     1       3.519   1.524   5.293  0.00  0.00    -0.125 OA
ATOM     13  C   UNL     1       3.064  -2.140   1.771  0.00  0.00    +0.071 A 
ATOM     14 CL   UNL     1       2.461  -3.305   0.647  0.00  0.00    -0.081 Cl
ENDROOT
BRANCH   1  15
ATOM     15  S   UNL     1       2.672  -0.099  -0.058  0.00  0.00    +0.057 S 
ATOM     16  O   UNL     1       1.312  -0.503  -0.318  0.00  0.00    -0.153 OA
ATOM     17  O   UNL     1       3.085   1.284  -0.117  0.00  0.00    -0.153 OA
BRANCH  15  18
ATOM     18  N   UNL     1       3.651  -0.888  -1.168  0.00  0.00    -0.203 NA
ATOM     19  H   UNL     1       3.099  -1.555  -1.710  0.00  0.00    +0.144 HD
ATOM     20  H   UNL     1       4.140  -0.200  -1.744  0.00  0.00    +0.144 HD
ENDBRANCH  15  18
ENDBRANCH   1  15
BRANCH   7  21
ATOM     21  C   UNL     1       5.217  -2.196   7.573  0.00  0.00    +0.200 C 
BRANCH  21  22
ATOM     22  S   UNL     1       6.474  -3.460   7.224  0.00  0.00    -0.144 S 
BRANCH  22  23
ATOM     23  C   UNL     1       7.856  -2.382   6.685  0.00  0.00    +0.104 C 
BRANCH  23  24
ATOM     24  C   UNL     1       9.072  -3.223   6.381  0.00  0.00    -0.038 A 
ATOM     25  C   UNL     1      10.039  -3.466   7.368  0.00  0.00    +0.004 A 
ATOM     26  C   UNL     1      11.119  -4.312   7.109  0.00  0.00    +0.000 A 
ATOM     27  C   UNL     1      11.244  -4.925   5.864  0.00  0.00    +0.000 A 
ATOM     28  C   UNL     1      10.298  -4.681   4.871  0.00  0.00    +0.000 A 
ATOM     29  C   UNL     1       9.219  -3.833   5.126  0.00  0.00    +0.004 A 
ENDBRANCH  23  24
ENDBRANCH  22  23
ENDBRANCH  21  22
ENDBRANCH   7  21
TORSDOF 6
