REMARK  Name = 
REMARK  5 active torsions:
REMARK  status: ('A' for Active; 'I' for Inactive)
REMARK    1  A    between atoms: C_1  and  C_2
REMARK    2  A    between atoms: C_2  and  O_4
REMARK    3  A    between atoms: O_4  and  C_5
REMARK    4  A    between atoms: C_10  and  C_11
REMARK    5  A    between atoms: C_17  and  N_19
REMARK                            x       y       z     vdW  Elec       q    Type
REMARK                         _______ _______ _______ _____ _____    ______ ____
ROOT
ATOM      1  C   UNL     1       4.684  -1.215   3.395  0.00  0.00    +0.253 C 
ATOM      2  N   UNL     1       3.346  -0.952   3.579  0.00  0.00    -0.260 N 
ATOM      3  H   UNL     1       2.866  -0.294   2.986  0.00  0.00    +0.157 HD
ATOM      4  C   UNL     1       2.667  -1.447   4.661  0.00  0.00    +0.171 A 
ATOM      5  S   UNL     1       1.110  -0.778   4.889  0.00  0.00    +0.022 S 
ATOM      6  C   UNL     1       0.989  -1.656   6.344  0.00  0.00    +0.332 A 
ATOM      7  C   UNL     1       2.089  -2.458   6.527  0.00  0.00    +0.205 A 
ATOM      8  N   UNL     1       3.050  -2.336   5.544  0.00  0.00    -0.226 NA
ATOM      9  O   UNL     1       5.380  -1.889   4.150  0.00  0.00    -0.270 OA
ENDROOT
BRANCH   1  11
ATOM     10  C   UNL     1       4.708   0.041   1.128  0.00  0.00    +0.144 A 
ATOM     11  C   UNL     1       5.354  -0.577   2.213  0.00  0.00    +0.079 A 
ATOM     12  C   UNL     1       6.764  -0.619   2.214  0.00  0.00    +0.017 A 
ATOM     13  C   UNL     1       7.508  -0.065   1.172  0.00  0.00    +0.001 A 
ATOM     14  C   UNL     1       6.856   0.563   0.118  0.00  0.00    +0.004 A 
ATOM     15  C   UNL     1       5.463   0.634   0.104  0.00  0.00    +0.047 A 
BRANCH  10  16
ATOM     16  O   UNL     1       3.294   0.114   1.106  0.00  0.00    -0.425 OA
BRANCH  16  18
ATOM     17  C   UNL     1       1.112   0.191   0.196  0.00  0.00    +0.136 C 
ATOM     18  C   UNL     1       2.576   0.056  -0.100  0.00  0.00    +0.309 C 
ATOM     19  O   UNL     1       3.034  -0.115  -1.221  0.00  0.00    -0.251 OA
ENDBRANCH  16  18
ENDBRANCH  10  16
ENDBRANCH   1  11
BRANCH   6  20
ATOM     20  N   UNL     1      -0.128  -1.520   7.224  0.00  0.00    +0.089 N 
ATOM     21  O   UNL     1      -1.034  -0.745   6.895  0.00  0.00    +0.042 OA
ATOM     22  O   UNL     1      -0.090  -2.186   8.264  0.00  0.00    -0.576 OA
ENDBRANCH   6  20
TORSDOF 4
