REMARK  Name = 
REMARK  43 active torsions:
REMARK  status: ('A' for Active; 'I' for Inactive)
REMARK    1  A    between atoms: C_2  and  C_90
REMARK    2  A    between atoms: C_6  and  C_8
REMARK    3  A    between atoms: C_8  and  C_9
REMARK    4  A    between atoms: C_9  and  N_10
REMARK    5  A    between atoms: C_14  and  C_16
REMARK    6  A    between atoms: C_16  and  C_17
REMARK    7  A    between atoms: C_17  and  N_18
REMARK    8  A    between atoms: C_22  and  C_24
REMARK    9  A    between atoms: C_24  and  C_25
REMARK   10  A    between atoms: C_25  and  C_26
REMARK   11  A    between atoms: C_25  and  C_27
REMARK   12  A    between atoms: C_31  and  C_33
REMARK   13  A    between atoms: C_33  and  C_34
REMARK   14  A    between atoms: C_34  and  C_35
REMARK   15  A    between atoms: C_34  and  C_36
REMARK   16  A    between atoms: C_40  and  C_42
REMARK   17  A    between atoms: C_42  and  C_43
REMARK   18  A    between atoms: C_43  and  N_44
REMARK   19  A    between atoms: C_48  and  N_55
REMARK   20  A    between atoms: C_56  and  C_58
REMARK   21  A    between atoms: C_58  and  C_60
REMARK   22  A    between atoms: C_58  and  N_63
REMARK   23  A    between atoms: C_60  and  C_61
REMARK   24  A    between atoms: C_61  and  N_62
REMARK   25  A    between atoms: C_64  and  C_66
REMARK   26  A    between atoms: C_66  and  N_68
REMARK   27  A    between atoms: C_66  and  C_86
REMARK   28  A    between atoms: C_69  and  C_71
REMARK   29  A    between atoms: C_71  and  C_73
REMARK   30  A    between atoms: C_71  and  N_76
REMARK   31  A    between atoms: C_73  and  C_74
REMARK   32  A    between atoms: C_74  and  N_75
REMARK   33  A    between atoms: C_77  and  C_79
REMARK   34  A    between atoms: C_79  and  C_80
REMARK   35  A    between atoms: C_80  and  C_81
REMARK   36  A    between atoms: C_81  and  C_82
REMARK   37  A    between atoms: C_82  and  C_83
REMARK   38  A    between atoms: C_82  and  C_84
REMARK   39  A    between atoms: C_84  and  C_85
REMARK   40  A    between atoms: C_86  and  C_88
REMARK   41  A    between atoms: C_86  and  O_89
REMARK   42  A    between atoms: C_90  and  C_92
REMARK   43  A    between atoms: C_90  and  O_93
REMARK                            x       y       z     vdW  Elec       q    Type
REMARK                         _______ _______ _______ _____ _____    ______ ____
ROOT
ATOM      1  C   UNL     1       1.630  16.883  15.084  0.00  0.00    +0.187 C 
ATOM      2  C   UNL     1       3.360  15.556  15.169  0.00  0.00    +0.236 C 
ATOM      3  O   UNL     1       4.063  15.957  14.183  0.00  0.00    -0.274 OA
ATOM      4  N   UNL     1       4.651  14.129  15.833  0.00  0.00    -0.314 N 
ATOM      5  H   UNL     1       5.203  14.624  15.098  0.00  0.00    +0.149 HD
ATOM      6  C   UNL     1       6.265  12.842  15.960  0.00  0.00    +0.106 C 
ATOM      7  C   UNL     1       7.639  11.270  16.526  0.00  0.00    +0.050 C 
ATOM      8  C   UNL     1       8.957   9.550  16.656  0.00  0.00    +0.160 C 
ATOM      9  C   UNL     1       9.156   8.113  17.859  0.00  0.00    +0.234 C 
ATOM     10  O   UNL     1      10.162   7.814  18.550  0.00  0.00    -0.274 OA
ATOM     11  N   UNL     1       8.425   6.965  17.621  0.00  0.00    -0.302 N 
ATOM     12  H   UNL     1       8.422   6.795  16.608  0.00  0.00    +0.150 HD
ATOM     13  C   UNL     1       7.171   7.268  18.172  0.00  0.00    +0.160 C 
ATOM     14  C   UNL     1       6.654   8.228  17.043  0.00  0.00    +0.234 C 
ATOM     15  O   UNL     1       7.127   8.322  15.914  0.00  0.00    -0.274 OA
ATOM     16  N   UNL     1       5.655   8.995  17.479  0.00  0.00    -0.302 N 
ATOM     17  H   UNL     1       4.932   8.388  17.839  0.00  0.00    +0.150 HD
ATOM     18  C   UNL     1       5.178  10.265  16.980  0.00  0.00    +0.159 C 
ATOM     19  C   UNL     1       3.715  10.174  16.659  0.00  0.00    +0.234 C 
ATOM     20  O   UNL     1       3.002   9.321  17.180  0.00  0.00    -0.274 OA
ATOM     21  N   UNL     1       3.253  11.297  16.024  0.00  0.00    -0.302 N 
ATOM     22  H   UNL     1       3.861  11.942  15.509  0.00  0.00    +0.150 HD
ATOM     23  C   UNL     1       1.944  11.806  16.364  0.00  0.00    +0.159 C 
ATOM     24  C   UNL     1       1.647  12.830  15.308  0.00  0.00    +0.234 C 
ATOM     25  O   UNL     1       2.463  13.203  14.475  0.00  0.00    -0.274 OA
ATOM     26  N   UNL     1       0.351  13.227  15.332  0.00  0.00    -0.302 N 
ATOM     27  H   UNL     1      -0.218  13.022  16.140  0.00  0.00    +0.150 HD
ATOM     28  C   UNL     1      -0.073  14.429  14.726  0.00  0.00    +0.160 C 
ATOM     29  C   UNL     1      -1.561  14.548  15.133  0.00  0.00    +0.234 C 
ATOM     30  O   UNL     1      -1.942  14.025  16.178  0.00  0.00    -0.274 OA
ATOM     31  N   UNL     1      -2.352  15.399  14.415  0.00  0.00    -0.302 N 
ATOM     32  H   UNL     1      -1.897  15.799  13.601  0.00  0.00    +0.150 HD
ATOM     33  C   UNL     1      -3.007  16.467  15.115  0.00  0.00    +0.160 C 
ATOM     34  C   UNL     1      -1.720  17.455  15.364  0.00  0.00    +0.234 C 
ATOM     35  O   UNL     1      -2.028  18.614  15.652  0.00  0.00    -0.274 OA
ATOM     36  N   UNL     1      -0.287  16.815  15.163  0.00  0.00    -0.300 N 
ATOM     37  H   UNL     1      -0.421  16.972  14.146  0.00  0.00    +0.150 HD
ENDROOT
BRANCH   8  38
ATOM     38  N   UNL     1      10.264   8.192  16.096  0.00  0.00    -0.302 N 
ATOM     39  H   UNL     1      10.831   7.883  16.944  0.00  0.00    +0.150 HD
ATOM     40  C   UNL     1      10.467   6.726  15.323  0.00  0.00    +0.234 C 
ATOM     41  O   UNL     1       9.496   6.343  14.640  0.00  0.00    -0.274 OA
BRANCH  40  42
ATOM     42  C   UNL     1      11.841   5.368  15.306  0.00  0.00    +0.160 C 
BRANCH  42  43
ATOM     43  N   UNL     1      12.063   4.709  13.842  0.00  0.00    -0.302 N 
ATOM     44  H   UNL     1      12.821   5.106  13.290  0.00  0.00    +0.150 HD
ATOM     45  C   UNL     1      11.541   3.524  13.305  0.00  0.00    +0.236 C 
ATOM     46  O   UNL     1      11.000   2.648  13.985  0.00  0.00    -0.274 OA
BRANCH  45  47
ATOM     47  C   UNL     1      11.673   3.330  11.721  0.00  0.00    +0.187 C 
BRANCH  47  48
ATOM     48  N   UNL     1      12.848   2.544  11.285  0.00  0.00    -0.300 N 
ATOM     49  H   UNL     1      12.710   1.542  11.173  0.00  0.00    +0.150 HD
ATOM     50  C   UNL     1      14.028   3.146  10.908  0.00  0.00    +0.234 C 
ATOM     51  O   UNL     1      14.175   4.367  10.986  0.00  0.00    -0.274 OA
BRANCH  50  52
ATOM     52  C   UNL     1      15.182   2.212  10.441  0.00  0.00    +0.160 C 
BRANCH  52  53
ATOM     53  N   UNL     1      16.026   2.964   9.497  0.00  0.00    -0.304 N 
ATOM     54  H   UNL     1      15.773   3.934   9.330  0.00  0.00    +0.149 HD
ATOM     55  C   UNL     1      17.130   2.418   8.883  0.00  0.00    +0.214 C 
ATOM     56  O   UNL     1      17.453   1.240   9.009  0.00  0.00    -0.276 OA
BRANCH  55  57
ATOM     57  C   UNL     1      17.957   3.368   8.035  0.00  0.00    +0.096 C 
BRANCH  57  58
ATOM     58  C   UNL     1      18.482   4.559   8.823  0.00  0.00    +0.009 C 
BRANCH  58  59
ATOM     59  C   UNL     1      19.353   4.143  10.015  0.00  0.00    +0.004 C 
BRANCH  59  60
ATOM     60  C   UNL     1      19.836   5.356  10.830  0.00  0.00    -0.014 C 
ATOM     61  C   UNL     1      18.645   6.163  11.362  0.00  0.00    +0.007 C 
BRANCH  60  62
ATOM     62  C   UNL     1      20.737   4.882  11.985  0.00  0.00    -0.000 C 
ATOM     63  C   UNL     1      21.283   6.042  12.806  0.00  0.00    +0.004 C 
ENDBRANCH  60  62
ENDBRANCH  59  60
ENDBRANCH  58  59
ENDBRANCH  57  58
ENDBRANCH  55  57
ENDBRANCH  52  53
BRANCH  52  64
ATOM     64  C   UNL     1      15.993   1.746  11.663  0.00  0.00    +0.046 C 
BRANCH  64  65
ATOM     65  C   UNL     1      15.176   0.874  12.611  0.00  0.00    +0.080 C 
BRANCH  65  66
ATOM     66  N   UNL     1      15.999   0.434  13.729  0.00  0.00    -0.330 NA
ATOM     67  H   UNL     1      15.444  -0.167  14.338  0.00  0.00    +0.118 HD
ATOM     68  H   UNL     1      16.769  -0.139  13.384  0.00  0.00    +0.118 HD
ENDBRANCH  65  66
ENDBRANCH  64  65
ENDBRANCH  52  64
ENDBRANCH  50  52
ENDBRANCH  47  48
BRANCH  47  69
ATOM     69  C   UNL     1      10.364   2.653  11.192  0.00  0.00    +0.141 C 
ATOM     70  C   UNL     1      10.304   2.520   9.667  0.00  0.00    +0.040 C 
BRANCH  69  71
ATOM     71  O   UNL     1      10.232   1.320  11.711  0.00  0.00    -0.390 OA
ATOM     72  H   UNL     1      10.184   1.418  12.687  0.00  0.00    +0.210 HD
ENDBRANCH  69  71
ENDBRANCH  47  69
ENDBRANCH  45  47
ENDBRANCH  42  43
BRANCH  42  73
ATOM     73  C   UNL     1      13.320   5.509  15.820  0.00  0.00    +0.046 C 
BRANCH  73  74
ATOM     74  C   UNL     1      13.387   5.511  17.339  0.00  0.00    +0.080 C 
BRANCH  74  75
ATOM     75  N   UNL     1      14.678   5.994  17.818  0.00  0.00    -0.330 NA
ATOM     76  H   UNL     1      14.631   6.090  18.833  0.00  0.00    +0.118 HD
ATOM     77  H   UNL     1      15.414   5.311  17.636  0.00  0.00    +0.118 HD
ENDBRANCH  74  75
ENDBRANCH  73  74
ENDBRANCH  42  73
ENDBRANCH  40  42
ENDBRANCH   8  38
BRANCH   1  78
ATOM     78  C   UNL     1       0.851  18.645  14.311  0.00  0.00    +0.141 C 
ATOM     79  C   UNL     1      -0.478  20.106  14.166  0.00  0.00    +0.040 C 
BRANCH  78  80
ATOM     80  O   UNL     1      -0.274  18.039  13.169  0.00  0.00    -0.390 OA
ATOM     81  H   UNL     1      -0.939  18.716  12.839  0.00  0.00    +0.210 HD
ENDBRANCH  78  80
ENDBRANCH   1  78
BRANCH  33  82
ATOM     82  C   UNL     1      -3.711  16.509  16.501  0.00  0.00    +0.046 C 
BRANCH  82  83
ATOM     83  C   UNL     1      -4.394  15.311  17.126  0.00  0.00    +0.080 C 
BRANCH  83  84
ATOM     84  N   UNL     1      -4.803  15.606  18.510  0.00  0.00    -0.330 NA
ATOM     85  H   UNL     1      -5.085  14.721  18.937  0.00  0.00    +0.118 HD
ATOM     86  H   UNL     1      -3.982  15.893  19.047  0.00  0.00    +0.118 HD
ENDBRANCH  83  84
ENDBRANCH  82  83
ENDBRANCH  33  82
BRANCH  28  87
ATOM     87  C   UNL     1       0.314  14.640  13.264  0.00  0.00    +0.046 C 
BRANCH  87  88
ATOM     88  C   UNL     1      -0.337  13.557  12.456  0.00  0.00    +0.080 C 
BRANCH  88  89
ATOM     89  N   UNL     1       0.069  13.650  11.073  0.00  0.00    -0.330 NA
ATOM     90  H   UNL     1      -0.382  12.895  10.563  0.00  0.00    +0.118 HD
ATOM     91  H   UNL     1      -0.251  14.525  10.664  0.00  0.00    +0.118 HD
ENDBRANCH  88  89
ENDBRANCH  87  88
ENDBRANCH  28  87
BRANCH  23  92
ATOM     92  C   UNL     1       1.850  12.354  17.818  0.00  0.00    +0.034 C 
BRANCH  92  93
ATOM     93  C   UNL     1       0.488  12.795  18.386  0.00  0.00    -0.015 C 
ATOM     94  C   UNL     1       0.568  13.144  19.878  0.00  0.00    +0.007 C 
ATOM     95  C   UNL     1      -0.541  11.679  18.196  0.00  0.00    +0.007 C 
ENDBRANCH  92  93
ENDBRANCH  23  92
BRANCH  18  96
ATOM     96  C   UNL     1       5.197  11.423  18.093  0.00  0.00    +0.034 C 
BRANCH  96  97
ATOM     97  C   UNL     1       4.537  11.134  19.444  0.00  0.00    -0.015 C 
ATOM     98  C   UNL     1       4.608  12.298  20.425  0.00  0.00    +0.007 C 
ATOM     99  C   UNL     1       5.090   9.919  20.100  0.00  0.00    +0.007 C 
ENDBRANCH  96  97
ENDBRANCH  18  96
BRANCH  13 100
ATOM    100  C   UNL     1       7.367   7.737  19.716  0.00  0.00    +0.046 C 
BRANCH 100 101
ATOM    101  C   UNL     1       8.258   8.972  20.209  0.00  0.00    +0.080 C 
BRANCH 101 102
ATOM    102  N   UNL     1       8.194   9.169  21.660  0.00  0.00    -0.330 NA
ATOM    103  H   UNL     1       8.750   9.985  21.925  0.00  0.00    +0.118 HD
ATOM    104  H   UNL     1       7.244   9.331  21.970  0.00  0.00    +0.118 HD
ENDBRANCH 101 102
ENDBRANCH 100 101
ENDBRANCH  13 100
TORSDOF 35
