REMARK  Name = 
REMARK  2 active torsions:
REMARK  status: ('A' for Active; 'I' for Inactive)
REMARK    1  A    between atoms: N_1  and  N_2
REMARK    2  A    between atoms: C_3  and  C_5
REMARK                            x       y       z     vdW  Elec       q    Type
REMARK                         _______ _______ _______ _____ _____    ______ ____
ROOT
ATOM      1  N   UNL     1       2.439  -0.816   0.097  0.00  0.00    -0.250 N 
ATOM      2  H   UNL     1       2.964  -0.833   0.965  0.00  0.00    +0.169 HD
ATOM      3  C   UNL     1       3.069  -0.752  -1.141  0.00  0.00    +0.257 C 
ATOM      4  O   UNL     1       2.454  -0.788  -2.205  0.00  0.00    -0.269 OA
ENDROOT
BRANCH   3   5
ATOM      5  C   UNL     1       4.560  -0.696  -1.138  0.00  0.00    +0.041 A 
ATOM      6  C   UNL     1       5.301  -0.285  -0.029  0.00  0.00    +0.033 A 
ATOM      7  C   UNL     1       6.682  -0.318  -0.123  0.00  0.00    +0.111 A 
ATOM      8  N   UNL     1       7.350  -0.710  -1.227  0.00  0.00    -0.263 NA
ATOM      9  C   UNL     1       6.608  -1.069  -2.295  0.00  0.00    +0.111 A 
ATOM     10  C   UNL     1       5.229  -1.072  -2.304  0.00  0.00    +0.033 A 
ENDBRANCH   3   5
BRANCH   1  11
ATOM     11  N   UNL     1       1.033  -0.855   0.155  0.00  0.00    -0.254 NA
ATOM     12  H   UNL     1       0.698  -1.010  -0.808  0.00  0.00    +0.140 HD
ATOM     13  H   UNL     1       0.745  -1.689   0.669  0.00  0.00    +0.140 HD
ENDBRANCH   1  11
TORSDOF 2
