REMARK  Name = 
REMARK  40 active torsions:
REMARK  status: ('A' for Active; 'I' for Inactive)
REMARK    1  A    between atoms: C_1  and  C_2
REMARK    2  A    between atoms: C_2  and  C_3
REMARK    3  A    between atoms: C_7  and  C_8
REMARK    4  A    between atoms: C_8  and  O_9
REMARK    5  A    between atoms: C_8  and  C_10
REMARK    6  A    between atoms: C_10  and  C_11
REMARK    7  A    between atoms: C_10  and  C_12
REMARK    8  A    between atoms: C_12  and  C_13
REMARK    9  A    between atoms: C_14  and  C_15
REMARK   10  A    between atoms: N_16  and  C_17
REMARK   11  A    between atoms: C_20  and  C_21
REMARK   12  A    between atoms: C_21  and  C_22
REMARK   13  A    between atoms: C_21  and  C_23
REMARK   14  A    between atoms: N_24  and  C_25
REMARK   15  A    between atoms: C_28  and  C_29
REMARK   16  A    between atoms: C_29  and  C_30
REMARK   17  A    between atoms: C_30  and  C_31
REMARK   18  A    between atoms: C_30  and  C_32
REMARK   19  A    between atoms: N_33  and  C_34
REMARK   20  A    between atoms: C_37  and  C_38
REMARK   21  A    between atoms: C_38  and  C_39
REMARK   22  A    between atoms: C_39  and  C_40
REMARK   23  A    between atoms: C_39  and  C_41
REMARK   24  A    between atoms: N_42  and  C_43
REMARK   25  A    between atoms: C_46  and  C_47
REMARK   26  A    between atoms: C_51  and  C_52
REMARK   27  A    between atoms: C_56  and  C_57
REMARK   28  A    between atoms: C_57  and  C_58
REMARK   29  A    between atoms: C_58  and  C_59
REMARK   30  A    between atoms: C_58  and  C_60
REMARK   31  A    between atoms: N_61  and  C_62
REMARK   32  A    between atoms: C_65  and  C_83
REMARK   33  A    between atoms: C_69  and  C_70
REMARK   34  A    between atoms: C_70  and  C_71
REMARK   35  A    between atoms: C_71  and  C_72
REMARK   36  A    between atoms: C_71  and  C_73
REMARK   37  A    between atoms: N_74  and  C_75
REMARK   38  A    between atoms: N_79  and  C_80
REMARK   39  A    between atoms: C_83  and  C_84
REMARK   40  A    between atoms: C_83  and  C_85
REMARK                            x       y       z     vdW  Elec       q    Type
REMARK                         _______ _______ _______ _____ _____    ______ ____
ROOT
ATOM      1  C   UNL     1       9.841  -7.993  -3.665  0.00  0.00    +0.159 C 
ATOM      2  C   UNL     1      11.809  -9.804  -4.410  0.00  0.00    +0.236 C 
ATOM      3  O   UNL     1      10.526 -10.244  -4.819  0.00  0.00    -0.274 OA
ATOM      4  N   UNL     1      13.668 -11.394  -4.995  0.00  0.00    -0.294 N 
ATOM      5  C   UNL     1      13.684 -12.817  -6.425  0.00  0.00    +0.132 C 
ATOM      6  C   UNL     1      15.843 -12.834  -5.422  0.00  0.00    +0.203 C 
ATOM      7  C   UNL     1      17.901 -14.488  -5.875  0.00  0.00    +0.233 C 
ATOM      8  O   UNL     1      17.875 -15.184  -7.111  0.00  0.00    -0.274 OA
ATOM      9  N   UNL     1      19.834 -15.888  -6.336  0.00  0.00    -0.292 N 
ATOM     10  C   UNL     1      20.864 -17.626  -5.778  0.00  0.00    +0.133 C 
ATOM     11  C   UNL     1      21.923 -17.140  -6.926  0.00  0.00    +0.162 C 
ATOM     12  C   UNL     1      24.018 -17.994  -6.507  0.00  0.00    +0.234 C 
ATOM     13  O   UNL     1      24.364 -19.165  -5.758  0.00  0.00    -0.274 OA
ATOM     14  N   UNL     1      25.982 -17.966  -6.421  0.00  0.00    -0.302 N 
ATOM     15  H   UNL     1      26.955 -18.420  -6.950  0.00  0.00    +0.150 HD
ATOM     16  C   UNL     1      27.221 -18.193  -4.942  0.00  0.00    +0.162 C 
ATOM     17  C   UNL     1      27.033 -16.801  -4.352  0.00  0.00    +0.237 C 
ATOM     18  O   UNL     1      27.908 -15.965  -4.152  0.00  0.00    -0.274 OA
ATOM     19  N   UNL     1      25.706 -16.531  -4.130  0.00  0.00    -0.291 N 
ATOM     20  C   UNL     1      24.792 -17.550  -4.257  0.00  0.00    +0.133 C 
ATOM     21  C   UNL     1      25.139 -15.226  -3.961  0.00  0.00    +0.162 C 
ATOM     22  C   UNL     1      23.568 -15.147  -4.079  0.00  0.00    +0.234 C 
ATOM     23  O   UNL     1      22.817 -16.112  -4.133  0.00  0.00    -0.274 OA
ATOM     24  N   UNL     1      22.900 -13.991  -3.905  0.00  0.00    -0.303 N 
ATOM     25  H   UNL     1      23.358 -13.110  -3.787  0.00  0.00    +0.149 HD
ATOM     26  C   UNL     1      21.440 -14.024  -3.706  0.00  0.00    +0.156 C 
ATOM     27  C   UNL     1      20.913 -14.372  -5.023  0.00  0.00    +0.038 C 
ATOM     28  C   UNL     1      20.929 -12.648  -3.336  0.00  0.00    +0.234 C 
ATOM     29  O   UNL     1      21.755 -11.762  -3.111  0.00  0.00    -0.274 OA
ATOM     30  N   UNL     1      19.563 -12.434  -3.261  0.00  0.00    -0.303 N 
ATOM     31  H   UNL     1      18.881 -13.173  -3.413  0.00  0.00    +0.149 HD
ATOM     32  C   UNL     1      19.028 -11.113  -2.881  0.00  0.00    +0.156 C 
ATOM     33  C   UNL     1      19.553 -10.771  -1.504  0.00  0.00    +0.038 C 
ATOM     34  C   UNL     1      17.476 -11.110  -2.860  0.00  0.00    +0.236 C 
ATOM     35  O   UNL     1      16.884 -12.160  -3.139  0.00  0.00    -0.274 OA
ATOM     36  N   UNL     1      16.827  -9.906  -2.518  0.00  0.00    -0.291 N 
ATOM     37  C   UNL     1      17.577  -8.681  -2.306  0.00  0.00    +0.133 C 
ATOM     38  C   UNL     1      15.350  -9.836  -2.522  0.00  0.00    +0.162 C 
ATOM     39  C   UNL     1      14.647  -8.531  -2.235  0.00  0.00    +0.236 C 
ATOM     40  O   UNL     1      15.311  -7.528  -2.445  0.00  0.00    -0.274 OA
ATOM     41  N   UNL     1      13.312  -8.364  -1.964  0.00  0.00    -0.291 N 
ATOM     42  C   UNL     1      12.383  -9.465  -1.950  0.00  0.00    +0.133 C 
ATOM     43  C   UNL     1      12.856  -6.968  -1.727  0.00  0.00    +0.162 C 
ATOM     44  C   UNL     1      11.394  -6.789  -1.649  0.00  0.00    +0.236 C 
ATOM     45  O   UNL     1      10.583  -7.702  -1.611  0.00  0.00    -0.274 OA
ATOM     46  N   UNL     1      11.008  -5.514  -1.469  0.00  0.00    -0.291 N 
ATOM     47  C   UNL     1      11.645  -4.270  -1.420  0.00  0.00    +0.133 C 
ATOM     48  C   UNL     1       9.700  -5.369  -1.629  0.00  0.00    +0.164 C 
ATOM     49  C   UNL     1       9.133  -4.313  -0.840  0.00  0.00    +0.237 C 
ATOM     50  O   UNL     1       9.328  -3.129  -1.103  0.00  0.00    -0.274 OA
ATOM     51  N   UNL     1       7.808  -4.732  -0.359  0.00  0.00    -0.289 N 
ATOM     52  C   UNL     1       6.466  -6.218  -0.480  0.00  0.00    +0.133 C 
ATOM     53  C   UNL     1       7.357  -3.169  -0.714  0.00  0.00    +0.190 C 
ATOM     54  C   UNL     1       7.388  -4.942  -1.544  0.00  0.00    +0.237 C 
ATOM     55  O   UNL     1       6.071  -4.433  -0.734  0.00  0.00    -0.274 OA
ATOM     56  N   UNL     1       8.454  -6.436  -2.560  0.00  0.00    -0.302 N 
ATOM     57  H   UNL     1       8.050  -5.065  -2.601  0.00  0.00    +0.150 HD
ENDROOT
BRANCH  48  58
ATOM     58  C   UNL     1       9.539  -4.900  -3.522  0.00  0.00    +0.012 C 
ATOM     59  C   UNL     1       9.581  -3.438  -3.592  0.00  0.00    +0.009 C 
ATOM     60  C   UNL     1       8.160  -4.878  -4.683  0.00  0.00    +0.009 C 
ENDBRANCH  48  58
BRANCH  16  61
ATOM     61  C   UNL     1      29.022 -18.313  -4.855  0.00  0.00    +0.012 C 
ATOM     62  C   UNL     1      29.717 -17.396  -5.835  0.00  0.00    +0.009 C 
ATOM     63  C   UNL     1      29.551 -19.728  -5.095  0.00  0.00    +0.009 C 
ENDBRANCH  16  61
BRANCH   1  65
ATOM     64  C   UNL     1       6.170  -4.716  -2.928  0.00  0.00    +0.006 C 
ATOM     65  C   UNL     1       7.801  -6.575  -3.371  0.00  0.00    +0.028 C 
ENDBRANCH   1  65
BRANCH  21  66
ATOM     66  C   UNL     1      25.629 -14.866  -2.585  0.00  0.00    +0.035 C 
BRANCH  66  67
ATOM     67  C   UNL     1      25.132 -15.854  -1.512  0.00  0.00    -0.015 C 
ATOM     68  C   UNL     1      23.661 -15.730  -1.268  0.00  0.00    +0.007 C 
ATOM     69  C   UNL     1      25.776 -15.498  -0.203  0.00  0.00    +0.007 C 
ENDBRANCH  66  67
ENDBRANCH  21  66
BRANCH  38  70
ATOM     70  C   UNL     1      14.945 -10.080  -3.915  0.00  0.00    +0.035 C 
BRANCH  70  71
ATOM     71  C   UNL     1      15.327  -9.211  -5.130  0.00  0.00    -0.015 C 
ATOM     72  C   UNL     1      14.693  -7.855  -5.265  0.00  0.00    +0.007 C 
ATOM     73  C   UNL     1      14.887  -9.886  -6.459  0.00  0.00    +0.007 C 
ENDBRANCH  70  71
ENDBRANCH  38  70
BRANCH  43  74
ATOM     74  C   UNL     1      13.373  -6.500  -0.359  0.00  0.00    +0.035 C 
BRANCH  74  75
ATOM     75  C   UNL     1      14.871  -6.357  -0.350  0.00  0.00    -0.015 C 
ATOM     76  C   UNL     1      15.482  -5.918   0.916  0.00  0.00    +0.007 C 
ATOM     77  C   UNL     1      15.328  -5.338  -1.424  0.00  0.00    +0.007 C 
ENDBRANCH  74  75
ENDBRANCH  43  74
BRANCH  53  78
ATOM     78  C   UNL     1       7.203  -2.388   0.748  0.00  0.00    +0.147 C 
BRANCH  78  79
ATOM     79  C   UNL     1       8.183  -1.189   1.076  0.00  0.00    +0.021 C 
ATOM     80  C   UNL     1       9.633  -1.638   1.057  0.00  0.00    +0.010 C 
BRANCH  79  81
ATOM     81  C   UNL     1       8.037  -0.015   0.125  0.00  0.00    +0.032 C 
BRANCH  81  82
ATOM     82  C   UNL     1       6.662   0.553   0.184  0.00  0.00    -0.031 C 
ATOM     83  C   UNL     1       6.064   1.087  -0.885  0.00  0.00    -0.034 C 
ATOM     84  C   UNL     1       4.689   1.648  -0.820  0.00  0.00    +0.035 C 
ENDBRANCH  81  82
ENDBRANCH  79  81
ENDBRANCH  78  79
BRANCH  78  85
ATOM     85  O   UNL     1       7.595  -3.389   1.670  0.00  0.00    -0.389 OA
ATOM     86  H   UNL     1       8.290  -3.818   1.126  0.00  0.00    +0.210 HD
ENDBRANCH  78  85
ENDBRANCH  53  78
BRANCH  11  87
ATOM     87  C   UNL     1      23.425 -19.003  -7.477  0.00  0.00    +0.035 C 
BRANCH  87  88
ATOM     88  C   UNL     1      25.031 -20.668  -7.323  0.00  0.00    -0.015 C 
ATOM     89  C   UNL     1      26.583 -21.927  -8.091  0.00  0.00    +0.007 C 
ATOM     90  C   UNL     1      24.901 -22.457  -6.880  0.00  0.00    +0.007 C 
ENDBRANCH  87  88
ENDBRANCH  11  87
TORSDOF 16
