REMARK  Name = 
REMARK  5 active torsions:
REMARK  status: ('A' for Active; 'I' for Inactive)
REMARK    1  A    between atoms: C_1  and  C_2
REMARK    2  A    between atoms: C_2  and  N_4
REMARK    3  A    between atoms: C_2  and  C_5
REMARK    4  A    between atoms: C_5  and  O_7
REMARK    5  A    between atoms: C_5  and  C_8
REMARK                            x       y       z     vdW  Elec       q    Type
REMARK                         _______ _______ _______ _____ _____    ______ ____
ROOT
ATOM      1  C   UNL     1       3.135  -0.614  -1.195  0.00  0.00    +0.161 C 
ENDROOT
BRANCH   1   2
ATOM      2  C   UNL     1       4.647  -0.652  -1.181  0.00  0.00    -0.018 A 
ATOM      3  C   UNL     1       5.416   0.407  -1.687  0.00  0.00    +0.006 A 
ATOM      4  C   UNL     1       6.809   0.378  -1.608  0.00  0.00    +0.000 A 
ATOM      5  C   UNL     1       7.453  -0.717  -1.037  0.00  0.00    +0.000 A 
ATOM      6  C   UNL     1       6.706  -1.783  -0.545  0.00  0.00    +0.000 A 
ATOM      7  C   UNL     1       5.313  -1.751  -0.614  0.00  0.00    +0.006 A 
ENDBRANCH   1   2
BRANCH   1   9
ATOM      8  C   UNL     1       2.882   1.482   0.300  0.00  0.00    +0.026 C 
ATOM      9  C   UNL     1       2.517   0.008   0.096  0.00  0.00    +0.081 C 
BRANCH   9  10
ATOM     10  N   UNL     1       1.040  -0.074   0.031  0.00  0.00    -0.325 NA
ATOM     11  H   UNL     1       0.756  -1.055   0.029  0.00  0.00    +0.119 HD
ATOM     12  H   UNL     1       0.651   0.325   0.887  0.00  0.00    +0.119 HD
ENDBRANCH   9  10
ENDBRANCH   1   9
BRANCH   1  13
ATOM     13  O   UNL     1       2.645   0.076  -2.349  0.00  0.00    -0.386 OA
ATOM     14  H   UNL     1       1.696   0.216  -2.158  0.00  0.00    +0.210 HD
ENDBRANCH   1  13
TORSDOF 4
