REMARK  Name = 
REMARK  13 active torsions:
REMARK  status: ('A' for Active; 'I' for Inactive)
REMARK    1  A    between atoms: C_1  and  O_2
REMARK    2  A    between atoms: O_2  and  C_3
REMARK    3  A    between atoms: C_3  and  C_4
REMARK    4  A    between atoms: C_4  and  C_5
REMARK    5  A    between atoms: C_8  and  O_9
REMARK    6  A    between atoms: O_9  and  C_10
REMARK    7  A    between atoms: C_10  and  C_11
REMARK    8  A    between atoms: C_11  and  O_12
REMARK    9  A    between atoms: C_11  and  C_13
REMARK   10  A    between atoms: C_13  and  N_14
REMARK   11  A    between atoms: N_14  and  C_15
REMARK   12  A    between atoms: C_15  and  C_16
REMARK   13  A    between atoms: C_15  and  C_17
REMARK                            x       y       z     vdW  Elec       q    Type
REMARK                         _______ _______ _______ _____ _____    ______ ____
ROOT
ATOM      1  O   UNL     1       5.845  -6.455  -1.842  0.00  0.00    -0.489 OA
ENDROOT
BRANCH   1   5
ATOM      2  C   UNL     1       4.834  -2.819  -0.015  0.00  0.00    -0.045 A 
ATOM      3  C   UNL     1       5.785  -2.887  -1.040  0.00  0.00    +0.007 A 
ATOM      4  C   UNL     1       6.088  -4.116  -1.646  0.00  0.00    +0.046 A 
ATOM      5  C   UNL     1       5.448  -5.285  -1.234  0.00  0.00    +0.121 A 
ATOM      6  C   UNL     1       4.465  -5.201  -0.248  0.00  0.00    +0.046 A 
ATOM      7  C   UNL     1       4.157  -3.983   0.351  0.00  0.00    +0.007 A 
BRANCH   2   8
ATOM      8  C   UNL     1       4.552  -1.538   0.734  0.00  0.00    +0.063 C 
BRANCH   8   9
ATOM      9  C   UNL     1       4.941  -1.671   2.211  0.00  0.00    +0.164 C 
BRANCH   9  11
ATOM     10  C   UNL     1       4.941  -0.584   4.290  0.00  0.00    +0.193 C 
ATOM     11  O   UNL     1       4.627  -0.464   2.907  0.00  0.00    -0.383 OA
ENDBRANCH   9  11
ENDBRANCH   8   9
ENDBRANCH   2   8
ENDBRANCH   1   5
BRANCH   1  12
ATOM     12  C   UNL     1       5.257  -7.643  -1.286  0.00  0.00    +0.261 C 
BRANCH  12  13
ATOM     13  C   UNL     1       5.872  -8.911  -1.892  0.00  0.00    +0.166 C 
BRANCH  13  14
ATOM     14  O   UNL     1       5.659  -8.921  -3.308  0.00  0.00    -0.387 OA
ATOM     15  H   UNL     1       5.884  -8.024  -3.623  0.00  0.00    +0.210 HD
ENDBRANCH  13  14
BRANCH  13  16
ATOM     16  C   UNL     1       7.377  -9.059  -1.600  0.00  0.00    +0.115 C 
BRANCH  16  17
ATOM     17  N   UNL     1       7.658  -9.077  -0.160  0.00  0.00    -0.311 NA
ATOM     18  H   UNL     1       7.169  -9.865   0.267  0.00  0.00    +0.122 HD
BRANCH  17  19
ATOM     19  C   UNL     1       9.087  -9.172   0.165  0.00  0.00    +0.048 C 
ATOM     20  C   UNL     1       9.214  -9.212   1.691  0.00  0.00    +0.023 C 
ATOM     21  C   UNL     1       9.903  -7.999  -0.381  0.00  0.00    +0.023 C 
ENDBRANCH  17  19
ENDBRANCH  16  17
ENDBRANCH  13  16
ENDBRANCH  12  13
ENDBRANCH   1  12
TORSDOF 10
