REMARK  Name = 
REMARK  6 active torsions:
REMARK  status: ('A' for Active; 'I' for Inactive)
REMARK    1  A    between atoms: C_1  and  C_2
REMARK    2  A    between atoms: C_5  and  C_8
REMARK    3  A    between atoms: C_10  and  C_23
REMARK    4  A    between atoms: N_12  and  C_13
REMARK    5  A    between atoms: C_16  and  S_19
REMARK    6  A    between atoms: S_19  and  N_20
REMARK                            x       y       z     vdW  Elec       q    Type
REMARK                         _______ _______ _______ _____ _____    ______ ____
ROOT
ATOM      1  C   UNL     1       6.723   0.187  -0.465  0.00  0.00    +0.075 A 
ATOM      2  N   UNL     1       7.524  -0.933  -0.734  0.00  0.00    -0.232 N 
ATOM      3  N   UNL     1       8.837  -0.589  -0.846  0.00  0.00    -0.162 NA
ATOM      4  C   UNL     1       8.851   0.751  -0.923  0.00  0.00    +0.166 A 
ATOM      5  C   UNL     1       7.567   1.271  -0.649  0.00  0.00    +0.062 A 
ENDROOT
BRANCH   1  10
ATOM      6  C   UNL     1       0.990  -0.017   0.210  0.00  0.00    +0.044 C 
ATOM      7  C   UNL     1       2.483   0.132   0.218  0.00  0.00    -0.050 A 
ATOM      8  C   UNL     1       3.292  -0.861   0.776  0.00  0.00    +0.004 A 
ATOM      9  C   UNL     1       4.684  -0.794   0.654  0.00  0.00    +0.010 A 
ATOM     10  C   UNL     1       5.291   0.212  -0.110  0.00  0.00    +0.000 A 
ATOM     11  C   UNL     1       4.479   1.255  -0.577  0.00  0.00    +0.010 A 
ATOM     12  C   UNL     1       3.091   1.218  -0.414  0.00  0.00    +0.004 A 
ENDBRANCH   1  10
BRANCH   2  13
ATOM     13  C   UNL     1       7.172  -2.307  -0.909  0.00  0.00    +0.066 A 
ATOM     14  C   UNL     1       5.910  -2.688  -1.380  0.00  0.00    +0.030 A 
ATOM     15  C   UNL     1       5.551  -4.037  -1.421  0.00  0.00    +0.030 A 
ATOM     16  C   UNL     1       6.473  -5.009  -1.025  0.00  0.00    +0.105 A 
ATOM     17  C   UNL     1       7.771  -4.652  -0.655  0.00  0.00    +0.030 A 
ATOM     18  C   UNL     1       8.122  -3.299  -0.603  0.00  0.00    +0.030 A 
BRANCH  16  19
ATOM     19  S   UNL     1       5.984  -6.716  -1.016  0.00  0.00    +0.056 S 
ATOM     20  O   UNL     1       7.168  -7.524  -1.181  0.00  0.00    -0.153 OA
ATOM     21  O   UNL     1       4.811  -6.860  -1.840  0.00  0.00    -0.153 OA
BRANCH  19  22
ATOM     22  N   UNL     1       5.470  -6.887   0.575  0.00  0.00    -0.204 NA
ATOM     23  H   UNL     1       6.092  -6.484   1.271  0.00  0.00    +0.144 HD
ATOM     24  H   UNL     1       4.476  -6.691   0.682  0.00  0.00    +0.144 HD
ENDBRANCH  19  22
ENDBRANCH  16  19
ENDBRANCH   2  13
BRANCH   4  25
ATOM     25  C   UNL     1      10.090   1.542  -1.246  0.00  0.00    +0.436 C 
ATOM     26  F   UNL     1      10.578   1.252  -2.482  0.00  0.00    -0.164 F 
ATOM     27  F   UNL     1      11.097   1.329  -0.359  0.00  0.00    -0.164 F 
ATOM     28  F   UNL     1       9.847   2.882  -1.238  0.00  0.00    -0.164 F 
ENDBRANCH   4  25
TORSDOF 5
