REMARK  Name = 
REMARK  3 active torsions:
REMARK  status: ('A' for Active; 'I' for Inactive)
REMARK    1  A    between atoms: N_1  and  C_2
REMARK    2  A    between atoms: C_5  and  S_8
REMARK    3  A    between atoms: S_8  and  N_9
REMARK                            x       y       z     vdW  Elec       q    Type
REMARK                         _______ _______ _______ _____ _____    ______ ____
ROOT
ATOM      1  C   UNL     1       2.368  -0.012  -0.079  0.00  0.00    +0.025 A 
ATOM      2  C   UNL     1       3.102  -1.202  -0.143  0.00  0.00    +0.024 A 
ATOM      3  C   UNL     1       4.486  -1.180  -0.332  0.00  0.00    +0.030 A 
ATOM      4  C   UNL     1       5.148   0.046  -0.401  0.00  0.00    +0.105 A 
ATOM      5  C   UNL     1       4.439   1.243  -0.283  0.00  0.00    +0.030 A 
ATOM      6  C   UNL     1       3.056   1.206  -0.095  0.00  0.00    +0.024 A 
ENDROOT
BRANCH   1   7
ATOM      7  N   UNL     1       1.002  -0.044   0.223  0.00  0.00    -0.358 N 
ATOM      8  H   UNL     1       0.533  -0.887  -0.092  0.00  0.00    +0.142 HD
ATOM      9  H   UNL     1       0.503   0.796  -0.056  0.00  0.00    +0.142 HD
ENDBRANCH   1   7
BRANCH   4  10
ATOM     10  S   UNL     1       6.895   0.091  -0.669  0.00  0.00    +0.056 S 
ATOM     11  O   UNL     1       7.251   1.354  -1.271  0.00  0.00    -0.153 OA
ATOM     12  O   UNL     1       7.328  -1.176  -1.211  0.00  0.00    -0.153 OA
BRANCH  10  13
ATOM     13  N   UNL     1       7.483   0.145   0.902  0.00  0.00    -0.204 NA
ATOM     14  H   UNL     1       7.972   1.026   1.061  0.00  0.00    +0.144 HD
ATOM     15  H   UNL     1       8.047  -0.684   1.091  0.00  0.00    +0.144 HD
ENDBRANCH  10  13
ENDBRANCH   4  10
TORSDOF 3
