REMARK  Name = 
REMARK  4 active torsions:
REMARK  status: ('A' for Active; 'I' for Inactive)
REMARK    1  A    between atoms: C_1  and  C_2
REMARK    2  A    between atoms: N_4  and  S_5
REMARK    3  A    between atoms: S_5  and  C_8
REMARK    4  A    between atoms: C_11  and  N_12
REMARK                            x       y       z     vdW  Elec       q    Type
REMARK                         _______ _______ _______ _____ _____    ______ ____
ROOT
ATOM      1  C   UNL     1       5.538   3.016  -0.242  0.00  0.00    +0.109 A 
ATOM      2  C   UNL     1       6.716   3.296  -0.939  0.00  0.00    +0.030 A 
ATOM      3  C   UNL     1       7.108   4.625  -1.125  0.00  0.00    +0.024 A 
ATOM      4  C   UNL     1       6.316   5.678  -0.655  0.00  0.00    +0.025 A 
ATOM      5  C   UNL     1       5.184   5.378   0.109  0.00  0.00    +0.024 A 
ATOM      6  C   UNL     1       4.784   4.054   0.309  0.00  0.00    +0.030 A 
ENDROOT
BRANCH   1   7
ATOM      7  S   UNL     1       5.051   1.331   0.023  0.00  0.00    +0.074 S 
ATOM      8  O   UNL     1       6.208   0.496  -0.236  0.00  0.00    -0.150 OA
ATOM      9  O   UNL     1       4.331   1.230   1.270  0.00  0.00    -0.150 OA
BRANCH   7  12
ATOM     10  C   UNL     1       2.011   1.116  -2.624  0.00  0.00    +0.111 C 
ATOM     11  C   UNL     1       2.744   1.587  -1.400  0.00  0.00    +0.229 C 
ATOM     12  N   UNL     1       4.021   1.035  -1.249  0.00  0.00    -0.186 N 
ATOM     13  H   UNL     1       4.395   0.369  -1.916  0.00  0.00    +0.177 HD
ATOM     14  O   UNL     1       2.267   2.409  -0.633  0.00  0.00    -0.275 OA
ENDBRANCH   7  12
ENDBRANCH   1   7
BRANCH   4  15
ATOM     15  N   UNL     1       6.776   6.996  -0.746  0.00  0.00    -0.358 N 
ATOM     16  H   UNL     1       7.397   7.166  -1.531  0.00  0.00    +0.142 HD
ATOM     17  H   UNL     1       6.041   7.693  -0.679  0.00  0.00    +0.142 HD
ENDBRANCH   4  15
TORSDOF 3
