REMARK  Name = 
REMARK  9 active torsions:
REMARK  status: ('A' for Active; 'I' for Inactive)
REMARK    1  A    between atoms: N_1  and  C_2
REMARK    2  A    between atoms: N_6  and  C_7
REMARK    3  A    between atoms: C_10  and  C_12
REMARK    4  A    between atoms: C_12  and  O_13
REMARK    5  A    between atoms: O_13  and  P_14
REMARK    6  A    between atoms: P_14  and  O_15
REMARK    7  A    between atoms: P_14  and  O_16
REMARK    8  A    between atoms: C_18  and  O_20
REMARK    9  A    between atoms: C_21  and  O_23
REMARK                            x       y       z     vdW  Elec       q    Type
REMARK                         _______ _______ _______ _____ _____    ______ ____
ROOT
ATOM      1  C   UNL     1       6.491  -3.130  -0.120  0.00  0.00    +0.253 C 
ATOM      2  C   UNL     1       6.541  -4.509   0.557  0.00  0.00    +0.195 C 
ATOM      3  C   UNL     1       7.918  -4.557   1.222  0.00  0.00    +0.178 C 
ATOM      4  C   UNL     1       8.431  -3.120   1.192  0.00  0.00    +0.178 C 
ATOM      5  O   UNL     1       7.362  -2.295   0.669  0.00  0.00    -0.346 OA
ENDROOT
BRANCH   1  11
ATOM      6  C   UNL     1       8.113  -3.883  -4.638  0.00  0.00    +0.147 A 
ATOM      7  N   UNL     1       8.428  -5.190  -4.461  0.00  0.00    -0.219 NA
ATOM      8  C   UNL     1       8.179  -5.749  -3.259  0.00  0.00    +0.225 A 
ATOM      9  N   UNL     1       7.671  -5.165  -2.155  0.00  0.00    -0.216 NA
ATOM     10  C   UNL     1       7.379  -3.875  -2.382  0.00  0.00    +0.167 A 
ATOM     11  N   UNL     1       6.867  -2.962  -1.506  0.00  0.00    -0.286 N 
ATOM     12  C   UNL     1       6.804  -1.758  -2.169  0.00  0.00    +0.203 A 
ATOM     13  N   UNL     1       7.206  -1.856  -3.417  0.00  0.00    -0.231 NA
ATOM     14  C   UNL     1       7.571  -3.174  -3.563  0.00  0.00    +0.147 A 
BRANCH   6  15
ATOM     15  N   UNL     1       8.392  -3.310  -5.872  0.00  0.00    -0.341 N 
ATOM     16  H   UNL     1       9.088  -3.818  -6.400  0.00  0.00    +0.144 HD
ATOM     17  H   UNL     1       8.441  -2.298  -5.859  0.00  0.00    +0.144 HD
ENDBRANCH   6  15
ENDBRANCH   1  11
BRANCH   2  18
ATOM     18  O   UNL     1       5.526  -4.630   1.584  0.00  0.00    -0.385 OA
ATOM     19  H   UNL     1       5.312  -3.743   1.925  0.00  0.00    +0.210 HD
ENDBRANCH   2  18
BRANCH   3  20
ATOM     20  O   UNL     1       7.839  -5.001   2.581  0.00  0.00    -0.386 OA
ATOM     21  H   UNL     1       6.906  -4.898   2.857  0.00  0.00    +0.210 HD
ENDBRANCH   3  20
BRANCH   4  22
ATOM     22  C   UNL     1       9.690  -2.987   0.328  0.00  0.00    +0.206 C 
BRANCH  22  23
ATOM     23  O   UNL     1      10.175  -1.659   0.446  0.00  0.00    -0.284 OA
BRANCH  23  24
ATOM     24  P   UNL     1      11.066  -1.099  -0.756  0.00  0.00    +0.472 P 
ATOM     25  O   UNL     1      12.237  -1.941  -1.118  0.00  0.00    -0.228 OA
BRANCH  24  26
ATOM     26  O   UNL     1      11.382   0.386  -0.275  0.00  0.00    -0.303 OA
ATOM     27  H   UNL     1      10.690   0.690   0.340  0.00  0.00    +0.222 HD
ENDBRANCH  24  26
BRANCH  24  28
ATOM     28  O   UNL     1      10.025  -0.902  -1.942  0.00  0.00    -0.303 OA
ATOM     29  H   UNL     1      10.368  -1.262  -2.784  0.00  0.00    +0.222 HD
ENDBRANCH  24  28
ENDBRANCH  23  24
ENDBRANCH  22  23
ENDBRANCH   4  22
TORSDOF 9
