REMARK  Name = 
REMARK  6 active torsions:
REMARK  status: ('A' for Active; 'I' for Inactive)
REMARK    1  A    between atoms: C_1  and  O_2
REMARK    2  A    between atoms: O_2  and  C_3
REMARK    3  A    between atoms: C_10  and  C_13
REMARK    4  A    between atoms: C_13  and  C_15
REMARK    5  A    between atoms: C_13  and  C_16
REMARK    6  A    between atoms: C_16  and  O_17
REMARK                            x       y       z     vdW  Elec       q    Type
REMARK                         _______ _______ _______ _____ _____    ______ ____
ROOT
ATOM      1  C   UNL     1       2.622   1.971 -10.175  0.00  0.00    +0.121 A 
ATOM      2  C   UNL     1       2.350   2.234  -8.833  0.00  0.00    +0.046 A 
ATOM      3  C   UNL     1       2.956   1.477  -7.827  0.00  0.00    +0.012 A 
ATOM      4  C   UNL     1       3.837   0.433  -8.152  0.00  0.00    -0.017 A 
ATOM      5  C   UNL     1       4.464  -0.349  -7.167  0.00  0.00    +0.013 A 
ATOM      6  C   UNL     1       5.331  -1.402  -7.512  0.00  0.00    -0.033 A 
ATOM      7  C   UNL     1       5.580  -1.658  -8.866  0.00  0.00    +0.005 A 
ATOM      8  C   UNL     1       4.969  -0.887  -9.851  0.00  0.00    +0.009 A 
ATOM      9  C   UNL     1       4.097   0.155  -9.512  0.00  0.00    -0.014 A 
ATOM     10  C   UNL     1       3.478   0.921 -10.507  0.00  0.00    +0.054 A 
ENDROOT
BRANCH   1  12
ATOM     11  C   UNL     1       2.638   2.902 -12.343  0.00  0.00    +0.277 C 
ATOM     12  O   UNL     1       1.983   2.770 -11.084  0.00  0.00    -0.495 OA
ENDBRANCH   1  12
BRANCH   6  13
ATOM     13  C   UNL     1       5.994  -2.260  -6.449  0.00  0.00    +0.124 C 
ATOM     14  C   UNL     1       4.948  -3.012  -5.623  0.00  0.00    +0.024 C 
BRANCH  13  15
ATOM     15  C   UNL     1       6.942  -1.461  -5.561  0.00  0.00    +0.312 C 
ATOM     16  O   UNL     1       6.926  -1.476  -4.335  0.00  0.00    -0.250 OA
BRANCH  15  17
ATOM     17  O   UNL     1       7.873  -0.756  -6.247  0.00  0.00    -0.480 OA
ATOM     18  H   UNL     1       7.760  -0.797  -7.216  0.00  0.00    +0.295 HD
ENDBRANCH  15  17
ENDBRANCH  13  15
ENDBRANCH   6  13
TORSDOF 4
