REMARK  Name = 
REMARK  5 active torsions:
REMARK  status: ('A' for Active; 'I' for Inactive)
REMARK    1  A    between atoms: N1_6  and  C1*_9
REMARK    2  A    between atoms: C4*_12  and  C5*_14
REMARK    3  A    between atoms: C5*_14  and  O5*_15
REMARK    4  A    between atoms: C3*_16  and  O3*_18
REMARK    5  A    between atoms: C2*_19  and  O2*_21
REMARK                            x       y       z     vdW  Elec       q    Type
REMARK                         _______ _______ _______ _____ _____    ______ ____
ROOT
ATOM      1  C1*   C A   1       6.683  -0.042   0.074  0.00  0.00    +0.255 C 
ATOM      2  C2*   C A   1       7.073  -1.266   0.930  0.00  0.00    +0.195 C 
ATOM      3  C3*   C A   1       8.440  -0.920   1.514  0.00  0.00    +0.178 C 
ATOM      4  C4*   C A   1       8.582   0.583   1.315  0.00  0.00    +0.177 C 
ATOM      5  O4*   C A   1       7.330   1.047   0.779  0.00  0.00    -0.346 OA
ENDROOT
BRANCH   1  12
ATOM      6  N4    C A   1       7.558   0.693  -5.338  0.00  0.00    -0.343 N 
ATOM      7  H41   C A   1       8.280   0.151  -5.794  0.00  0.00    +0.144 HD
ATOM      8  H42   C A   1       7.587   1.683  -5.563  0.00  0.00    +0.144 HD
ATOM      9  C4    C A   1       7.327   0.466  -4.010  0.00  0.00    +0.123 A 
ATOM     10  C5    C A   1       7.618  -0.857  -3.436  0.00  0.00    +0.061 A 
ATOM     11  C6    C A   1       7.457  -0.972  -2.118  0.00  0.00    +0.096 A 
ATOM     12  N1    C A   1       7.001   0.077  -1.351  0.00  0.00    -0.270 N 
ATOM     13  C2    C A   1       6.597   1.278  -1.973  0.00  0.00    +0.352 A 
ATOM     14  O2    C A   1       6.031   2.172  -1.348  0.00  0.00    -0.244 OA
ATOM     15  N3    C A   1       6.862   1.450  -3.312  0.00  0.00    -0.178 NA
ENDBRANCH   1  12
BRANCH   2  16
ATOM     16  O2*   C A   1       7.054  -2.558   0.338  0.00  0.00    -0.385 OA
ATOM     17  H2*   C A   1       7.480  -3.166   0.973  0.00  0.00    +0.210 HD
ENDBRANCH   2  16
BRANCH   3  18
ATOM     18  O3*   C A   1       8.459  -1.280   2.903  0.00  0.00    -0.386 OA
ATOM     19  H3*   C A   1       7.839  -0.696   3.382  0.00  0.00    +0.210 HD
ENDBRANCH   3  18
BRANCH   4  20
ATOM     20  C5*   C A   1       9.708   0.925   0.332  0.00  0.00    +0.190 C 
BRANCH  20  21
ATOM     21  O5*   C A   1       9.750   2.329   0.097  0.00  0.00    -0.392 OA
ATOM     22  H5*   C A   1       8.841   2.593  -0.155  0.00  0.00    +0.210 HD
ENDBRANCH  20  21
ENDBRANCH   4  20
TORSDOF 5
