REMARK  Name = 
REMARK  8 active torsions:
REMARK  status: ('A' for Active; 'I' for Inactive)
REMARK    1  A    between atoms: C_1  and  N_2
REMARK    2  A    between atoms: N_2  and  C_3
REMARK    3  A    between atoms: N_2  and  C_4
REMARK    4  A    between atoms: C_4  and  C_5
REMARK    5  A    between atoms: C_5  and  C_6
REMARK    6  A    between atoms: C_12  and  C_13
REMARK    7  A    between atoms: C_13  and  S_14
REMARK    8  A    between atoms: S_14  and  N_17
REMARK                            x       y       z     vdW  Elec       q    Type
REMARK                         _______ _______ _______ _____ _____    ______ ____
ROOT
ATOM      1  C   UNL     1       4.874  -2.044  -1.986  0.00  0.00    -0.021 A 
ATOM      2  C   UNL     1       4.633  -3.458  -1.949  0.00  0.00    +0.003 A 
ATOM      3  C   UNL     1       4.012  -4.334  -1.028  0.00  0.00    +0.015 A 
ATOM      4  C   UNL     1       3.906  -5.711  -1.309  0.00  0.00    -0.024 A 
ATOM      5  C   UNL     1       4.445  -6.200  -2.507  0.00  0.00    +0.007 A 
ATOM      6  C   UNL     1       5.056  -5.355  -3.440  0.00  0.00    +0.026 A 
ATOM      7  C   UNL     1       5.140  -3.995  -3.130  0.00  0.00    +0.047 A 
ATOM      8  N   UNL     1       5.688  -2.959  -3.849  0.00  0.00    -0.360 N 
ATOM      9  H   UNL     1       6.125  -3.059  -4.754  0.00  0.00    +0.165 HD
ATOM     10  C   UNL     1       5.549  -1.784  -3.164  0.00  0.00    +0.087 A 
ENDROOT
BRANCH   1  11
ATOM     11  C   UNL     1       4.460  -1.026  -0.964  0.00  0.00    +0.052 C 
BRANCH  11  12
ATOM     12  C   UNL     1       3.420  -0.041  -1.532  0.00  0.00    +0.088 C 
BRANCH  12  14
ATOM     13  C   UNL     1       2.045   1.912  -1.282  0.00  0.00    +0.104 C 
ATOM     14  N   UNL     1       2.957   0.996  -0.586  0.00  0.00    -0.308 NA
ATOM     15  C   UNL     1       2.275   0.416   0.572  0.00  0.00    +0.104 C 
ENDBRANCH  12  14
ENDBRANCH  11  12
ENDBRANCH   1  11
BRANCH   4  16
ATOM     16  C   UNL     1       3.250  -6.638  -0.305  0.00  0.00    +0.220 C 
BRANCH  16  17
ATOM     17  S   UNL     1       1.808  -7.432  -1.047  0.00  0.00    +0.036 S 
ATOM     18  O   UNL     1       2.244  -8.463  -1.972  0.00  0.00    -0.158 OA
ATOM     19  O   UNL     1       0.854  -6.421  -1.458  0.00  0.00    -0.158 OA
BRANCH  17  20
ATOM     20  N   UNL     1       1.087  -8.250   0.262  0.00  0.00    -0.181 NA
ATOM     21  C   UNL     1       1.891  -9.266   0.988  0.00  0.00    +0.109 C 
ATOM     22  C   UNL     1       0.952 -10.434   1.278  0.00  0.00    +0.018 C 
ATOM     23  C   UNL     1      -0.442  -9.912   0.990  0.00  0.00    +0.018 C 
ATOM     24  C   UNL     1      -0.214  -8.879  -0.096  0.00  0.00    +0.109 C 
ENDBRANCH  17  20
ENDBRANCH  16  17
ENDBRANCH   4  16
TORSDOF 6
