REMARK  Name = 
REMARK  6 active torsions:
REMARK  status: ('A' for Active; 'I' for Inactive)
REMARK    1  A    between atoms: C_1  and  N_2
REMARK    2  A    between atoms: C_7  and  C_8
REMARK    3  A    between atoms: C_8  and  C_9
REMARK    4  A    between atoms: C_9  and  N_10
REMARK    5  A    between atoms: C_21  and  S_24
REMARK    6  A    between atoms: S_24  and  C_25
REMARK                            x       y       z     vdW  Elec       q    Type
REMARK                         _______ _______ _______ _____ _____    ______ ____
ROOT
ATOM      1  N   UNL     1       6.510   1.608   0.664  0.00  0.00    -0.298 N 
ATOM      2  C   UNL     1       7.208   0.361   0.690  0.00  0.00    +0.049 A 
ATOM      3  C   UNL     1       6.557  -0.891   0.786  0.00  0.00    +0.041 A 
ATOM      4  C   UNL     1       7.233  -2.125   0.727  0.00  0.00    +0.040 A 
ATOM      5  C   UNL     1       8.614  -2.146   0.626  0.00  0.00    +0.018 A 
ATOM      6  C   UNL     1       9.300  -0.940   0.589  0.00  0.00    +0.018 A 
ATOM      7  C   UNL     1       8.616   0.295   0.620  0.00  0.00    +0.034 A 
ATOM      8  S   UNL     1       9.679   1.713   0.561  0.00  0.00    -0.086 S 
ATOM      9  C   UNL     1       8.529   3.059   0.622  0.00  0.00    +0.034 A 
ATOM     10  C   UNL     1       9.122   4.339   0.599  0.00  0.00    +0.017 A 
ATOM     11  C   UNL     1       8.349   5.493   0.605  0.00  0.00    +0.001 A 
ATOM     12  C   UNL     1       6.975   5.373   0.672  0.00  0.00    +0.002 A 
ATOM     13  C   UNL     1       6.386   4.104   0.737  0.00  0.00    +0.024 A 
ATOM     14  C   UNL     1       7.130   2.901   0.674  0.00  0.00    +0.048 A 
ENDROOT
BRANCH   4  15
ATOM     15  S   UNL     1       6.321  -3.687   0.730  0.00  0.00    +0.051 S 
ATOM     16  O   UNL     1       4.910  -3.336   0.361  0.00  0.00    -0.252 OA
ATOM     17  C   UNL     1       6.355  -3.961   2.519  0.00  0.00    +0.127 C 
ENDBRANCH   4  15
BRANCH   1  18
ATOM     18  C   UNL     1       5.022   1.593   0.550  0.00  0.00    +0.112 C 
BRANCH  18  19
ATOM     19  C   UNL     1       4.466   2.072  -0.805  0.00  0.00    +0.038 C 
BRANCH  19  22
ATOM     20  C   UNL     1       5.340   1.756  -4.435  0.00  0.00    +0.105 C 
ATOM     21  N   UNL     1       4.525   2.076  -3.263  0.00  0.00    -0.302 NA
ATOM     22  C   UNL     1       4.966   1.325  -2.059  0.00  0.00    +0.058 C 
ATOM     23  C   UNL     1       4.520  -0.146  -2.114  0.00  0.00    +0.019 C 
ATOM     24  C   UNL     1       3.026  -0.301  -2.362  0.00  0.00    +0.003 C 
ATOM     25  C   UNL     1       2.604   0.481  -3.599  0.00  0.00    +0.015 C 
ATOM     26  C   UNL     1       3.089   1.929  -3.540  0.00  0.00    +0.084 C 
ENDBRANCH  19  22
ENDBRANCH  18  19
ENDBRANCH   1  18
TORSDOF 4
