REMARK  Name = 
REMARK  5 active torsions:
REMARK  status: ('A' for Active; 'I' for Inactive)
REMARK    1  A    between atoms: C_2  and  C_3
REMARK    2  A    between atoms: C_3  and  N_4
REMARK    3  A    between atoms: N_4  and  C_5
REMARK    4  A    between atoms: N_4  and  P_8
REMARK    5  A    between atoms: C_5  and  C_6
REMARK                            x       y       z     vdW  Elec       q    Type
REMARK                         _______ _______ _______ _____ _____    ______ ____
ROOT
ATOM      1  P   UNL     1       5.213  -2.069   1.993  0.00  0.00    +0.346 P 
ATOM      2  O   UNL     1       4.129  -2.628   3.049  0.00  0.00    -0.305 OA
ATOM      3  C   UNL     1       4.241  -4.000   3.392  0.00  0.00    +0.171 C 
ATOM      4  C   UNL     1       4.110  -4.867   2.146  0.00  0.00    +0.044 C 
ATOM      5  C   UNL     1       5.218  -4.558   1.143  0.00  0.00    +0.093 C 
ATOM      6  N   UNL     1       5.184  -3.154   0.769  0.00  0.00    -0.232 NA
ATOM      7  H   UNL     1       5.939  -2.962   0.120  0.00  0.00    +0.133 HD
ATOM      8  O   UNL     1       6.559  -1.904   2.626  0.00  0.00    -0.254 OA
ENDROOT
BRANCH   1   9
ATOM      9  N   UNL     1       4.548  -0.723   1.323  0.00  0.00    -0.217 NA
BRANCH   9  10
ATOM     10  C   UNL     1       3.078  -0.659   1.291  0.00  0.00    +0.111 C 
BRANCH  10  12
ATOM     11 CL   UNL     1       0.699   0.216   0.303  0.00  0.00    -0.124 Cl
ATOM     12  C   UNL     1       2.480   0.296   0.256  0.00  0.00    +0.124 C 
ENDBRANCH  10  12
ENDBRANCH   9  10
BRANCH   9  13
ATOM     13  C   UNL     1       5.208   0.562   1.588  0.00  0.00    +0.111 C 
BRANCH  13  14
ATOM     14  C   UNL     1       4.941   1.160   2.970  0.00  0.00    +0.124 C 
ATOM     15 CL   UNL     1       5.810   2.705   3.153  0.00  0.00    -0.124 Cl
ENDBRANCH  13  14
ENDBRANCH   9  13
ENDBRANCH   1   9
TORSDOF 5
