REMARK  Name = 
REMARK  11 active torsions:
REMARK  status: ('A' for Active; 'I' for Inactive)
REMARK    1  A    between atoms: C_10  and  C_12
REMARK    2  A    between atoms: C_12  and  N_13
REMARK    3  A    between atoms: N_13  and  C_14
REMARK    4  A    between atoms: C_17  and  C_20
REMARK    5  A    between atoms: N_22  and  CA_23
REMARK    6  A    between atoms: CA_23  and  CB_25
REMARK    7  A    between atoms: CA_23  and  C_30
REMARK    8  A    between atoms: CB_25  and  CG_26
REMARK    9  A    between atoms: CG_26  and  CD_27
REMARK   10  A    between atoms: CD_27  and  OE1_28
REMARK   11  A    between atoms: C_30  and  O_31
REMARK                            x       y       z     vdW  Elec       q    Type
REMARK                         _______ _______ _______ _____ _____    ______ ____
ROOT
ATOM      1  N   UNK A   0       7.922  -0.336   2.652  0.00  0.00    -0.342 N 
ATOM      2  H   UNK A   0       7.682   0.539   2.184  0.00  0.00    +0.146 HD
ENDROOT
BRANCH   1   3
ATOM      3  C   UNK A   0       7.557  -0.262   4.013  0.00  0.00    +0.027 A 
ATOM      4  C   UNK A   0       7.500   0.992   4.644  0.00  0.00    +0.023 A 
ATOM      5  C   UNK A   0       7.114   1.119   5.990  0.00  0.00    +0.015 A 
ATOM      6  C   UNK A   0       6.800  -0.019   6.736  0.00  0.00    +0.037 A 
ATOM      7  C   UNK A   0       6.974  -1.278   6.158  0.00  0.00    +0.015 A 
ATOM      8  C   UNK A   0       7.366  -1.392   4.819  0.00  0.00    +0.023 A 
BRANCH   6   9
ATOM      9  C   UNK A   0       6.270   0.113   8.124  0.00  0.00    +0.245 C 
ATOM     10  N   GLU A   1       5.258  -0.764   8.461  0.00  0.00    -0.298 N 
ATOM     11  H   GLU A   1       4.936  -1.448   7.786  0.00  0.00    +0.150 HD
ATOM     12  O   UNK A   0       6.686   0.958   8.909  0.00  0.00    -0.270 OA
BRANCH  10  13
ATOM     13  CA  GLU A   1       4.630  -0.728   9.777  0.00  0.00    +0.182 C 
BRANCH  13  14
ATOM     14  C   GLU A   1       5.519  -1.486  10.773  0.00  0.00    +0.325 C 
ATOM     15  OXT GLU A   1       5.433  -2.689  10.991  0.00  0.00    -0.249 OA
BRANCH  14  16
ATOM     16  O   GLU A   1       6.427  -0.696  11.390  0.00  0.00    -0.479 OA
ATOM     17  H   GLU A   1       6.498   0.194  10.973  0.00  0.00    +0.295 HD
ENDBRANCH  14  16
ENDBRANCH  13  14
BRANCH  13  18
ATOM     18  CB  GLU A   1       3.225  -1.346   9.744  0.00  0.00    +0.045 C 
BRANCH  18  19
ATOM     19  CG  GLU A   1       2.532  -1.256  11.104  0.00  0.00    +0.123 C 
BRANCH  19  20
ATOM     20  CD  GLU A   1       1.135  -1.812  11.038  0.00  0.00    +0.305 C 
ATOM     21  OE2 GLU A   1       0.162  -1.151  10.710  0.00  0.00    -0.251 OA
BRANCH  20  22
ATOM     22  OE1 GLU A   1       1.060  -3.125  11.341  0.00  0.00    -0.481 OA
ATOM     23  HE1 GLU A   1       1.912  -3.537  11.583  0.00  0.00    +0.295 HD
ENDBRANCH  20  22
ENDBRANCH  19  20
ENDBRANCH  18  19
ENDBRANCH  13  18
ENDBRANCH  10  13
ENDBRANCH   6   9
ENDBRANCH   1   3
BRANCH   1  24
ATOM     24  C   UNK A   0       7.427  -1.505   1.898  0.00  0.00    +0.126 C 
BRANCH  24  35
ATOM     25  N   UNK A   0       9.698  -7.491   1.021  0.00  0.00    -0.329 N 
ATOM     26  H   UNK A   0      10.690  -7.515   0.828  0.00  0.00    +0.145 HD
ATOM     27  H   UNK A   0       9.234  -8.340   0.708  0.00  0.00    +0.145 HD
ATOM     28  C   UNK A   0       9.033  -6.385   0.615  0.00  0.00    +0.195 A 
ATOM     29  N   UNK A   0       9.707  -5.233   0.805  0.00  0.00    -0.315 N 
ATOM     30  H   UNK A   0      10.628  -5.236   1.213  0.00  0.00    +0.170 HD
ATOM     31  C   UNK A   0       9.187  -4.021   0.462  0.00  0.00    +0.126 A 
ATOM     32  N   UNK A   0       9.952  -2.881   0.655  0.00  0.00    -0.327 N 
ATOM     33  H   UNK A   0      10.565  -2.907   1.464  0.00  0.00    +0.148 HD
ATOM     34  C   UNK A   0       9.436  -1.559   0.305  0.00  0.00    +0.127 C 
ATOM     35  C   UNK A   0       7.901  -1.529   0.421  0.00  0.00    +0.115 C 
ATOM     36  N   UNK A   0       7.322  -2.708  -0.291  0.00  0.00    -0.261 N 
ATOM     37  C   UNK A   0       6.172  -2.510  -1.035  0.00  0.00    +0.333 C 
ATOM     38  O   UNK A   0       5.587  -1.435  -1.134  0.00  0.00    -0.279 OA
ATOM     39  C   UNK A   0       7.931  -3.959  -0.054  0.00  0.00    +0.142 A 
ATOM     40  C   UNK A   0       7.197  -5.287  -0.231  0.00  0.00    +0.298 A 
ATOM     41  O   UNK A   0       6.035  -5.313  -0.620  0.00  0.00    -0.264 OA
ATOM     42  N   UNK A   0       7.845  -6.463   0.115  0.00  0.00    -0.176 NA
ENDBRANCH  24  35
ENDBRANCH   1  24
TORSDOF 11
