REMARK  Name = 
REMARK  3 active torsions:
REMARK  status: ('A' for Active; 'I' for Inactive)
REMARK    1  A    between atoms: C_1  and  C_2
REMARK    2  A    between atoms: C_2  and  C_3
REMARK    3  A    between atoms: C_3  and  N_4
REMARK                            x       y       z     vdW  Elec       q    Type
REMARK                         _______ _______ _______ _____ _____    ______ ____
ROOT
ATOM      1  N   UNL     1       4.557  -0.796   1.151  0.00  0.00    -0.277 N 
ATOM      2  C   UNL     1       5.225  -2.019   1.112  0.00  0.00    +0.331 A 
ATOM      3  O   UNL     1       4.656  -3.110   1.080  0.00  0.00    -0.246 OA
ATOM      4  N   UNL     1       6.610  -1.985   1.113  0.00  0.00    -0.273 N 
ATOM      5  H   UNL     1       7.072  -2.881   1.095  0.00  0.00    +0.173 HD
ATOM      6  C   UNL     1       7.417  -0.871   1.127  0.00  0.00    +0.280 A 
ATOM      7  O   UNL     1       8.641  -0.928   1.122  0.00  0.00    -0.265 OA
ATOM      8  C   UNL     1       6.668   0.331   1.145  0.00  0.00    +0.149 A 
ATOM      9  N   UNL     1       7.065   1.635   1.161  0.00  0.00    -0.339 N 
ATOM     10  H   UNL     1       8.019   1.973   1.163  0.00  0.00    +0.167 HD
ATOM     11  C   UNL     1       5.921   2.391   1.181  0.00  0.00    +0.199 A 
ATOM     12  N   UNL     1       4.836   1.641   1.175  0.00  0.00    -0.218 NA
ATOM     13  C   UNL     1       5.305   0.363   1.155  0.00  0.00    +0.168 A 
ENDROOT
BRANCH   1  14
ATOM     14  C   UNL     1       3.100  -0.758   1.160  0.00  0.00    +0.128 C 
BRANCH  14  16
ATOM     15  C   UNL     1       0.994  -0.658  -0.215  0.00  0.00    +0.005 C 
ATOM     16  C   UNL     1       2.514  -0.680  -0.250  0.00  0.00    +0.018 C 
ENDBRANCH  14  16
ENDBRANCH   1  14
TORSDOF 2
