REMARK  Name = 
REMARK  12 active torsions:
REMARK  status: ('A' for Active; 'I' for Inactive)
REMARK    1  A    between atoms: C_7  and  O_8
REMARK    2  A    between atoms: C_9  and  O_10
REMARK    3  A    between atoms: C_13  and  C_14
REMARK    4  A    between atoms: N_16  and  C_17
REMARK    5  A    between atoms: C_17  and  O_18
REMARK    6  A    between atoms: C_19  and  O_20
REMARK    7  A    between atoms: C_21  and  N_23
REMARK    8  A    between atoms: N_23  and  C_24
REMARK    9  A    between atoms: N_23  and  C_25
REMARK   10  A    between atoms: C_29  and  O_30
REMARK   11  A    between atoms: C_36  and  C_37
REMARK   12  A    between atoms: C_36  and  O_38
REMARK                            x       y       z     vdW  Elec       q    Type
REMARK                         _______ _______ _______ _____ _____    ______ ____
ROOT
ATOM      1  C   UNL     1      -0.000  -0.000  -0.000  0.00  0.00    +0.061 C 
ATOM      2  C   UNL     1      -0.000  -0.000   0.000  0.00  0.00    +0.129 C 
ATOM      3  C   UNL     1      -0.000  -0.000  -0.000  0.00  0.00    +0.127 C 
ATOM      4  C   UNL     1      -0.000  -0.000  -0.000  0.00  0.00    +0.121 C 
ATOM      5  C   UNL     1      -0.000  -0.000   0.000  0.00  0.00    +0.211 C 
ATOM      6  O   UNL     1      -0.000  -0.000  -0.000  0.00  0.00    -0.288 OA
ATOM      7  C   UNL     1      -0.000  -0.000  -0.000  0.00  0.00    +0.190 C 
ATOM      8  C   UNL     1      -0.000  -0.000  -0.000  0.00  0.00    +0.141 C 
ATOM      9  C   UNL     1      -0.000  -0.000  -0.000  0.00  0.00    +0.047 C 
ATOM     10  C   UNL     1      -0.000  -0.000  -0.000  0.00  0.00    +0.197 C 
ATOM     11  O   UNL     1      -0.000  -0.000   0.000  0.00  0.00    -0.287 OA
ATOM     12  C   UNL     1      -0.000  -0.000   0.000  0.00  0.00    +0.071 A 
ATOM     13  C   UNL     1      -0.000  -0.000  -0.000  0.00  0.00    +0.017 A 
ATOM     14  C   UNL     1      -0.000  -0.000  -0.000  0.00  0.00    +0.097 C 
ATOM     15  C   UNL     1      -0.000  -0.000   0.000  0.00  0.00    +0.047 C 
ATOM     16  C   UNL     1      -0.000  -0.000  -0.000  0.00  0.00    +0.048 A 
ATOM     17 CL   UNL     1      -0.000  -0.000  -0.000  0.00  0.00    -0.083 Cl
ATOM     18  C   UNL     1      -0.000  -0.000  -0.000  0.00  0.00    +0.024 A 
ATOM     19  C   UNL     1      -0.000  -0.000  -0.000  0.00  0.00    +0.047 A 
ATOM     20  C   UNL     1      -0.000  -0.000  -0.000  0.00  0.00    +0.128 A 
ATOM     21  C   UNL     1      -0.000  -0.000  -0.000  0.00  0.00    +0.063 C 
ATOM     22  C   UNL     1      -0.000  -0.000   0.000  0.00  0.00    +0.020 C 
ENDROOT
BRANCH   4  23
ATOM     23  C   UNL     1      -0.000  -0.000  -0.000  0.00  0.00    +0.252 C 
ATOM     24  N   UNL     1      -0.000  -0.000  -0.000  0.00  0.00    -0.289 N 
ATOM     25  H   UNL     1      -0.000  -0.000  -0.000  0.00  0.00    +0.151 HD
ATOM     26  O   UNL     1      -0.000  -0.000  -0.000  0.00  0.00    -0.270 OA
BRANCH  24  27
ATOM     27  C   UNL     1      -0.000  -0.000  -0.000  0.00  0.00    +0.264 C 
BRANCH  27  28
ATOM     28  O   UNL     1      -0.000  -0.000  -0.000  0.00  0.00    -0.377 OA
ATOM     29  H   UNL     1      -0.000  -0.000  -0.000  0.00  0.00    +0.211 HD
ENDBRANCH  27  28
ENDBRANCH  24  27
ENDBRANCH   4  23
BRANCH   2  30
ATOM     30  N   UNL     1      -0.000  -0.000  -0.000  0.00  0.00    -0.299 NA
ATOM     31  C   UNL     1      -0.000  -0.000   0.000  0.00  0.00    +0.105 C 
ATOM     32  C   UNL     1      -0.000  -0.000   0.000  0.00  0.00    +0.105 C 
ENDBRANCH   2  30
BRANCH   3  33
ATOM     33  O   UNL     1      -0.000  -0.000  -0.000  0.00  0.00    -0.509 OA
ATOM     34  H   UNL     1       0.000   0.000   0.000  0.00  0.00    +0.292 HD
ENDBRANCH   3  33
BRANCH   7  35
ATOM     35  O   UNL     1      -0.000  -0.000  -0.000  0.00  0.00    -0.373 OA
ATOM     36  H   UNL     1       0.000   0.000   0.000  0.00  0.00    +0.211 HD
ENDBRANCH   7  35
BRANCH   8  37
ATOM     37  O   UNL     1      -0.000  -0.000  -0.000  0.00  0.00    -0.507 OA
ATOM     38  H   UNL     1       0.000   0.000   0.000  0.00  0.00    +0.292 HD
ENDBRANCH   8  37
BRANCH  14  39
ATOM     39  O   UNL     1      -0.000  -0.000  -0.000  0.00  0.00    -0.384 OA
ATOM     40  H   UNL     1       0.000   0.000   0.000  0.00  0.00    +0.211 HD
ENDBRANCH  14  39
BRANCH  20  41
ATOM     41  O   UNL     1      -0.000  -0.000  -0.000  0.00  0.00    -0.506 OA
ATOM     42  H   UNL     1       0.000   0.000   0.000  0.00  0.00    +0.292 HD
ENDBRANCH  20  41
TORSDOF 9
