REMARK  Name = 
REMARK  13 active torsions:
REMARK  status: ('A' for Active; 'I' for Inactive)
REMARK    1  A    between atoms: C_1  and  O_2
REMARK    2  A    between atoms: O_2  and  C_3
REMARK    3  A    between atoms: C_12  and  O_13
REMARK    4  A    between atoms: C_17  and  O_18
REMARK    5  A    between atoms: C_17  and  C_36
REMARK    6  A    between atoms: C_20  and  O_22
REMARK    7  A    between atoms: O_22  and  C_23
REMARK    8  A    between atoms: C_26  and  N_28
REMARK    9  A    between atoms: C_29  and  O_31
REMARK   10  A    between atoms: C_32  and  C_34
REMARK   11  A    between atoms: C_36  and  C_38
REMARK   12  A    between atoms: C_38  and  O_39
REMARK   13  A    between atoms: C_40  and  O_41
REMARK                            x       y       z     vdW  Elec       q    Type
REMARK                         _______ _______ _______ _____ _____    ______ ____
ROOT
ATOM      1  C   UNL     1       3.233  -0.831  -0.945  0.00  0.00    +0.132 A 
ATOM      2  C   UNL     1       3.064  -2.220  -0.753  0.00  0.00    +0.075 A 
ATOM      3  C   UNL     1       2.373  -2.784   0.427  0.00  0.00    +0.202 C 
ATOM      4  C   UNL     1       2.023  -4.228   0.475  0.00  0.00    +0.078 A 
ATOM      5  C   UNL     1       2.463  -5.092  -0.524  0.00  0.00    +0.078 A 
ATOM      6  C   UNL     1       3.372  -4.566  -1.578  0.00  0.00    +0.198 C 
ATOM      7  O   UNL     1       3.965  -5.302  -2.358  0.00  0.00    -0.286 OA
ATOM      8  C   UNL     1       2.075  -6.448  -0.476  0.00  0.00    +0.132 A 
ATOM      9  C   UNL     1       1.234  -6.951   0.542  0.00  0.00    +0.007 A 
ATOM     10  C   UNL     1       0.851  -8.422   0.563  0.00  0.00    +0.082 C 
ATOM     11  C   UNL     1      -0.325  -8.764   1.484  0.00  0.00    +0.133 C 
ATOM     12  C   UNL     1      -0.150  -8.044   2.826  0.00  0.00    +0.079 C 
ATOM     13  C   UNL     1      -0.181  -6.528   2.639  0.00  0.00    +0.158 C 
ATOM     14  C   UNL     1       0.800  -6.076   1.561  0.00  0.00    +0.030 A 
ATOM     15  C   UNL     1       1.232  -4.734   1.528  0.00  0.00    +0.134 A 
ATOM     16  O   UNL     1       2.075  -2.102   1.406  0.00  0.00    -0.286 OA
ATOM     17  C   UNL     1       3.596  -3.109  -1.689  0.00  0.00    +0.037 A 
ATOM     18  C   UNL     1       4.364  -2.631  -2.764  0.00  0.00    +0.012 A 
ATOM     19  C   UNL     1       4.592  -1.268  -2.913  0.00  0.00    +0.004 A 
ATOM     20  C   UNL     1       4.019  -0.373  -2.013  0.00  0.00    +0.046 A 
ENDROOT
BRANCH   1  22
ATOM     21  C   UNL     1       2.329   1.337  -0.549  0.00  0.00    +0.277 C 
ATOM     22  O   UNL     1       2.639   0.034  -0.061  0.00  0.00    -0.494 OA
ENDBRANCH   1  22
BRANCH   8  23
ATOM     23  O   UNL     1       2.485  -7.290  -1.476  0.00  0.00    -0.506 OA
ATOM     24  H   UNL     1       2.630  -8.187  -1.139  0.00  0.00    +0.292 HD
ENDBRANCH   8  23
BRANCH  11  25
ATOM     25  O   UNL     1      -1.555  -8.411   0.853  0.00  0.00    -0.381 OA
ATOM     26  H   UNL     1      -1.687  -7.441   0.929  0.00  0.00    +0.211 HD
ENDBRANCH  11  25
BRANCH  11  27
ATOM     27  C   UNL     1      -0.347 -10.285   1.723  0.00  0.00    +0.190 C 
ATOM     28  O   UNL     1       0.280 -10.817   2.645  0.00  0.00    -0.292 OA
BRANCH  27  29
ATOM     29  C   UNL     1      -1.099 -11.142   0.707  0.00  0.00    +0.233 C 
BRANCH  29  30
ATOM     30  O   UNL     1      -1.013 -12.529   1.014  0.00  0.00    -0.387 OA
ATOM     31  H   UNL     1      -0.283 -12.628   1.656  0.00  0.00    +0.210 HD
ENDBRANCH  29  30
ENDBRANCH  27  29
ENDBRANCH  11  27
BRANCH  15  32
ATOM     32  O   UNL     1       0.864  -3.943   2.590  0.00  0.00    -0.506 OA
ATOM     33  H   UNL     1       1.257  -3.046   2.466  0.00  0.00    +0.292 HD
ENDBRANCH  15  32
BRANCH  13  34
ATOM     34  O   UNL     1      -1.480  -6.080   2.209  0.00  0.00    -0.343 OA
BRANCH  34  35
ATOM     35  C   UNL     1      -2.558  -6.250   3.137  0.00  0.00    +0.253 C 
ATOM     36  O   UNL     1      -3.781  -5.784   2.559  0.00  0.00    -0.346 OA
ATOM     37  C   UNL     1      -3.825  -4.370   2.334  0.00  0.00    +0.148 C 
ATOM     38  C   UNL     1      -5.226  -4.041   1.816  0.00  0.00    +0.041 C 
ATOM     39  C   UNL     1      -3.530  -3.559   3.612  0.00  0.00    +0.160 C 
ATOM     40  C   UNL     1      -2.239  -4.071   4.289  0.00  0.00    +0.087 C 
ATOM     41  C   UNL     1      -2.350  -5.578   4.492  0.00  0.00    +0.082 C 
BRANCH  40  42
ATOM     42  N   UNL     1      -1.961  -3.377   5.554  0.00  0.00    -0.325 NA
ATOM     43  H   UNL     1      -2.804  -3.325   6.125  0.00  0.00    +0.119 HD
ATOM     44  H   UNL     1      -1.264  -3.888   6.095  0.00  0.00    +0.119 HD
ENDBRANCH  40  42
BRANCH  39  45
ATOM     45  O   UNL     1      -3.440  -2.167   3.297  0.00  0.00    -0.388 OA
ATOM     46  H   UNL     1      -2.501  -1.967   3.131  0.00  0.00    +0.210 HD
ENDBRANCH  39  45
ENDBRANCH  34  35
ENDBRANCH  13  34
TORSDOF 11
