REMARK  Name = 
REMARK  9 active torsions:
REMARK  status: ('A' for Active; 'I' for Inactive)
REMARK    1  A    between atoms: C_1  and  O_2
REMARK    2  A    between atoms: O_2  and  C_3
REMARK    3  A    between atoms: C_10  and  S_12
REMARK    4  A    between atoms: S_12  and  C_14
REMARK    5  A    between atoms: C_14  and  C_15
REMARK    6  A    between atoms: C_18  and  C_19
REMARK    7  A    between atoms: C_20  and  O_21
REMARK    8  A    between atoms: O_21  and  C_22
REMARK    9  A    between atoms: C_23  and  C_24
REMARK                            x       y       z     vdW  Elec       q    Type
REMARK                         _______ _______ _______ _____ _____    ______ ____
ROOT
ATOM      1  S   UNL     1       5.643  -4.061   5.395  0.00  0.00    +0.095 S 
ATOM      2  O   UNL     1       5.715  -2.828   4.535  0.00  0.00    -0.249 OA
ENDROOT
BRANCH   1   8
ATOM      3  C   UNL     1      -0.448  -5.122   4.595  0.00  0.00    +0.122 A 
ATOM      4  C   UNL     1      -0.363  -5.671   5.881  0.00  0.00    +0.048 A 
ATOM      5  C   UNL     1       0.857  -5.714   6.581  0.00  0.00    +0.033 A 
ATOM      6  C   UNL     1       1.999  -5.164   5.979  0.00  0.00    +0.090 A 
ATOM      7  N   UNL     1       3.299  -5.053   6.438  0.00  0.00    -0.220 NA
ATOM      8  C   UNL     1       3.954  -4.453   5.464  0.00  0.00    +0.198 A 
ATOM      9  N   UNL     1       3.131  -4.167   4.415  0.00  0.00    -0.331 N 
ATOM     10  H   UNL     1       3.427  -3.686   3.576  0.00  0.00    +0.168 HD
ATOM     11  C   UNL     1       1.874  -4.614   4.708  0.00  0.00    +0.070 A 
ATOM     12  C   UNL     1       0.682  -4.574   3.983  0.00  0.00    +0.073 A 
BRANCH   3  14
ATOM     13  C   UNL     1      -1.740  -5.080   2.610  0.00  0.00    +0.277 C 
ATOM     14  O   UNL     1      -1.700  -5.132   4.034  0.00  0.00    -0.495 OA
ENDBRANCH   3  14
ENDBRANCH   1   8
BRANCH   1  15
ATOM     15  C   UNL     1       5.965  -3.629   7.122  0.00  0.00    +0.167 C 
BRANCH  15  16
ATOM     16  C   UNL     1       6.217  -4.837   7.998  0.00  0.00    +0.060 A 
ATOM     17  C   UNL     1       5.653  -4.977   9.293  0.00  0.00    +0.014 A 
ATOM     18  C   UNL     1       4.730  -3.880   9.745  0.00  0.00    +0.049 C 
ATOM     19  C   UNL     1       6.012  -6.128  10.023  0.00  0.00    +0.129 A 
ATOM     20  C   UNL     1       6.905  -7.060   9.447  0.00  0.00    +0.010 A 
ATOM     21  C   UNL     1       7.313  -8.317  10.169  0.00  0.00    +0.049 C 
ATOM     22  C   UNL     1       7.417  -6.806   8.191  0.00  0.00    +0.118 A 
ATOM     23  N   UNL     1       7.107  -5.719   7.470  0.00  0.00    -0.258 NA
BRANCH  19  24
ATOM     24  O   UNL     1       5.635  -6.540  11.272  0.00  0.00    -0.494 OA
ATOM     25  C   UNL     1       4.755  -5.821  12.103  0.00  0.00    +0.277 C 
ENDBRANCH  19  24
ENDBRANCH  15  16
ENDBRANCH   1  15
TORSDOF 5
