REMARK  Name = 
REMARK  8 active torsions:
REMARK  status: ('A' for Active; 'I' for Inactive)
REMARK    1  A    between atoms: C_1  and  N_2
REMARK    2  A    between atoms: N_5  and  C_6
REMARK    3  A    between atoms: C_6  and  C_7
REMARK    4  A    between atoms: C_10  and  C_13
REMARK    5  A    between atoms: N_15  and  C_16
REMARK    6  A    between atoms: C_18  and  N_19
REMARK    7  A    between atoms: C_24  and  C_26
REMARK    8  A    between atoms: C_32  and  C_33
REMARK                            x       y       z     vdW  Elec       q    Type
REMARK                         _______ _______ _______ _____ _____    ______ ____
ROOT
ATOM      1  C   UNL     1       5.725   3.728  -9.363  0.00  0.00    +0.035 A 
ATOM      2  C   UNL     1       4.583   4.444  -9.695  0.00  0.00    +0.024 A 
ATOM      3  C   UNL     1       4.643   5.405 -10.702  0.00  0.00    +0.007 A 
ATOM      4  C   UNL     1       5.863   5.719 -11.335  0.00  0.00    -0.029 A 
ATOM      5  C   UNL     1       5.838   6.855 -12.320  0.00  0.00    +0.045 C 
ATOM      6  C   UNL     1       7.022   4.987 -11.004  0.00  0.00    +0.038 A 
ATOM      7  C   UNL     1       6.899   3.939 -10.075  0.00  0.00    +0.047 A 
ENDROOT
BRANCH   6   8
ATOM      8  N   UNL     1       8.298   5.350 -11.470  0.00  0.00    -0.283 N 
ATOM      9  H   UNL     1       8.374   5.967 -12.260  0.00  0.00    +0.155 HD
ATOM     10  C   UNL     1       9.525   5.280 -10.805  0.00  0.00    +0.220 A 
ATOM     11  N   UNL     1       9.587   4.827  -9.544  0.00  0.00    -0.214 NA
ATOM     12  C   UNL     1      10.766   4.807  -8.892  0.00  0.00    +0.077 A 
ATOM     13  C   UNL     1      11.915   5.243  -9.512  0.00  0.00    +0.048 A 
ATOM     14  C   UNL     1      11.773   5.685 -10.807  0.00  0.00    +0.116 A 
ATOM     15  N   UNL     1      10.600   5.724 -11.466  0.00  0.00    -0.223 NA
BRANCH  12  16
ATOM     16  C   UNL     1      10.696   4.295  -7.510  0.00  0.00    +0.019 A 
ATOM     17  C   UNL     1       9.505   4.349  -6.762  0.00  0.00    +0.013 A 
ATOM     18  C   UNL     1       9.446   3.851  -5.461  0.00  0.00    +0.020 A 
ATOM     19  C   UNL     1      10.592   3.291  -4.936  0.00  0.00    +0.111 A 
ATOM     20  N   UNL     1      11.758   3.200  -5.601  0.00  0.00    -0.263 NA
ATOM     21  C   UNL     1      11.773   3.697  -6.863  0.00  0.00    +0.120 A 
ENDBRANCH  12  16
ENDBRANCH   6   8
BRANCH   1  23
ATOM     22  C   UNL     1       5.229   3.161  -7.049  0.00  0.00    +0.248 C 
ATOM     23  N   UNL     1       5.775   2.833  -8.278  0.00  0.00    -0.281 N 
ATOM     24  H   UNL     1       6.566   2.203  -8.256  0.00  0.00    +0.155 HD
ATOM     25  O   UNL     1       4.688   4.232  -6.784  0.00  0.00    -0.270 OA
BRANCH  22  29
ATOM     26  C   UNL     1       4.957   0.210  -3.985  0.00  0.00    -0.033 A 
ATOM     27  C   UNL     1       5.424  -0.171  -5.251  0.00  0.00    +0.005 A 
ATOM     28  C   UNL     1       5.609   0.787  -6.249  0.00  0.00    +0.013 A 
ATOM     29  C   UNL     1       5.344   2.135  -5.975  0.00  0.00    +0.037 A 
ATOM     30  C   UNL     1       5.015   2.527  -4.670  0.00  0.00    +0.013 A 
ATOM     31  C   UNL     1       4.826   1.570  -3.678  0.00  0.00    +0.005 A 
BRANCH  26  32
ATOM     32  C   UNL     1       4.396  -0.829  -3.035  0.00  0.00    +0.119 C 
BRANCH  32  37
ATOM     33  C   UNL     1       0.199  -3.199  -3.608  0.00  0.00    +0.105 C 
ATOM     34  N   UNL     1       1.649  -3.265  -3.758  0.00  0.00    -0.303 NA
ATOM     35  C   UNL     1       2.336  -3.111  -2.460  0.00  0.00    +0.099 C 
ATOM     36  C   UNL     1       2.401  -1.664  -1.910  0.00  0.00    +0.100 C 
ATOM     37  N   UNL     1       2.934  -0.674  -2.865  0.00  0.00    -0.296 NA
ATOM     38  C   UNL     1       2.178  -0.801  -4.133  0.00  0.00    +0.100 C 
ATOM     39  C   UNL     1       2.128  -2.234  -4.709  0.00  0.00    +0.099 C 
ENDBRANCH  32  37
ENDBRANCH  26  32
ENDBRANCH  22  29
ENDBRANCH   1  23
TORSDOF 6
