REMARK  Name = 
REMARK  24 active torsions:
REMARK  status: ('A' for Active; 'I' for Inactive)
REMARK    1  A    between atoms: CG2_1  and  CB_2
REMARK    2  A    between atoms: CB_2  and  OG1_4
REMARK    3  A    between atoms: CB_2  and  CA_5
REMARK    4  A    between atoms: CA_5  and  C_7
REMARK    5  A    between atoms: CA_5  and  N_9
REMARK    6  A    between atoms: C_7  and  O_8
REMARK    7  A    between atoms: C_10  and  CA_12
REMARK    8  A    between atoms: CA_18  and  N_20
REMARK    9  A    between atoms: C_21  and  CA_23
REMARK   10  A    between atoms: CA_23  and  N_25
REMARK   11  A    between atoms: CA_23  and  CB_26
REMARK   12  A    between atoms: CB_26  and  CG_27
REMARK   13  A    between atoms: CA_36  and  CB_38
REMARK   14  A    between atoms: CB_38  and  CG_39
REMARK   15  A    between atoms: CA_48  and  CB_50
REMARK   16  A    between atoms: CB_50  and  CG_51
REMARK   17  A    between atoms: CA_63  and  CB_65
REMARK   18  A    between atoms: CB_65  and  CG_66
REMARK   19  A    between atoms: CG_66  and  CD_67
REMARK   20  A    between atoms: CD_67  and  CE_68
REMARK   21  A    between atoms: CE_68  and  NZ_69
REMARK   22  A    between atoms: CA_73  and  CB_75
REMARK   23  A    between atoms: CB_75  and  CG2_76
REMARK   24  A    between atoms: CB_75  and  OG1_77
REMARK                            x       y       z     vdW  Elec       q    Type
REMARK                         _______ _______ _______ _____ _____    ______ ____
ROOT
ATOM      1  CA  CYS A   7      10.769  -8.065  -0.209  0.00  0.00    +0.169 C 
ATOM      2  N   CYS A   7       9.763 -10.065   0.635  0.00  0.00    -0.302 N 
ATOM      3  H   CYS A   7       9.364  -9.558   1.411  0.00  0.00    +0.150 HD
ATOM      4  C   THR A   6       9.031 -12.084   1.285  0.00  0.00    +0.237 C 
ATOM      5  O   THR A   6       7.774 -12.101   1.755  0.00  0.00    -0.274 OA
ATOM      6  CA  THR A   6       8.031 -14.230   2.166  0.00  0.00    +0.187 C 
ATOM      7  N   THR A   6       7.846 -15.710   3.567  0.00  0.00    -0.300 N 
ATOM      8  H   THR A   6       6.824 -15.758   3.926  0.00  0.00    +0.150 HD
ATOM      9  C   LYS A   5       8.484 -17.217   4.464  0.00  0.00    +0.234 C 
ATOM     10  O   LYS A   5       9.440 -17.988   4.261  0.00  0.00    -0.274 OA
ATOM     11  CA  LYS A   5       7.285 -17.051   5.708  0.00  0.00    +0.159 C 
ATOM     12  N   LYS A   5       8.475 -15.930   5.760  0.00  0.00    -0.302 N 
ATOM     13  H   LYS A   5       9.144 -15.941   4.978  0.00  0.00    +0.150 HD
ATOM     14  C   TRP A   4       8.494 -14.729   5.150  0.00  0.00    +0.234 C 
ATOM     15  O   TRP A   4       7.473 -14.065   5.346  0.00  0.00    -0.274 OA
ATOM     16  CA  TRP A   4       9.634 -14.770   3.527  0.00  0.00    +0.163 C 
ATOM     17  N   TRP A   4       9.503 -13.446   4.003  0.00  0.00    -0.302 N 
ATOM     18  H   TRP A   4       8.563 -13.058   4.226  0.00  0.00    +0.150 HD
ATOM     19  C   PHE A   3      10.281 -12.639   3.362  0.00  0.00    +0.234 C 
ATOM     20  O   PHE A   3      11.159 -13.152   2.653  0.00  0.00    -0.274 OA
ATOM     21  CA  PHE A   3       9.776 -11.185   3.428  0.00  0.00    +0.163 C 
ATOM     22  N   PHE A   3      10.948 -10.910   2.685  0.00  0.00    -0.302 N 
ATOM     23  H   PHE A   3      11.224 -11.426   1.832  0.00  0.00    +0.150 HD
ATOM     24  C   CYS A   2      11.467  -9.741   2.943  0.00  0.00    +0.235 C 
ATOM     25  O   CYS A   2      11.350  -9.239   4.052  0.00  0.00    -0.274 OA
ATOM     26  CA  CYS A   2      11.940  -9.095   1.701  0.00  0.00    +0.169 C 
ATOM     27  CB  CYS A   2      11.541  -7.452   2.315  0.00  0.00    +0.112 C 
ATOM     28  SG  CYS A   2      13.241  -6.933   2.560  0.00  0.00    -0.091 S 
ATOM     29  SG  CYS A   7      12.836  -5.537   1.284  0.00  0.00    -0.091 S 
ATOM     30  CB  CYS A   7      12.703  -7.203  -0.263  0.00  0.00    +0.112 C 
ENDROOT
BRANCH   1  33
ATOM     31  N   THR A   8      12.999  -4.241  -1.531  0.00  0.00    -0.306 N 
ATOM     32  H   THR A   8      12.608  -3.510  -0.895  0.00  0.00    +0.149 HD
ATOM     33  C   CYS A   7      11.749  -5.825  -0.856  0.00  0.00    +0.235 C 
ATOM     34  O   CYS A   7      10.928  -4.928  -0.501  0.00  0.00    -0.274 OA
BRANCH  31  35
ATOM     35  CA  THR A   8      14.096  -2.324  -2.148  0.00  0.00    +0.126 C 
BRANCH  35  37
ATOM     36  CG2 THR A   8      15.790   1.486  -2.904  0.00  0.00    +0.039 C 
ATOM     37  CB  THR A   8      15.354  -0.431  -2.088  0.00  0.00    +0.134 C 
BRANCH  37  38
ATOM     38  OG1 THR A   8      16.187   0.592  -0.876  0.00  0.00    -0.390 OA
ATOM     39  HG1 THR A   8      16.837   1.368  -1.238  0.00  0.00    +0.210 HD
ENDBRANCH  37  38
ENDBRANCH  35  37
BRANCH  35  40
ATOM     40  C   THR A   8      14.925  -1.452  -3.860  0.00  0.00    +0.180 C 
BRANCH  40  41
ATOM     41  O   THR A   8      15.412   0.141  -4.516  0.00  0.00    -0.393 OA
ATOM     42  H   THR A   8      14.921   0.982  -4.804  0.00  0.00    +0.209 HD
ENDBRANCH  40  41
ENDBRANCH  35  40
ENDBRANCH  31  35
ENDBRANCH   1  33
BRANCH  26  43
ATOM     43  N   CYS A   2      11.730  -9.869   0.089  0.00  0.00    -0.302 N 
ATOM     44  H   CYS A   2      10.721  -9.925  -0.262  0.00  0.00    +0.150 HD
ATOM     45  C   PHE A   1      12.413  -9.955  -1.086  0.00  0.00    +0.231 C 
ATOM     46  O   PHE A   1      13.630  -9.976  -1.029  0.00  0.00    -0.274 OA
BRANCH  45  47
ATOM     47  CA  PHE A   1      11.583 -10.116  -2.445  0.00  0.00    +0.142 C 
BRANCH  47  48
ATOM     48  N   PHE A   1      10.439  -9.149  -2.692  0.00  0.00    -0.320 NA
ATOM     49  H1  PHE A   1      10.768  -8.208  -2.912  0.00  0.00    +0.119 HD
ATOM     50  H2  PHE A   1      10.001  -9.416  -3.599  0.00  0.00    +0.119 HD
ENDBRANCH  47  48
BRANCH  47  51
ATOM     51  CB  PHE A   1      11.056 -11.552  -2.367  0.00  0.00    +0.063 C 
BRANCH  51  52
ATOM     52  CG  PHE A   1      10.434 -11.989  -3.648  0.00  0.00    -0.045 A 
ATOM     53  CD2 PHE A   1       9.064 -12.231  -3.664  0.00  0.00    +0.004 A 
ATOM     54  CE2 PHE A   1       8.430 -12.368  -4.880  0.00  0.00    +0.000 A 
ATOM     55  CZ  PHE A   1       9.137 -12.162  -6.065  0.00  0.00    +0.000 A 
ATOM     56  CE1 PHE A   1      10.521 -12.040  -6.047  0.00  0.00    +0.000 A 
ATOM     57  CD1 PHE A   1      11.182 -12.019  -4.830  0.00  0.00    +0.004 A 
ENDBRANCH  51  52
ENDBRANCH  47  51
ENDBRANCH  45  47
ENDBRANCH  26  43
BRANCH   6  58
ATOM     58  CB  THR A   6       7.629 -16.586   2.542  0.00  0.00    +0.141 C 
ATOM     59  CG2 THR A   6       7.299 -18.501   3.604  0.00  0.00    +0.040 C 
BRANCH  58  60
ATOM     60  OG1 THR A   6       7.537 -18.318   1.869  0.00  0.00    -0.390 OA
ATOM     61  HG1 THR A   6       7.788 -19.302   2.199  0.00  0.00    +0.210 HD
ENDBRANCH  58  60
ENDBRANCH   6  58
BRANCH  16  62
ATOM     62  CB  TRP A   4       9.492 -15.079   1.531  0.00  0.00    +0.069 C 
BRANCH  62  63
ATOM     63  CG  TRP A   4       9.652 -16.400   1.163  0.00  0.00    -0.020 A 
ATOM     64  CD2 TRP A   4       8.811 -17.246   0.391  0.00  0.00    +0.003 A 
ATOM     65  CE3 TRP A   4       7.392 -17.336  -0.029  0.00  0.00    +0.010 A 
ATOM     66  CZ3 TRP A   4       7.055 -18.325  -0.914  0.00  0.00    +0.001 A 
ATOM     67  CH2 TRP A   4       8.105 -19.041  -1.469  0.00  0.00    +0.002 A 
ATOM     68  CZ2 TRP A   4       9.465 -18.894  -1.096  0.00  0.00    +0.026 A 
ATOM     69  CE2 TRP A   4       9.797 -18.050  -0.073  0.00  0.00    +0.047 A 
ATOM     70  NE1 TRP A   4      11.015 -17.674   0.488  0.00  0.00    -0.360 N 
ATOM     71  HE1 TRP A   4      11.910 -17.802   0.088  0.00  0.00    +0.165 HD
ATOM     72  CD1 TRP A   4      10.901 -16.741   1.426  0.00  0.00    +0.087 A 
ENDBRANCH  62  63
ENDBRANCH  16  62
BRANCH  21  73
ATOM     73  CB  PHE A   3       8.284 -10.370   2.928  0.00  0.00    +0.067 C 
BRANCH  73  74
ATOM     74  CG  PHE A   3       7.122 -10.636   3.828  0.00  0.00    -0.045 A 
ATOM     75  CD2 PHE A   3       5.822 -10.920   3.363  0.00  0.00    +0.004 A 
ATOM     76  CE2 PHE A   3       4.817 -11.182   4.281  0.00  0.00    +0.000 A 
ATOM     77  CZ  PHE A   3       5.151 -11.345   5.622  0.00  0.00    +0.000 A 
ATOM     78  CE1 PHE A   3       6.441 -11.080   6.066  0.00  0.00    +0.000 A 
ATOM     79  CD1 PHE A   3       7.392 -10.629   5.181  0.00  0.00    +0.004 A 
ENDBRANCH  73  74
ENDBRANCH  21  73
BRANCH  11  80
ATOM     80  CB  LYS A   5       5.475 -16.939   5.193  0.00  0.00    +0.032 C 
BRANCH  80  81
ATOM     81  CG  LYS A   5       4.520 -17.919   5.989  0.00  0.00    +0.003 C 
BRANCH  81  82
ATOM     82  CD  LYS A   5       2.975 -18.042   5.718  0.00  0.00    +0.015 C 
BRANCH  82  83
ATOM     83  CE  LYS A   5       2.387 -19.078   6.713  0.00  0.00    +0.077 C 
BRANCH  83  84
ATOM     84  NZ  LYS A   5       0.944 -19.233   6.560  0.00  0.00    -0.330 NA
ATOM     85  HZ1 LYS A   5       0.596 -19.898   7.254  0.00  0.00    +0.118 HD
ATOM     86  HZ2 LYS A   5       0.481 -18.349   6.764  0.00  0.00    +0.118 HD
ENDBRANCH  83  84
ENDBRANCH  82  83
ENDBRANCH  81  82
ENDBRANCH  80  81
ENDBRANCH  11  80
TORSDOF 22
