REMARK  Name = 
REMARK  9 active torsions:
REMARK  status: ('A' for Active; 'I' for Inactive)
REMARK    1  A    between atoms: C_1  and  C_2
REMARK    2  A    between atoms: C_2  and  N_3
REMARK    3  A    between atoms: C_7  and  C_9
REMARK    4  A    between atoms: C_9  and  N_10
REMARK    5  A    between atoms: C_11  and  C_13
REMARK    6  A    between atoms: C_14  and  O_15
REMARK    7  A    between atoms: O_15  and  C_16
REMARK    8  A    between atoms: C_21  and  O_22
REMARK    9  A    between atoms: O_22  and  C_23
REMARK                            x       y       z     vdW  Elec       q    Type
REMARK                         _______ _______ _______ _____ _____    ______ ____
ROOT
ATOM      1  N   UNL     1       2.394  -1.801   1.746  0.00  0.00    -0.310 N 
ATOM      2  H   UNL     1       3.255  -1.343   1.469  0.00  0.00    +0.149 HD
ATOM      3  C   UNL     1       1.843  -1.443   2.969  0.00  0.00    +0.251 C 
ATOM      4  O   UNL     1       0.741  -1.864   3.308  0.00  0.00    -0.270 OA
ENDROOT
BRANCH   3   5
ATOM      5  C   UNL     1       2.684  -0.528   3.862  0.00  0.00    +0.121 A 
ATOM      6  C   UNL     1       3.659   0.379   3.328  0.00  0.00    +0.150 A 
ATOM      7  C   UNL     1       4.380   1.211   4.214  0.00  0.00    +0.060 A 
ATOM      8 BR   UNL     1       5.610   2.588   3.741  0.00  0.00    -0.046 Br
ATOM      9  C   UNL     1       4.168   1.126   5.591  0.00  0.00    +0.022 A 
ATOM     10  C   UNL     1       3.231   0.245   6.111  0.00  0.00    +0.048 A 
ATOM     11  C   UNL     1       2.491  -0.591   5.269  0.00  0.00    +0.136 A 
BRANCH   6  12
ATOM     12  O   UNL     1       3.741   0.427   1.956  0.00  0.00    -0.493 OA
ATOM     13  C   UNL     1       4.994   0.698   1.337  0.00  0.00    +0.277 C 
ENDBRANCH   6  12
BRANCH  11  14
ATOM     14  O   UNL     1       1.554  -1.454   5.779  0.00  0.00    -0.494 OA
ATOM     15  C   UNL     1       1.710  -1.872   7.132  0.00  0.00    +0.277 C 
ENDBRANCH  11  14
ENDBRANCH   3   5
BRANCH   1  16
ATOM     16  C   UNL     1       1.750  -2.692   0.785  0.00  0.00    +0.123 C 
BRANCH  16  18
ATOM     17  N   UNL     1       1.589  -5.190   0.060  0.00  0.00    -0.298 NA
ATOM     18  C   UNL     1       2.113  -4.185   1.011  0.00  0.00    +0.074 C 
ATOM     19  C   UNL     1       3.639  -4.399   0.933  0.00  0.00    +0.022 C 
ATOM     20  C   UNL     1       3.865  -5.433  -0.160  0.00  0.00    +0.017 C 
ATOM     21  C   UNL     1       2.592  -5.386  -0.979  0.00  0.00    +0.085 C 
BRANCH  17  23
ATOM     22  C   UNL     1      -0.307  -6.247  -1.114  0.00  0.00    +0.020 C 
ATOM     23  C   UNL     1       0.230  -4.991  -0.427  0.00  0.00    +0.081 C 
ENDBRANCH  17  23
ENDBRANCH  16  18
ENDBRANCH   1  16
TORSDOF 6
