REMARK  Name = 
REMARK  13 active torsions:
REMARK  status: ('A' for Active; 'I' for Inactive)
REMARK    1  A    between atoms: C_3  and  O_30
REMARK    2  A    between atoms: C_6  and  C_8
REMARK    3  A    between atoms: C_13  and  C_15
REMARK    4  A    between atoms: C_16  and  C_18
REMARK    5  A    between atoms: C_18  and  C_19
REMARK    6  A    between atoms: C_19  and  C_20
REMARK    7  A    between atoms: C_23  and  O_25
REMARK    8  A    between atoms: O_30  and  C_31
REMARK    9  A    between atoms: C_31  and  C_33
REMARK   10  A    between atoms: C_33  and  C_34
REMARK   11  A    between atoms: C_33  and  C_35
REMARK   12  A    between atoms: C_33  and  C_36
REMARK   13  A    between atoms: C_36  and  C_37
REMARK                            x       y       z     vdW  Elec       q    Type
REMARK                         _______ _______ _______ _____ _____    ______ ____
ROOT
ATOM      1  C   UNL     1       3.017   3.524   5.629  0.00  0.00    +0.063 C 
ATOM      2  C   UNL     1       1.566   3.856   5.067  0.00  0.00    +0.007 C 
ATOM      3  C   UNL     1       0.417   3.411   6.060  0.00  0.00    +0.012 C 
ATOM      4  C   UNL     1      -0.025   1.938   6.125  0.00  0.00    +0.012 C 
ATOM      5  C   UNL     1       0.751   3.731   7.487  0.00  0.00    -0.023 C 
ATOM      6  C   UNL     1       1.993   3.831   7.962  0.00  0.00    -0.000 C 
ATOM      7  C   UNL     1       3.175   3.770   7.134  0.00  0.00    -0.044 C 
ATOM      8  C   UNL     1       4.367   3.955   7.735  0.00  0.00    -0.020 C 
ATOM      9  C   UNL     1       5.671   4.112   7.013  0.00  0.00    +0.012 C 
ATOM     10  C   UNL     1       6.588   5.091   7.770  0.00  0.00    +0.012 C 
ATOM     11  C   UNL     1       5.430   4.696   5.631  0.00  0.00    +0.052 C 
ATOM     12  C   UNL     1       4.244   4.112   4.841  0.00  0.00    +0.185 C 
ENDROOT
BRANCH   2  13
ATOM     13  C   UNL     1       1.298   3.483   3.547  0.00  0.00    +0.008 C 
BRANCH  13  14
ATOM     14  C   UNL     1       0.943   2.019   3.338  0.00  0.00    +0.045 C 
BRANCH  14  15
ATOM     15  C   UNL     1       0.708   1.343   1.995  0.00  0.00    +0.179 C 
ATOM     16  O   UNL     1      -0.597   1.651   1.487  0.00  0.00    -0.461 OA
ATOM     17  C   UNL     1      -1.045   0.800   0.524  0.00  0.00    +0.310 C 
ATOM     18  O   UNL     1      -2.209   0.419   0.489  0.00  0.00    -0.251 OA
ATOM     19  C   UNL     1      -0.059   0.509  -0.596  0.00  0.00    +0.152 C 
ATOM     20  C   UNL     1       1.407   0.487  -0.177  0.00  0.00    +0.129 C 
ATOM     21  C   UNL     1       1.732   1.523   0.902  0.00  0.00    +0.076 C 
BRANCH  20  22
ATOM     22  O   UNL     1       1.804  -0.826   0.240  0.00  0.00    -0.391 OA
ATOM     23  H   UNL     1       1.348  -1.091   1.056  0.00  0.00    +0.210 HD
ENDBRANCH  20  22
ENDBRANCH  14  15
ENDBRANCH  13  14
ENDBRANCH   2  13
BRANCH  12  24
ATOM     24  O   UNL     1       3.913   5.058   3.798  0.00  0.00    -0.460 OA
BRANCH  24  25
ATOM     25  C   UNL     1       3.514   6.311   4.142  0.00  0.00    +0.313 C 
ATOM     26  O   UNL     1       3.324   6.701   5.288  0.00  0.00    -0.250 OA
BRANCH  25  27
ATOM     27  C   UNL     1       3.245   7.179   2.921  0.00  0.00    +0.062 C 
ATOM     28  C   UNL     1       1.743   7.496   3.005  0.00  0.00    +0.022 C 
ATOM     29  C   UNL     1       3.579   6.462   1.600  0.00  0.00    +0.022 C 
BRANCH  27  30
ATOM     30  C   UNL     1       4.099   8.464   3.050  0.00  0.00    +0.014 C 
ATOM     31  C   UNL     1       3.890   9.463   1.918  0.00  0.00    +0.005 C 
ENDBRANCH  27  30
ENDBRANCH  25  27
ENDBRANCH  24  25
ENDBRANCH  12  24
TORSDOF 8
