REMARK  Name = 
REMARK  5 active torsions:
REMARK  status: ('A' for Active; 'I' for Inactive)
REMARK    1  A    between atoms: N_6  and  C1*_9
REMARK    2  A    between atoms: C4*_12  and  C5*_14
REMARK    3  A    between atoms: C5*_14  and  O5*_15
REMARK    4  A    between atoms: C3*_16  and  O3*_18
REMARK    5  A    between atoms: C2*_19  and  O2*_21
REMARK                            x       y       z     vdW  Elec       q    Type
REMARK                         _______ _______ _______ _____ _____    ______ ____
ROOT
ATOM      1  C1* UNL     1       6.876   0.023  -0.010  0.00  0.00    +0.256 C 
ATOM      2  C2* UNL     1       7.366  -1.110   0.921  0.00  0.00    +0.195 C 
ATOM      3  C3* UNL     1       8.623  -0.559   1.599  0.00  0.00    +0.178 C 
ATOM      4  C4* UNL     1       8.654   0.918   1.226  0.00  0.00    +0.177 C 
ATOM      5  O4* UNL     1       7.366   1.223   0.634  0.00  0.00    -0.346 OA
ENDROOT
BRANCH   1  12
ATOM      6  N   UNL     1       8.414   0.529  -5.180  0.00  0.00    -0.327 N 
ATOM      7  H   UNL     1       7.972   1.285  -5.687  0.00  0.00    +0.145 HD
ATOM      8  H   UNL     1       8.554  -0.316  -5.717  0.00  0.00    +0.145 HD
ATOM      9  C   UNL     1       7.886   0.311  -3.955  0.00  0.00    +0.218 A 
ATOM     10  N   UNL     1       7.269   1.359  -3.354  0.00  0.00    -0.205 NA
ATOM     11  C   UNL     1       7.025   1.221  -2.102  0.00  0.00    +0.209 A 
ATOM     12  N   UNL     1       7.304   0.090  -1.395  0.00  0.00    -0.253 N 
ATOM     13  C   UNL     1       7.427  -1.025  -2.174  0.00  0.00    +0.355 A 
ATOM     14  O   UNL     1       7.062  -2.127  -1.787  0.00  0.00    -0.244 OA
ATOM     15  N   UNL     1       7.966  -0.855  -3.418  0.00  0.00    -0.159 NA
ENDBRANCH   1  12
BRANCH   2  16
ATOM     16  O2* UNL     1       6.378  -1.402   1.938  0.00  0.00    -0.385 OA
ATOM     17  H2* UNL     1       5.867  -0.595   2.127  0.00  0.00    +0.210 HD
ENDBRANCH   2  16
BRANCH   3  18
ATOM     18  O3* UNL     1       8.588  -0.692   3.024  0.00  0.00    -0.386 OA
ATOM     19  H3* UNL     1       7.650  -0.773   3.284  0.00  0.00    +0.210 HD
ENDBRANCH   3  18
BRANCH   4  20
ATOM     20  C5* UNL     1       9.793   1.213   0.237  0.00  0.00    +0.190 C 
BRANCH  20  21
ATOM     21  O5* UNL     1       9.796   2.588  -0.129  0.00  0.00    -0.392 OA
ATOM     22  H5* UNL     1       8.904   2.801  -0.456  0.00  0.00    +0.210 HD
ENDBRANCH  20  21
ENDBRANCH   4  20
TORSDOF 5
