REMARK  Name = 
REMARK  6 active torsions:
REMARK  status: ('A' for Active; 'I' for Inactive)
REMARK    1  A    between atoms: C_1  and  C_2
REMARK    2  A    between atoms: C_2  and  C_3
REMARK    3  A    between atoms: C_2  and  C_6
REMARK    4  A    between atoms: C_3  and  O_4
REMARK    5  A    between atoms: C_9  and  C_12
REMARK    6  A    between atoms: C_12  and  C_14
REMARK                            x       y       z     vdW  Elec       q    Type
REMARK                         _______ _______ _______ _____ _____    ______ ____
ROOT
ATOM      1  C   UNL     1       3.079  -1.407  -0.388  0.00  0.00    -0.034 A 
ATOM      2  C   UNL     1       2.687  -2.528   0.359  0.00  0.00    +0.005 A 
ATOM      3  C   UNL     1       3.012  -3.816  -0.067  0.00  0.00    +0.012 A 
ATOM      4  C   UNL     1       3.679  -4.020  -1.281  0.00  0.00    +0.023 A 
ATOM      5  C   UNL     1       4.116  -2.904  -2.006  0.00  0.00    +0.012 A 
ATOM      6  C   UNL     1       3.822  -1.611  -1.562  0.00  0.00    +0.005 A 
ENDROOT
BRANCH   1   8
ATOM      7  C   UNL     1       1.324   0.331  -0.700  0.00  0.00    +0.024 C 
ATOM      8  C   UNL     1       2.647   0.000  -0.003  0.00  0.00    +0.124 C 
BRANCH   8   9
ATOM      9  C   UNL     1       2.535   0.238   1.501  0.00  0.00    +0.312 C 
ATOM     10  O   UNL     1       1.540   0.658   2.073  0.00  0.00    -0.250 OA
BRANCH   9  11
ATOM     11  O   UNL     1       3.676  -0.035   2.179  0.00  0.00    -0.480 OA
ATOM     12  H   UNL     1       4.391  -0.388   1.611  0.00  0.00    +0.295 HD
ENDBRANCH   9  11
ENDBRANCH   8   9
ENDBRANCH   1   8
BRANCH   4  13
ATOM     13  C   UNL     1       3.967  -5.388  -1.816  0.00  0.00    +0.200 C 
ATOM     14  O   UNL     1       4.989  -5.512  -2.495  0.00  0.00    -0.286 OA
BRANCH  13  15
ATOM     15  C   UNL     1       3.106  -6.524  -1.505  0.00  0.00    +0.059 A 
ATOM     16  S   UNL     1       1.407  -6.380  -1.302  0.00  0.00    -0.093 S 
ATOM     17  C   UNL     1       1.248  -8.025  -0.871  0.00  0.00    +0.046 A 
ATOM     18  C   UNL     1       2.432  -8.709  -1.019  0.00  0.00    +0.008 A 
ATOM     19  C   UNL     1       3.494  -7.850  -1.426  0.00  0.00    +0.019 A 
ENDBRANCH  13  15
ENDBRANCH   4  13
TORSDOF 5
