REMARK  Name = 
REMARK  4 active torsions:
REMARK  status: ('A' for Active; 'I' for Inactive)
REMARK    1  A    between atoms: C_1  and  N_2
REMARK    2  A    between atoms: C_5  and  N_17
REMARK    3  A    between atoms: C_6  and  S_7
REMARK    4  A    between atoms: S_7  and  C_8
REMARK                            x       y       z     vdW  Elec       q    Type
REMARK                         _______ _______ _______ _____ _____    ______ ____
ROOT
ATOM      1  S   UNL     1       2.315  -2.460   0.426  0.00  0.00    -0.041 S 
ENDROOT
BRANCH   1   2
ATOM      2  C   UNL     1       0.876  -2.500  -0.603  0.00  0.00    +0.132 A 
ATOM      3  C   UNL     1       0.468  -3.665  -1.251  0.00  0.00    +0.118 A 
ATOM      4  N   UNL     1       0.958  -4.939  -1.403  0.00  0.00    -0.341 N 
ATOM      5  H   UNL     1       1.797  -5.317  -0.984  0.00  0.00    +0.167 HD
ATOM      6  C   UNL     1       0.084  -5.636  -2.197  0.00  0.00    +0.199 A 
ATOM      7  N   UNL     1      -0.968  -4.917  -2.507  0.00  0.00    -0.216 NA
ATOM      8  C   UNL     1      -0.755  -3.707  -1.905  0.00  0.00    +0.182 A 
ATOM      9  N   UNL     1      -1.631  -2.693  -1.904  0.00  0.00    -0.214 NA
ATOM     10  C   UNL     1      -1.202  -1.641  -1.206  0.00  0.00    +0.224 A 
ATOM     11  N   UNL     1      -0.013  -1.485  -0.584  0.00  0.00    -0.227 NA
ENDBRANCH   1   2
BRANCH   1  14
ATOM     12  C   UNL     1       1.366   0.788   0.536  0.00  0.00    +0.151 C 
ATOM     13  N   UNL     1       2.696   0.311   0.235  0.00  0.00    -0.323 N 
ATOM     14  C   UNL     1       3.198  -0.971   0.121  0.00  0.00    +0.182 A 
ATOM     15  C   UNL     1       4.572  -0.765  -0.029  0.00  0.00    +0.399 A 
ATOM     16  N   UNL     1       4.886   0.581  -0.065  0.00  0.00    -0.170 NA
ATOM     17  C   UNL     1       3.743   1.193   0.101  0.00  0.00    +0.206 A 
BRANCH  15  18
ATOM     18  N   UNL     1       5.663  -1.723  -0.072  0.00  0.00    +0.103 N 
ATOM     19  O   UNL     1       6.819  -1.276  -0.019  0.00  0.00    +0.043 OA
ATOM     20  O   UNL     1       5.370  -2.922  -0.154  0.00  0.00    -0.575 OA
ENDBRANCH  15  18
ENDBRANCH   1  14
TORSDOF 3
