REMARK  Name = 
REMARK  10 active torsions:
REMARK  status: ('A' for Active; 'I' for Inactive)
REMARK    1  A    between atoms: C_1  and  C_2
REMARK    2  A    between atoms: C_2  and  C_3
REMARK    3  A    between atoms: C_2  and  C_4
REMARK    4  A    between atoms: C_2  and  N_5
REMARK    5  A    between atoms: N_5  and  C_6
REMARK    6  A    between atoms: C_6  and  C_7
REMARK    7  A    between atoms: C_7  and  O_8
REMARK    8  A    between atoms: C_7  and  C_9
REMARK    9  A    between atoms: C_9  and  O_10
REMARK   10  A    between atoms: O_10  and  C_11
REMARK                            x       y       z     vdW  Elec       q    Type
REMARK                         _______ _______ _______ _____ _____    ______ ____
ROOT
ATOM      1  O   UNL     1       6.977  -2.968   3.078  0.00  0.00    -0.489 OA
ENDROOT
BRANCH   1   2
ATOM      2  C   UNL     1       8.340  -2.982   3.243  0.00  0.00    +0.126 A 
ATOM      3  C   UNL     1       8.840  -3.765   4.303  0.00  0.00    +0.016 A 
ATOM      4  C   UNL     1       7.925  -4.547   5.216  0.00  0.00    +0.050 C 
ATOM      5  C   UNL     1       8.653  -5.663   5.954  0.00  0.00    +0.101 C 
ATOM      6  C   UNL     1       9.979  -5.215   6.512  0.00  0.00    +0.218 C 
ATOM      7  N   UNL     1      10.717  -4.386   5.716  0.00  0.00    -0.285 N 
ATOM      8  H   UNL     1      11.664  -4.209   6.023  0.00  0.00    +0.155 HD
ATOM      9  O   UNL     1      10.439  -5.657   7.564  0.00  0.00    -0.275 OA
ATOM     10  C   UNL     1      10.213  -3.729   4.589  0.00  0.00    +0.040 A 
ATOM     11  C   UNL     1      11.092  -2.991   3.799  0.00  0.00    +0.024 A 
ATOM     12  C   UNL     1      10.602  -2.272   2.714  0.00  0.00    +0.005 A 
ATOM     13  C   UNL     1       9.233  -2.259   2.444  0.00  0.00    +0.046 A 
ENDBRANCH   1   2
BRANCH   1  14
ATOM     14  C   UNL     1       6.447  -2.030   2.126  0.00  0.00    +0.261 C 
BRANCH  14  15
ATOM     15  C   UNL     1       4.914  -2.138   2.099  0.00  0.00    +0.166 C 
BRANCH  15  16
ATOM     16  O   UNL     1       4.378  -1.781   3.381  0.00  0.00    -0.387 OA
ATOM     17  H   UNL     1       4.874  -2.300   4.041  0.00  0.00    +0.210 HD
ENDBRANCH  15  16
BRANCH  15  18
ATOM     18  C   UNL     1       4.491  -3.575   1.739  0.00  0.00    +0.116 C 
BRANCH  18  19
ATOM     19  N   UNL     1       3.034  -3.698   1.610  0.00  0.00    -0.309 NA
ATOM     20  H   UNL     1       2.606  -3.311   2.456  0.00  0.00    +0.123 HD
BRANCH  19  22
ATOM     21  C   UNL     1       2.952  -6.049   2.471  0.00  0.00    +0.027 C 
ATOM     22  C   UNL     1       2.544  -5.067   1.359  0.00  0.00    +0.011 C 
ATOM     23  C   UNL     1       1.005  -4.997   1.322  0.00  0.00    +0.027 C 
ATOM     24  C   UNL     1       3.034  -5.582  -0.005  0.00  0.00    +0.027 C 
ENDBRANCH  19  22
ENDBRANCH  18  19
ENDBRANCH  15  18
ENDBRANCH  14  15
ENDBRANCH   1  14
TORSDOF 7
