REMARK  Name = 
REMARK  7 active torsions:
REMARK  status: ('A' for Active; 'I' for Inactive)
REMARK    1  A    between atoms: CB_5  and  CG1_6
REMARK    2  A    between atoms: CA_8  and  C_26
REMARK    3  A    between atoms: CA_12  and  N_14
REMARK    4  A    between atoms: C_15  and  C_17
REMARK    5  A    between atoms: C_17  and  C_20
REMARK    6  A    between atoms: N_18  and  O_19
REMARK    7  A    between atoms: C_26  and  O_27
REMARK                            x       y       z     vdW  Elec       q    Type
REMARK                         _______ _______ _______ _____ _____    ______ ____
ROOT
ATOM      1  N   UNK A   1       3.881  -1.861   0.971  0.00  0.00    -0.296 N 
ATOM      2  H   UNK A   1       4.027  -1.238   1.769  0.00  0.00    +0.150 HD
ATOM      3  C   UNK A   0       4.442  -3.105   1.088  0.00  0.00    +0.268 C 
ATOM      4  O   UNK A   0       4.224  -4.022   0.306  0.00  0.00    -0.268 OA
ENDROOT
BRANCH   1   6
ATOM      5  C   UNK A   1       2.247  -0.090   0.036  0.00  0.00    +0.169 C 
ATOM      6  C   UNK A   1       2.932  -1.484  -0.109  0.00  0.00    +0.191 C 
ATOM      7  C   UNK A   1       3.613  -0.829  -1.357  0.00  0.00    +0.244 C 
ATOM      8  O   UNK A   1       4.406  -1.132  -2.219  0.00  0.00    -0.273 OA
ATOM      9  N   UNK A   2       3.138   0.384  -1.005  0.00  0.00    -0.249 N 
ATOM     10  C   UNK A   2       3.325   1.701  -1.341  0.00  0.00    +0.126 C 
ATOM     11  C   UNK A   2       2.918   2.679  -0.475  0.00  0.00    -0.010 C 
ATOM     12  C   UNK A   2       2.261   2.405   0.875  0.00  0.00    +0.108 C 
ATOM     13  S   UNK A   2       2.608   0.781   1.577  0.00  0.00    -0.131 S 
BRANCH  10  14
ATOM     14  C   UNK A   2       3.959   2.068  -2.671  0.00  0.00    +0.352 C 
ATOM     15  O   UNK A   2       3.783   3.144  -3.226  0.00  0.00    -0.244 OA
BRANCH  14  16
ATOM     16  O   UNK A   2       4.734   1.142  -3.265  0.00  0.00    -0.476 OA
ATOM     17  H   UNK A   2       4.789   0.247  -2.867  0.00  0.00    +0.295 HD
ENDBRANCH  14  16
ENDBRANCH  10  14
BRANCH  11  18
ATOM     18  C   UNK A   2       3.157   4.114  -0.689  0.00  0.00    -0.001 C 
ATOM     19  C   UNK A   2       2.429   5.122  -0.186  0.00  0.00    +0.009 C 
ENDBRANCH  11  18
ENDBRANCH   1   6
BRANCH   3  20
ATOM     20  C   UNK A   0       5.425  -3.284   2.254  0.00  0.00    +0.190 C 
ATOM     21  N   UNK A   0       5.290  -2.713   3.423  0.00  0.00    -0.080 NA
BRANCH  20  22
ATOM     22  C   UNK A   0       6.620  -4.112   2.069  0.00  0.00    +0.107 A 
ATOM     23  N   UNK A   0       7.254  -4.730   3.150  0.00  0.00    -0.223 NA
ATOM     24  C   UNK A   0       8.296  -5.410   2.748  0.00  0.00    +0.156 A 
ATOM     25  N   UNK A   0       9.074  -6.122   3.577  0.00  0.00    -0.338 N 
ATOM     26  H   UNK A   0       8.672  -6.338   4.483  0.00  0.00    +0.144 HD
ATOM     27  H   UNK A   0       9.647  -6.858   3.184  0.00  0.00    +0.144 HD
ATOM     28  S   UNK A   0       8.607  -5.351   1.063  0.00  0.00    -0.060 S 
ATOM     29  C   UNK A   0       7.240  -4.342   0.853  0.00  0.00    +0.078 A 
ENDBRANCH  20  22
BRANCH  21  30
ATOM     30  O   UNK A   0       4.149  -1.922   3.558  0.00  0.00    -0.409 OA
ATOM     31  H   UNK A   0       4.221  -1.613   4.484  0.00  0.00    +0.328 HD
ENDBRANCH  21  30
ENDBRANCH   3  20
TORSDOF 7
