REMARK  Name = 
REMARK  7 active torsions:
REMARK  status: ('A' for Active; 'I' for Inactive)
REMARK    1  A    between atoms: C_1  and  C_2
REMARK    2  A    between atoms: C_2  and  C_3
REMARK    3  A    between atoms: C_3  and  C_4
REMARK    4  A    between atoms: C_4  and  C_5
REMARK    5  A    between atoms: C_4  and  C_6
REMARK    6  A    between atoms: C_6  and  C_7
REMARK    7  A    between atoms: C_7  and  C_8
REMARK                            x       y       z     vdW  Elec       q    Type
REMARK                         _______ _______ _______ _____ _____    ______ ____
ROOT
ATOM      1  C   UNL     1       4.945  -2.459   1.489  0.00  0.00    +0.126 C 
ATOM      2  C   UNL     1       6.379  -2.637   0.992  0.00  0.00    +0.234 C 
ATOM      3  O   UNL     1       7.361  -2.140   1.541  0.00  0.00    -0.274 OA
ATOM      4  N   UNL     1       6.533  -3.341  -0.174  0.00  0.00    -0.267 N 
ATOM      5  H   UNL     1       7.466  -3.351  -0.566  0.00  0.00    +0.157 HD
ATOM      6  C   UNL     1       5.626  -4.216  -0.683  0.00  0.00    +0.143 C 
ATOM      7  S   UNL     1       5.943  -5.086  -2.062  0.00  0.00    -0.018 S 
ATOM      8  N   UNL     1       4.458  -4.368  -0.001  0.00  0.00    -0.267 N 
ATOM      9  H   UNL     1       3.817  -5.087  -0.310  0.00  0.00    +0.157 HD
ATOM     10  C   UNL     1       4.075  -3.658   1.110  0.00  0.00    +0.234 C 
ATOM     11  O   UNL     1       3.029  -3.948   1.687  0.00  0.00    -0.274 OA
ENDROOT
BRANCH   1  12
ATOM     12  C   UNL     1       4.320  -1.159   0.812  0.00  0.00    +0.010 C 
ATOM     13  C   UNL     1       4.123  -1.270  -0.714  0.00  0.00    +0.009 C 
BRANCH  12  14
ATOM     14  C   UNL     1       5.116   0.136   1.140  0.00  0.00    +0.004 C 
BRANCH  14  16
ATOM     15  C   UNL     1       5.316   2.643   0.979  0.00  0.00    +0.004 C 
ATOM     16  C   UNL     1       4.488   1.425   0.598  0.00  0.00    -0.003 C 
ENDBRANCH  14  16
ENDBRANCH  12  14
ENDBRANCH   1  12
BRANCH   1  17
ATOM     17  C   UNL     1       4.930  -2.310   3.038  0.00  0.00    +0.022 C 
ATOM     18  C   UNL     1       5.444  -3.519   3.819  0.00  0.00    +0.005 C 
ENDBRANCH   1  17
TORSDOF 4
