REMARK  Name = 
REMARK  13 active torsions:
REMARK  status: ('A' for Active; 'I' for Inactive)
REMARK    1  A    between atoms: C_5  and  C_6
REMARK    2  A    between atoms: C_6  and  S_7
REMARK    3  A    between atoms: S_7  and  C_8
REMARK    4  A    between atoms: N_12  and  C_13
REMARK    5  A    between atoms: C_13  and  C_14
REMARK    6  A    between atoms: C_14  and  O_15
REMARK    7  A    between atoms: CA_17  and  C_35
REMARK    8  A    between atoms: CA_21  and  N_23
REMARK    9  A    between atoms: C_24  and  C_26
REMARK   10  A    between atoms: C_26  and  C_27
REMARK   11  A    between atoms: C_32  and  C_33
REMARK   12  A    between atoms: C_33  and  N_34
REMARK   13  A    between atoms: C_35  and  O_36
REMARK                            x       y       z     vdW  Elec       q    Type
REMARK                         _______ _______ _______ _____ _____    ______ ____
ROOT
ATOM      1  C   UNL     1       2.117   0.078   0.064  0.00  0.00    +0.169 C 
ATOM      2  CA  UNL     1       2.851  -1.292  -0.115  0.00  0.00    +0.191 C 
ATOM      3  C   UNL     1       3.535  -0.581  -1.321  0.00  0.00    +0.244 C 
ATOM      4  O   UNL     1       4.358  -0.843  -2.169  0.00  0.00    -0.273 OA
ATOM      5  N   UNL     1       2.947   0.587  -1.008  0.00  0.00    -0.249 N 
ATOM      6  CA  UNL     1       2.970   1.893  -1.411  0.00  0.00    +0.123 C 
ATOM      7  C   UNL     1       2.481   2.861  -0.583  0.00  0.00    -0.021 C 
ATOM      8  C   UNL     1       1.977   2.605   0.832  0.00  0.00    +0.104 C 
ATOM      9  S   UNL     1       2.495   1.029   1.551  0.00  0.00    -0.131 S 
ENDROOT
BRANCH   2  10
ATOM     10  N   UNL     1       3.759  -1.754   0.958  0.00  0.00    -0.301 N 
ATOM     11  H   UNL     1       4.762  -1.599   0.892  0.00  0.00    +0.150 HD
ATOM     12  C   UNL     1       3.397  -2.332   2.146  0.00  0.00    +0.218 C 
ATOM     13  O   UNL     1       4.273  -2.607   2.967  0.00  0.00    -0.275 OA
BRANCH  12  14
ATOM     14  C   UNL     1       1.924  -2.599   2.414  0.00  0.00    +0.131 C 
BRANCH  14  15
ATOM     15  C   UNL     1       1.417  -3.917   1.869  0.00  0.00    -0.034 A 
ATOM     16  C   UNL     1       1.783  -5.165   2.423  0.00  0.00    -0.030 A 
ATOM     17  C   UNL     1       1.251  -6.337   1.846  0.00  0.00    +0.005 A 
ATOM     18  C   UNL     1       0.360  -6.287   0.775  0.00  0.00    +0.000 A 
ATOM     19  C   UNL     1      -0.005  -5.061   0.239  0.00  0.00    +0.000 A 
ATOM     20  C   UNL     1       0.515  -3.888   0.784  0.00  0.00    +0.004 A 
BRANCH  16  21
ATOM     21  C   UNL     1       2.775  -5.293   3.564  0.00  0.00    +0.113 C 
BRANCH  21  22
ATOM     22  N   UNL     1       2.441  -6.377   4.489  0.00  0.00    -0.326 NA
ATOM     23  H   UNL     1       3.149  -6.405   5.220  0.00  0.00    +0.119 HD
ATOM     24  H   UNL     1       1.563  -6.144   4.951  0.00  0.00    +0.119 HD
ENDBRANCH  21  22
ENDBRANCH  16  21
ENDBRANCH  14  15
ENDBRANCH  12  14
ENDBRANCH   2  10
BRANCH   6  25
ATOM     25  C   UNL     1       3.525   2.261  -2.770  0.00  0.00    +0.351 C 
ATOM     26  OXT UNL     1       3.193   3.275  -3.370  0.00  0.00    -0.244 OA
BRANCH  25  27
ATOM     27  O   UNL     1       4.417   1.420  -3.320  0.00  0.00    -0.476 OA
ATOM     28  H   UNL     1       4.593   0.561  -2.876  0.00  0.00    +0.295 HD
ENDBRANCH  25  27
ENDBRANCH   6  25
BRANCH   7  29
ATOM     29  C   UNL     1       2.492   4.357  -0.892  0.00  0.00    +0.111 C 
BRANCH  29  30
ATOM     30  S   UNL     1       0.938   4.882  -1.695  0.00  0.00    -0.080 S 
BRANCH  30  31
ATOM     31  C   UNL     1       1.277   6.567  -1.890  0.00  0.00    +0.210 A 
ATOM     32  N   UNL     1       0.816   7.364  -2.903  0.00  0.00    -0.209 N 
ATOM     33  N   UNL     1       1.369   8.592  -2.774  0.00  0.00    -0.043 NA
ATOM     34  N   UNL     1       2.082   8.544  -1.659  0.00  0.00    -0.022 NA
ATOM     35  N   UNL     1       2.040   7.292  -1.103  0.00  0.00    -0.101 NA
BRANCH  32  36
ATOM     36  C   UNL     1       0.014   7.038  -4.060  0.00  0.00    +0.268 C 
BRANCH  36  37
ATOM     37  C   UNL     1      -0.819   8.160  -4.632  0.00  0.00    +0.327 C 
ATOM     38  O   UNL     1      -1.868   7.935  -5.230  0.00  0.00    -0.249 OA
BRANCH  37  39
ATOM     39  O   UNL     1      -0.334   9.415  -4.555  0.00  0.00    -0.479 OA
ATOM     40  H   UNL     1       0.494   9.515  -4.030  0.00  0.00    +0.295 HD
ENDBRANCH  37  39
ENDBRANCH  36  37
ENDBRANCH  32  36
ENDBRANCH  30  31
ENDBRANCH  29  30
ENDBRANCH   7  29
TORSDOF 13
