REMARK  Name = 
REMARK  6 active torsions:
REMARK  status: ('A' for Active; 'I' for Inactive)
REMARK    1  A    between atoms: N6_1  and  C6_2
REMARK    2  A    between atoms: N9_6  and  C1*_7
REMARK    3  A    between atoms: C4*_10  and  C5*_12
REMARK    4  A    between atoms: C5*_12  and  O5*_13
REMARK    5  A    between atoms: C3*_14  and  O3*_16
REMARK    6  A    between atoms: C2*_17  and  O2*_19
REMARK                            x       y       z     vdW  Elec       q    Type
REMARK                         _______ _______ _______ _____ _____    ______ ____
ROOT
ATOM      1  C6    A A   1       7.987  -3.850  -4.691  0.00  0.00    +0.147 A 
ATOM      2  N1    A A   1       8.298  -5.154  -4.512  0.00  0.00    -0.219 NA
ATOM      3  C2    A A   1       8.059  -5.711  -3.308  0.00  0.00    +0.225 A 
ATOM      4  N3    A A   1       7.547  -5.131  -2.201  0.00  0.00    -0.216 NA
ATOM      5  C4    A A   1       7.252  -3.840  -2.428  0.00  0.00    +0.167 A 
ATOM      6  N9    A A   1       6.737  -2.927  -1.554  0.00  0.00    -0.286 N 
ATOM      7  C8    A A   1       6.658  -1.725  -2.224  0.00  0.00    +0.203 A 
ATOM      8  N7    A A   1       7.076  -1.818  -3.463  0.00  0.00    -0.231 NA
ATOM      9  C5    A A   1       7.446  -3.137  -3.609  0.00  0.00    +0.147 A 
ENDROOT
BRANCH   6  10
ATOM     10  C1*   A A   1       6.373  -3.076  -0.169  0.00  0.00    +0.253 C 
ATOM     11  C2*   A A   1       6.436  -4.438   0.536  0.00  0.00    +0.195 C 
ATOM     12  C3*   A A   1       7.823  -4.474   1.177  0.00  0.00    +0.178 C 
ATOM     13  C4*   A A   1       8.318  -3.027   1.136  0.00  0.00    +0.177 C 
ATOM     14  O4*   A A   1       7.248  -2.215   0.596  0.00  0.00    -0.346 OA
BRANCH  11  15
ATOM     15  O2*   A A   1       5.442  -4.522   1.587  0.00  0.00    -0.385 OA
ATOM     16  H2*   A A   1       5.273  -3.624   1.932  0.00  0.00    +0.210 HD
ENDBRANCH  11  15
BRANCH  12  17
ATOM     17  O3*   A A   1       7.761  -4.928   2.534  0.00  0.00    -0.386 OA
ATOM     18  H3*   A A   1       6.811  -4.969   2.771  0.00  0.00    +0.210 HD
ENDBRANCH  12  17
BRANCH  13  19
ATOM     19  C5*   A A   1       9.570  -2.882   0.258  0.00  0.00    +0.190 C 
BRANCH  19  20
ATOM     20  O5*   A A   1       9.974  -1.517   0.193  0.00  0.00    -0.392 OA
ATOM     21  H5*   A A   1       9.200  -1.010  -0.115  0.00  0.00    +0.210 HD
ENDBRANCH  19  20
ENDBRANCH  13  19
ENDBRANCH   6  10
BRANCH   1  22
ATOM     22  N6    A A   1       8.241  -3.275  -5.928  0.00  0.00    -0.341 N 
ATOM     23  H61   A A   1       8.938  -3.787  -6.453  0.00  0.00    +0.144 HD
ATOM     24  H62   A A   1       8.330  -2.265  -5.894  0.00  0.00    +0.144 HD
ENDBRANCH   1  22
TORSDOF 6
