REMARK  Name = 
REMARK  5 active torsions:
REMARK  status: ('A' for Active; 'I' for Inactive)
REMARK    1  A    between atoms: C_4  and  C_5
REMARK    2  A    between atoms: C_5  and  O_6
REMARK    3  A    between atoms: C_5  and  C_7
REMARK    4  A    between atoms: C_5  and  C_9
REMARK    5  A    between atoms: C_7  and  C_8
REMARK                            x       y       z     vdW  Elec       q    Type
REMARK                         _______ _______ _______ _____ _____    ______ ____
ROOT
ATOM      1  C   UNL     1       4.216  -0.307   1.064  0.00  0.00    +0.146 C 
ENDROOT
BRANCH   1   3
ATOM      2  C   UNL     1       1.832  -0.701   0.141  0.00  0.00    +0.079 C 
ATOM      3  C   UNL     1       2.705  -0.333   1.085  0.00  0.00    +0.032 C 
ATOM      4 CL   UNL     1       2.216  -1.214  -1.446  0.00  0.00    -0.092 Cl
ENDBRANCH   1   3
BRANCH   1   5
ATOM      5  C   UNL     1       4.723  -0.649   2.456  0.00  0.00    -0.067 C 
ATOM      6  C   UNL     1       5.157  -0.942   3.650  0.00  0.00    +0.007 C 
ENDBRANCH   1   5
BRANCH   1   7
ATOM      7  C   UNL     1       4.784   1.092   0.723  0.00  0.00    +0.049 C 
ATOM      8  C   UNL     1       4.407   1.639  -0.647  0.00  0.00    +0.008 C 
ENDBRANCH   1   7
BRANCH   1   9
ATOM      9  O   UNL     1       4.763  -1.267   0.176  0.00  0.00    -0.373 OA
ATOM     10  H   UNL     1       4.250  -1.227  -0.648  0.00  0.00    +0.212 HD
ENDBRANCH   1   9
TORSDOF 4
