REMARK  Name = 
REMARK  6 active torsions:
REMARK  status: ('A' for Active; 'I' for Inactive)
REMARK    1  A    between atoms: C_1  and  C_2
REMARK    2  A    between atoms: C_5  and  C_8
REMARK    3  A    between atoms: C_8  and  C_10
REMARK    4  A    between atoms: C_12  and  N_18
REMARK    5  A    between atoms: C_13  and  O_14
REMARK    6  A    between atoms: C_15  and  O_16
REMARK                            x       y       z     vdW  Elec       q    Type
REMARK                         _______ _______ _______ _____ _____    ______ ____
ROOT
ATOM      1  C   UNL     1       7.441  -1.320  -0.621  0.00  0.00    +0.032 A 
ATOM      2  C   UNL     1       6.845  -2.482  -1.122  0.00  0.00    +0.061 A 
ATOM      3  C   UNL     1       7.590  -3.652  -1.206  0.00  0.00    +0.166 A 
ATOM      4  C   UNL     1       8.942  -3.687  -0.869  0.00  0.00    +0.237 A 
ATOM      5  C   UNL     1       9.561  -2.506  -0.447  0.00  0.00    +0.318 A 
ATOM      6  C   UNL     1       8.812  -1.323  -0.314  0.00  0.00    +0.100 A 
ENDROOT
BRANCH   5   7
ATOM      7  N   UNL     1      10.990  -2.483  -0.136  0.00  0.00    +0.084 N 
ATOM      8  O   UNL     1      11.609  -3.556  -0.232  0.00  0.00    +0.042 OA
ATOM      9  O   UNL     1      11.499  -1.407   0.199  0.00  0.00    -0.576 OA
ENDBRANCH   5   7
BRANCH   1  10
ATOM     10  C   UNL     1       6.675  -0.059  -0.413  0.00  0.00    +0.193 C 
ATOM     11  O   UNL     1       7.283   1.009  -0.464  0.00  0.00    -0.287 OA
BRANCH  10  16
ATOM     12  C   UNL     1       0.911  -0.068   0.182  0.00  0.00    +0.044 C 
ATOM     13  C   UNL     1       2.408  -0.016   0.136  0.00  0.00    -0.050 A 
ATOM     14  C   UNL     1       3.159  -1.095   0.616  0.00  0.00    +0.004 A 
ATOM     15  C   UNL     1       4.552  -1.101   0.494  0.00  0.00    +0.012 A 
ATOM     16  C   UNL     1       5.209  -0.050  -0.156  0.00  0.00    +0.022 A 
ATOM     17  C   UNL     1       4.466   1.059  -0.576  0.00  0.00    +0.012 A 
ATOM     18  C   UNL     1       3.074   1.074  -0.437  0.00  0.00    +0.004 A 
ENDBRANCH  10  16
ENDBRANCH   1  10
BRANCH   3  19
ATOM     19  O   UNL     1       6.960  -4.792  -1.619  0.00  0.00    -0.503 OA
ATOM     20  H   UNL     1       7.640  -5.496  -1.570  0.00  0.00    +0.292 HD
ENDBRANCH   3  19
BRANCH   4  21
ATOM     21  O   UNL     1       9.541  -4.915  -0.984  0.00  0.00    -0.499 OA
ATOM     22  H   UNL     1      10.489  -4.843  -0.736  0.00  0.00    +0.293 HD
ENDBRANCH   4  21
TORSDOF 5
