REMARK  Name = 
REMARK  2 active torsions:
REMARK  status: ('A' for Active; 'I' for Inactive)
REMARK    1  A    between atoms: O_1  and  C_2
REMARK    2  A    between atoms: C_2  and  C_14
REMARK                            x       y       z     vdW  Elec       q    Type
REMARK                         _______ _______ _______ _____ _____    ______ ____
ROOT
ATOM      1  C   UNL     1       2.274  -0.327  -0.213  0.00  0.00    +0.256 C 
ATOM      2  C   UNL     1       2.916  -1.700  -0.002  0.00  0.00    +0.045 A 
ATOM      3  C   UNL     1       2.403  -2.258   1.169  0.00  0.00    +0.075 A 
ATOM      4  C   UNL     1       2.730  -3.488   1.686  0.00  0.00    +0.016 A 
ATOM      5  C   UNL     1       3.827  -4.108   1.096  0.00  0.00    +0.001 A 
ATOM      6  C   UNL     1       4.547  -3.459   0.073  0.00  0.00    +0.001 A 
ATOM      7  C   UNL     1       2.011  -1.069   1.925  0.00  0.00    +0.318 C 
ATOM      8  N   UNL     1       1.521  -0.957   3.121  0.00  0.00    -0.079 NA
ATOM      9  C   UNL     1       1.550   0.535   3.305  0.00  0.00    +0.334 C 
ATOM     10  C   UNL     1       1.756   1.181   1.897  0.00  0.00    +0.279 C 
ATOM     11  C   UNL     1       4.085  -2.258  -0.498  0.00  0.00    +0.011 A 
ATOM     12  N   UNL     1       2.294   0.071   1.186  0.00  0.00    -0.180 N 
ENDROOT
BRANCH   1  13
ATOM     13  C   UNL     1       2.814   0.466  -1.368  0.00  0.00    +0.031 A 
ATOM     14  C   UNL     1       2.548  -0.061  -2.668  0.00  0.00    +0.012 A 
ATOM     15  C   UNL     1       2.894   0.599  -3.844  0.00  0.00    +0.020 A 
ATOM     16  C   UNL     1       3.548   1.819  -3.738  0.00  0.00    +0.041 A 
ATOM     17 CL   UNL     1       3.941   2.684  -5.188  0.00  0.00    -0.084 Cl
ATOM     18  C   UNL     1       3.844   2.368  -2.488  0.00  0.00    +0.020 A 
ATOM     19  C   UNL     1       3.501   1.689  -1.312  0.00  0.00    +0.012 A 
ENDBRANCH   1  13
BRANCH   1  20
ATOM     20  O   UNL     1       0.899  -0.541  -0.555  0.00  0.00    -0.346 OA
ATOM     21  H   UNL     1       0.414  -0.040   0.104  0.00  0.00    +0.215 HD
ENDBRANCH   1  20
TORSDOF 2
