REMARK  Name = 
REMARK  21 active torsions:
REMARK  status: ('A' for Active; 'I' for Inactive)
REMARK    1  A    between atoms: C_1  and  C_2
REMARK    2  A    between atoms: C_2  and  C_3
REMARK    3  A    between atoms: C_2  and  C_4
REMARK    4  A    between atoms: C_4  and  C_5
REMARK    5  A    between atoms: C_5  and  C_6
REMARK    6  A    between atoms: C_6  and  C_7
REMARK    7  A    between atoms: C_7  and  C_9
REMARK    8  A    between atoms: C_7  and  C_10
REMARK    9  A    between atoms: C_10  and  C_11
REMARK   10  A    between atoms: C_11  and  C_12
REMARK   11  A    between atoms: C_12  and  C_13
REMARK   12  A    between atoms: C_13  and  C_15
REMARK   13  A    between atoms: C_13  and  C_16
REMARK   14  A    between atoms: C_16  and  C_17
REMARK   15  A    between atoms: C_17  and  C_18
REMARK   16  A    between atoms: C_18  and  C_19
REMARK   17  A    between atoms: C_19  and  C_20
REMARK   18  A    between atoms: C_26  and  C_27
REMARK   19  A    between atoms: C_28  and  C_29
REMARK   20  A    between atoms: C_30  and  O_31
REMARK   21  A    between atoms: C_32  and  C_33
REMARK                            x       y       z     vdW  Elec       q    Type
REMARK                         _______ _______ _______ _____ _____    ______ ____
ROOT
ATOM      1  C   UNL     1      13.470   6.264  -2.276  0.00  0.00    +0.048 C 
ENDROOT
BRANCH   1   2
ATOM      2  C   UNL     1      15.015   6.274  -2.216  0.00  0.00    +0.108 C 
ATOM      3  O   UNL     1      15.446   7.619  -2.467  0.00  0.00    -0.485 OA
ATOM      4  C   UNL     1      16.763   7.912  -2.193  0.00  0.00    +0.128 A 
ATOM      5  C   UNL     1      17.261   9.104  -2.761  0.00  0.00    -0.002 A 
ATOM      6  C   UNL     1      18.620   9.448  -2.564  0.00  0.00    -0.002 A 
ATOM      7  C   UNL     1      19.431   8.594  -1.788  0.00  0.00    +0.123 A 
ATOM      8  C   UNL     1      18.931   7.421  -1.202  0.00  0.00    -0.002 A 
ATOM      9  C   UNL     1      19.822   6.522  -0.381  0.00  0.00    +0.048 C 
ATOM     10  C   UNL     1      19.209  10.692  -3.179  0.00  0.00    +0.048 C 
ATOM     11  C   UNL     1      16.352   9.984  -3.586  0.00  0.00    +0.048 C 
ATOM     12  C   UNL     1      17.574   7.087  -1.392  0.00  0.00    +0.001 A 
ATOM     13  C   UNL     1      17.013   5.830  -0.774  0.00  0.00    +0.043 C 
ATOM     14  C   UNL     1      15.499   5.813  -0.839  0.00  0.00    +0.052 C 
ATOM     15  C   UNL     1      15.512   5.357  -3.357  0.00  0.00    +0.055 C 
BRANCH   7  16
ATOM     16  O   UNL     1      20.755   8.873  -1.568  0.00  0.00    -0.506 OA
ATOM     17  H   UNL     1      21.001   9.696  -2.014  0.00  0.00    +0.292 HD
ENDBRANCH   7  16
ENDBRANCH   1   2
BRANCH   1  18
ATOM     18  C   UNL     1      12.761   7.178  -1.268  0.00  0.00    +0.004 C 
BRANCH  18  19
ATOM     19  C   UNL     1      11.232   7.043  -1.325  0.00  0.00    +0.003 C 
BRANCH  19  20
ATOM     20  C   UNL     1      10.701   5.614  -1.091  0.00  0.00    -0.014 C 
ATOM     21  C   UNL     1       9.177   5.593  -1.260  0.00  0.00    +0.007 C 
BRANCH  20  22
ATOM     22  C   UNL     1      11.147   5.070   0.282  0.00  0.00    +0.003 C 
BRANCH  22  23
ATOM     23  C   UNL     1      10.751   3.614   0.470  0.00  0.00    +0.001 C 
BRANCH  23  24
ATOM     24  C   UNL     1      11.212   3.052   1.812  0.00  0.00    +0.003 C 
BRANCH  24  25
ATOM     25  C   UNL     1      10.828   1.568   1.972  0.00  0.00    -0.014 C 
ATOM     26  C   UNL     1       9.319   1.350   1.778  0.00  0.00    +0.007 C 
BRANCH  25  27
ATOM     27  C   UNL     1      11.314   1.059   3.343  0.00  0.00    +0.003 C 
BRANCH  27  28
ATOM     28  C   UNL     1      11.043  -0.434   3.516  0.00  0.00    +0.001 C 
BRANCH  28  29
ATOM     29  C   UNL     1      11.501  -0.968   4.868  0.00  0.00    +0.003 C 
BRANCH  29  31
ATOM     30  C   UNL     1      11.704  -2.958   6.382  0.00  0.00    +0.007 C 
ATOM     31  C   UNL     1      11.218  -2.475   5.017  0.00  0.00    -0.017 C 
ATOM     32  C   UNL     1       9.735  -2.823   4.844  0.00  0.00    +0.007 C 
ENDBRANCH  29  31
ENDBRANCH  28  29
ENDBRANCH  27  28
ENDBRANCH  25  27
ENDBRANCH  24  25
ENDBRANCH  23  24
ENDBRANCH  22  23
ENDBRANCH  20  22
ENDBRANCH  19  20
ENDBRANCH  18  19
ENDBRANCH   1  18
TORSDOF 13
