REMARK  Name = 
REMARK  7 active torsions:
REMARK  status: ('A' for Active; 'I' for Inactive)
REMARK    1  A    between atoms: C_5  and  O_6
REMARK    2  A    between atoms: C_5  and  C_7
REMARK    3  A    between atoms: C_7  and  C_8
REMARK    4  A    between atoms: C_10  and  C_11
REMARK    5  A    between atoms: C_13  and  O_15
REMARK    6  A    between atoms: C_21  and  C_23
REMARK    7  A    between atoms: C_30  and  C_31
REMARK                            x       y       z     vdW  Elec       q    Type
REMARK                         _______ _______ _______ _____ _____    ______ ____
ROOT
ATOM      1  C   UNL     1      -0.275  -0.285  -0.222  0.00  0.00    +0.005 C 
ATOM      2  C   UNL     1      -0.275  -0.285  -0.222  0.00  0.00    +0.034 C 
ATOM      3  C   UNL     1      -0.275  -0.285  -0.222  0.00  0.00    +0.014 C 
ATOM      4  C   UNL     1      -0.275  -0.285  -0.222  0.00  0.00    +0.013 C 
ATOM      5  C   UNL     1      -0.578   0.706  -1.985  0.00  0.00    +0.012 C 
ATOM      6  C   UNL     1      -0.140   4.837   1.644  0.00  0.00    -0.050 C 
ATOM      7  C   UNL     1      -0.275  -0.285  -0.222  0.00  0.00    +0.045 C 
ATOM      8  C   UNL     1      -0.275  -0.285  -0.222  0.00  0.00    +0.023 C 
ATOM      9  C   UNL     1      -0.275  -0.285  -0.222  0.00  0.00    -0.009 C 
ATOM     10  C   UNL     1      -0.275  -0.285  -0.222  0.00  0.00    +0.047 C 
ATOM     11  C   UNL     1      -0.275  -0.285  -0.222  0.00  0.00    +0.179 C 
ATOM     12  O   UNL     1      -0.275  -0.285  -0.222  0.00  0.00    -0.288 OA
ATOM     13  C   UNL     1       1.058   0.309   0.004  0.00  0.00    +0.051 C 
ATOM     14  C   UNL     1      -0.275  -0.285  -0.222  0.00  0.00    +0.153 C 
ATOM     15  F   UNL     1      -0.275  -0.285  -0.222  0.00  0.00    -0.238 F 
ATOM     16  C   UNL     1      -0.275  -0.285  -0.222  0.00  0.00    +0.154 C 
ATOM     17  C   UNL     1      -0.275  -0.285  -0.222  0.00  0.00    +0.044 C 
ATOM     18  C   UNL     1      -0.275  -0.285  -0.222  0.00  0.00    +0.009 C 
ATOM     19  C   UNL     1      -0.275  -0.285  -0.222  0.00  0.00    +0.015 C 
ATOM     20  C   UNL     1       0.145  -0.141   2.112  0.00  0.00    +0.129 C 
ATOM     21  C   UNL     1      -0.275  -0.285  -0.222  0.00  0.00    +0.043 C 
ATOM     22  C   UNL     1      -0.275  -0.285  -0.222  0.00  0.00    +0.008 C 
ENDROOT
BRANCH  20  23
ATOM     23  C   UNL     1      -0.275  -0.285  -0.222  0.00  0.00    +0.162 C 
ATOM     24  O   UNL     1      -1.731   0.366   1.600  0.00  0.00    -0.295 OA
ATOM     25  C   UNL     1      -1.444  -0.341   1.397  0.00  0.00    +0.089 C 
ENDBRANCH  20  23
BRANCH  16  26
ATOM     26  O   UNL     1       2.516   0.623  -0.514  0.00  0.00    -0.389 OA
ATOM     27  H   UNL     1       4.743   0.713  -0.424  0.00  0.00    +0.210 HD
ENDBRANCH  16  26
BRANCH  20  28
ATOM     28  O   UNL     1       2.084   0.454   1.110  0.00  0.00    -0.381 OA
ATOM     29  H   UNL     1       2.985   0.880   0.160  0.00  0.00    +0.211 HD
ENDBRANCH  20  28
TORSDOF 3
