REMARK  Name = 
REMARK  19 active torsions:
REMARK  status: ('A' for Active; 'I' for Inactive)
REMARK    1  A    between atoms: C_2  and  C_3
REMARK    2  A    between atoms: C_3  and  C_4
REMARK    3  A    between atoms: C_4  and  C_6
REMARK    4  A    between atoms: C_4  and  C_7
REMARK    5  A    between atoms: C_12  and  C_14
REMARK    6  A    between atoms: C_16  and  C_17
REMARK    7  A    between atoms: C_18  and  O_20
REMARK    8  A    between atoms: C_21  and  O_23
REMARK    9  A    between atoms: O_23  and  C_24
REMARK   10  A    between atoms: C_27  and  C_29
REMARK   11  A    between atoms: C_31  and  C_33
REMARK   12  A    between atoms: C_39  and  C_40
REMARK   13  A    between atoms: C_41  and  O_68
REMARK   14  A    between atoms: C_48  and  C_50
REMARK   15  A    between atoms: C_51  and  O_52
REMARK   16  A    between atoms: O_68  and  C_69
REMARK   17  A    between atoms: C_72  and  O_74
REMARK   18  A    between atoms: C_75  and  O_78
REMARK   19  A    between atoms: O_78  and  C_79
REMARK                            x       y       z     vdW  Elec       q    Type
REMARK                         _______ _______ _______ _____ _____    ______ ____
ROOT
ATOM      1  C   UNL     1      -0.000  -0.000  -0.000  0.00  0.00    +0.186 C 
ATOM      2  O   UNL     1      -0.000  -0.000  -0.000  0.00  0.00    -0.459 OA
ATOM      3  C   UNL     1      -0.000  -0.000   0.000  0.00  0.00    +0.328 C 
ATOM      4  O   UNL     1      -0.000  -0.000   0.000  0.00  0.00    -0.249 OA
ATOM      5  C   UNL     1      -0.000  -0.000  -0.000  0.00  0.00    +0.185 C 
ATOM      6  N   UNL     1      -0.000  -0.000  -0.000  0.00  0.00    -0.282 N 
ATOM      7  C   UNL     1      -0.000  -0.000   0.000  0.00  0.00    +0.109 C 
ATOM      8  C   UNL     1      -0.000  -0.000  -0.000  0.00  0.00    +0.019 C 
ATOM      9  C   UNL     1      -0.000  -0.000   0.000  0.00  0.00    +0.004 C 
ATOM     10  C   UNL     1      -0.000  -0.000  -0.000  0.00  0.00    +0.288 C 
ATOM     11  O   UNL     1      -0.000  -0.000  -0.000  0.00  0.00    -0.267 OA
ATOM     12  C   UNL     1      -0.000  -0.000   0.000  0.00  0.00    +0.276 C 
ATOM     13  O   UNL     1      -0.000  -0.000  -0.000  0.00  0.00    -0.281 OA
ATOM     14  C   UNL     1      -0.000  -0.000   0.000  0.00  0.00    +0.240 C 
ATOM     15  O   UNL     1      -0.000  -0.000  -0.000  0.00  0.00    -0.339 OA
ATOM     16  C   UNL     1      -0.000  -0.000  -0.000  0.00  0.00    +0.125 C 
ATOM     17  C   UNL     1      -0.000  -0.000   0.000  0.00  0.00    +0.032 C 
ATOM     18  C   UNL     1      -0.000  -0.000   0.000  0.00  0.00    +0.011 C 
ATOM     19  C   UNL     1      -0.000  -0.000  -0.000  0.00  0.00    +0.067 C 
ATOM     20  C   UNL     1      -0.000  -0.000   0.000  0.00  0.00    +0.146 C 
ATOM     21  C   UNL     1      -0.000  -0.000  -0.000  0.00  0.00    -0.044 C 
ATOM     22  C   UNL     1      -0.000  -0.000  -0.000  0.00  0.00    +0.042 C 
ATOM     23  C   UNL     1      -0.000  -0.000   0.000  0.00  0.00    +0.001 C 
ATOM     24  C   UNL     1      -0.000  -0.000   0.000  0.00  0.00    +0.000 C 
ATOM     25  C   UNL     1      -0.000  -0.000  -0.000  0.00  0.00    -0.000 C 
ATOM     26  C   UNL     1      -0.000  -0.000   0.000  0.00  0.00    -0.004 C 
ATOM     27  C   UNL     1      -0.000  -0.000   0.000  0.00  0.00    -0.024 C 
ATOM     28  C   UNL     1      -0.000  -0.000  -0.000  0.00  0.00    +0.009 C 
ATOM     29  C   UNL     1      -0.000  -0.000   0.000  0.00  0.00    +0.012 C 
ATOM     30  C   UNL     1      -0.000  -0.000   0.000  0.00  0.00    +0.018 C 
ATOM     31  C   UNL     1      -0.000  -0.000   0.000  0.00  0.00    +0.055 C 
ATOM     32  C   UNL     1      -0.000  -0.000   0.000  0.00  0.00    +0.015 C 
ATOM     33  C   UNL     1      -0.000  -0.000   0.000  0.00  0.00    +0.167 C 
ATOM     34  O   UNL     1      -0.000  -0.000   0.000  0.00  0.00    -0.294 OA
ATOM     35  C   UNL     1      -0.000  -0.000   0.000  0.00  0.00    +0.216 C 
ATOM     36  C   UNL     1      -0.000  -0.000  -0.000  0.00  0.00    +0.176 C 
ATOM     37  C   UNL     1      -0.000  -0.000   0.000  0.00  0.00    -0.045 C 
ATOM     38  C   UNL     1      -0.000  -0.000  -0.000  0.00  0.00    +0.041 C 
ATOM     39  C   UNL     1      -0.000  -0.000  -0.000  0.00  0.00    -0.015 C 
ATOM     40  C   UNL     1      -0.000  -0.000   0.000  0.00  0.00    +0.075 C 
ATOM     41  C   UNL     1      -0.000  -0.000  -0.000  0.00  0.00    +0.020 C 
ATOM     42  C   UNL     1      -0.000  -0.000  -0.000  0.00  0.00    +0.143 C 
ATOM     43  O   UNL     1      -0.000  -0.000  -0.000  0.00  0.00    -0.297 OA
ATOM     44  C   UNL     1      -0.000  -0.000  -0.000  0.00  0.00    +0.054 C 
ATOM     45  C   UNL     1      -0.000  -0.000   0.000  0.00  0.00    +0.013 C 
ATOM     46  C   UNL     1      -0.000  -0.000  -0.000  0.00  0.00    +0.034 C 
ATOM     47  C   UNL     1      -0.000  -0.000  -0.000  0.00  0.00    +0.119 C 
ENDROOT
BRANCH   1  48
ATOM     48  C   UNL     1      -0.000  -0.000  -0.000  0.00  0.00    +0.027 C 
ATOM     49  C   UNL     1      -0.000  -0.000  -0.000  0.00  0.00    +0.011 C 
BRANCH  48  50
ATOM     50  C   UNL     1      -0.000  -0.000  -0.000  0.00  0.00    +0.010 C 
BRANCH  50  51
ATOM     51  C   UNL     1      -0.000  -0.000  -0.000  0.00  0.00    -0.008 C 
ATOM     52  C   UNL     1      -0.000  -0.000  -0.000  0.00  0.00    +0.037 C 
ATOM     53  C   UNL     1      -0.000  -0.000  -0.000  0.00  0.00    +0.147 C 
ATOM     54  C   UNL     1      -0.000  -0.000  -0.000  0.00  0.00    +0.143 C 
ATOM     55  C   UNL     1      -0.000  -0.000  -0.000  0.00  0.00    +0.034 C 
ATOM     56  C   UNL     1      -0.000  -0.000  -0.000  0.00  0.00    +0.006 C 
BRANCH  53  57
ATOM     57  O   UNL     1      -0.000  -0.000  -0.000  0.00  0.00    -0.377 OA
ATOM     58  C   UNL     1      -0.000  -0.000  -0.000  0.00  0.00    +0.194 C 
ENDBRANCH  53  57
BRANCH  54  59
ATOM     59  O   UNL     1      -0.000  -0.000  -0.000  0.00  0.00    -0.389 OA
ATOM     60  H   UNL     1      -0.000  -0.000  -0.000  0.00  0.00    +0.210 HD
ENDBRANCH  54  59
ENDBRANCH  50  51
ENDBRANCH  48  50
ENDBRANCH   1  48
BRANCH  20  61
ATOM     61  O   UNL     1      -0.000  -0.000   0.000  0.00  0.00    -0.375 OA
ATOM     62  C   UNL     1      -0.000  -0.000   0.000  0.00  0.00    +0.194 C 
ENDBRANCH  20  61
BRANCH  35  63
ATOM     63  O   UNL     1      -0.000  -0.000  -0.000  0.00  0.00    -0.369 OA
ATOM     64  C   UNL     1      -0.000  -0.000   0.000  0.00  0.00    +0.195 C 
ENDBRANCH  35  63
BRANCH  36  65
ATOM     65  O   UNL     1      -0.000  -0.000   0.000  0.00  0.00    -0.384 OA
ATOM     66  H   UNL     1       0.000   0.000   0.000  0.00  0.00    +0.210 HD
ENDBRANCH  36  65
BRANCH  14  67
ATOM     67  O   UNL     1      -0.000  -0.000   0.000  0.00  0.00    -0.358 OA
ATOM     68  H   UNL     1       0.000   0.000   0.000  0.00  0.00    +0.213 HD
ENDBRANCH  14  67
TORSDOF 9
