REMARK  Name = 
REMARK  10 active torsions:
REMARK  status: ('A' for Active; 'I' for Inactive)
REMARK    1  A    between atoms: C_1  and  C_2
REMARK    2  A    between atoms: C_2  and  N_4
REMARK    3  A    between atoms: C_2  and  C_14
REMARK    4  A    between atoms: N_4  and  C_5
REMARK    5  A    between atoms: C_5  and  C_6
REMARK    6  A    between atoms: C_6  and  C_7
REMARK    7  A    between atoms: C_10  and  O_11
REMARK    8  A    between atoms: C_14  and  O_16
REMARK    9  A    between atoms: C_14  and  C_17
REMARK   10  A    between atoms: C_20  and  O_21
REMARK                            x       y       z     vdW  Elec       q    Type
REMARK                         _______ _______ _______ _____ _____    ______ ____
ROOT
ATOM      1  C   UNL     1       0.845  -2.114   0.968  0.00  0.00    +0.027 C 
ATOM      2  C   UNL     1       2.379  -2.196   0.952  0.00  0.00    +0.084 C 
ENDROOT
BRANCH   2   3
ATOM      3  N   UNL     1       2.970  -1.669   2.204  0.00  0.00    -0.310 NA
ATOM      4  H   UNL     1       2.743  -0.672   2.255  0.00  0.00    +0.122 HD
BRANCH   3   5
ATOM      5  C   UNL     1       2.549  -2.336   3.436  0.00  0.00    +0.086 C 
BRANCH   5   6
ATOM      6  C   UNL     1       2.966  -3.812   3.502  0.00  0.00    +0.050 C 
BRANCH   6   7
ATOM      7  C   UNL     1       2.454  -4.450   4.768  0.00  0.00    -0.046 A 
ATOM      8  C   UNL     1       3.217  -4.404   5.943  0.00  0.00    +0.007 A 
ATOM      9  C   UNL     1       2.708  -4.935   7.126  0.00  0.00    +0.045 A 
ATOM     10  C   UNL     1       1.441  -5.507   7.135  0.00  0.00    +0.117 A 
ATOM     11  C   UNL     1       0.677  -5.577   5.974  0.00  0.00    +0.045 A 
ATOM     12  C   UNL     1       1.186  -5.049   4.790  0.00  0.00    +0.007 A 
BRANCH  10  13
ATOM     13  O   UNL     1       0.966  -5.980   8.323  0.00  0.00    -0.507 OA
ATOM     14  H   UNL     1       0.039  -6.243   8.197  0.00  0.00    +0.292 HD
ENDBRANCH  10  13
ENDBRANCH   6   7
ENDBRANCH   5   6
ENDBRANCH   3   5
ENDBRANCH   2   3
BRANCH   2  15
ATOM     15  C   UNL     1       3.002  -1.398  -0.233  0.00  0.00    +0.161 C 
BRANCH  15  16
ATOM     16  C   UNL     1       2.630  -1.925  -1.607  0.00  0.00    -0.017 A 
ATOM     17  C   UNL     1       1.580  -1.359  -2.347  0.00  0.00    +0.010 A 
ATOM     18  C   UNL     1       1.284  -1.821  -3.629  0.00  0.00    +0.046 A 
ATOM     19  C   UNL     1       2.036  -2.850  -4.179  0.00  0.00    +0.117 A 
ATOM     20  C   UNL     1       3.052  -3.458  -3.451  0.00  0.00    +0.046 A 
ATOM     21  C   UNL     1       3.345  -2.998  -2.164  0.00  0.00    +0.010 A 
BRANCH  19  22
ATOM     22  O   UNL     1       1.744  -3.235  -5.454  0.00  0.00    -0.507 OA
ATOM     23  H   UNL     1       2.434  -3.847  -5.756  0.00  0.00    +0.292 HD
ENDBRANCH  19  22
ENDBRANCH  15  16
BRANCH  15  24
ATOM     24  O   UNL     1       2.675  -0.004  -0.121  0.00  0.00    -0.386 OA
ATOM     25  H   UNL     1       3.052   0.422  -0.910  0.00  0.00    +0.210 HD
ENDBRANCH  15  24
ENDBRANCH   2  15
TORSDOF 9
