REMARK  Name = 
REMARK  16 active torsions:
REMARK  status: ('A' for Active; 'I' for Inactive)
REMARK    1  A    between atoms: O_1  and  C_2
REMARK    2  A    between atoms: C_6  and  O_8
REMARK    3  A    between atoms: O_8  and  C_9
REMARK    4  A    between atoms: C_13  and  O_15
REMARK    5  A    between atoms: C_16  and  O_18
REMARK    6  A    between atoms: O_18  and  S_19
REMARK    7  A    between atoms: S_19  and  O_20
REMARK    8  A    between atoms: C_23  and  O_25
REMARK    9  A    between atoms: O_25  and  S_26
REMARK   10  A    between atoms: S_26  and  O_27
REMARK   11  A    between atoms: C_30  and  O_32
REMARK   12  A    between atoms: O_32  and  S_33
REMARK   13  A    between atoms: S_33  and  O_34
REMARK   14  A    between atoms: C_37  and  O_39
REMARK   15  A    between atoms: O_39  and  S_40
REMARK   16  A    between atoms: S_40  and  O_41
REMARK                            x       y       z     vdW  Elec       q    Type
REMARK                         _______ _______ _______ _____ _____    ______ ____
ROOT
ATOM      1  O   UNL     1       4.383  -0.467  -4.689  0.00  0.00    -0.340 OA
ENDROOT
BRANCH   1   5
ATOM      2  C   UNL     1       3.848   2.585  -1.916  0.00  0.00    +0.174 C 
ATOM      3  C   UNL     1       5.284   2.456  -2.451  0.00  0.00    +0.218 C 
ATOM      4  C   UNL     1       5.366   1.479  -3.652  0.00  0.00    +0.241 C 
ATOM      5  C   UNL     1       4.509   0.208  -3.433  0.00  0.00    +0.285 C 
ATOM      6  O   UNL     1       3.210   0.509  -2.960  0.00  0.00    -0.346 OA
ATOM      7  C   UNL     1       3.199   1.224  -1.742  0.00  0.00    +0.197 C 
BRANCH   2   8
ATOM      8  O   UNL     1       3.802   3.269  -0.666  0.00  0.00    -0.387 OA
ATOM      9  H   UNL     1       4.431   2.888  -0.030  0.00  0.00    +0.210 HD
ENDBRANCH   2   8
BRANCH   4  10
ATOM     10  O   UNL     1       6.752   1.123  -3.835  0.00  0.00    -0.205 OA
BRANCH  10  11
ATOM     11  S   UNL     1       7.200   0.389  -5.225  0.00  0.00    +0.208 S 
ATOM     12  O   UNL     1       6.696   1.145  -6.338  0.00  0.00    -0.118 OA
ATOM     13  O   UNL     1       6.989  -1.033  -5.057  0.00  0.00    -0.118 OA
BRANCH  11  14
ATOM     14  O   UNL     1       8.797   0.595  -5.172  0.00  0.00    -0.231 OA
ATOM     15  H   UNL     1       9.117   0.387  -4.273  0.00  0.00    +0.247 HD
ENDBRANCH  11  14
ENDBRANCH  10  11
ENDBRANCH   4  10
BRANCH   3  16
ATOM     16  O   UNL     1       5.756   3.732  -2.923  0.00  0.00    -0.207 OA
BRANCH  16  17
ATOM     17  S   UNL     1       5.980   4.966  -1.885  0.00  0.00    +0.208 S 
ATOM     18  O   UNL     1       6.825   4.503  -0.806  0.00  0.00    -0.118 OA
ATOM     19  O   UNL     1       4.718   5.630  -1.670  0.00  0.00    -0.118 OA
BRANCH  17  20
ATOM     20  O   UNL     1       6.814   5.998  -2.787  0.00  0.00    -0.231 OA
ATOM     21  H   UNL     1       6.149   6.528  -3.279  0.00  0.00    +0.247 HD
ENDBRANCH  17  20
ENDBRANCH  16  17
ENDBRANCH   3  16
ENDBRANCH   1   5
BRANCH   1  22
ATOM     22  C   UNL     1       3.659  -1.704  -4.642  0.00  0.00    +0.181 C 
ATOM     23  C   UNL     1       3.440  -2.215  -6.094  0.00  0.00    +0.219 C 
ATOM     24  C   UNL     1       2.815  -3.626  -6.079  0.00  0.00    +0.241 C 
ATOM     25  C   UNL     1       3.603  -4.561  -5.149  0.00  0.00    +0.281 C 
ATOM     26  O   UNL     1       3.674  -4.020  -3.840  0.00  0.00    -0.346 OA
ATOM     27  C   UNL     1       4.380  -2.781  -3.816  0.00  0.00    +0.197 C 
BRANCH  25  28
ATOM     28  O   UNL     1       2.913  -5.802  -5.054  0.00  0.00    -0.365 OA
ATOM     29  H   UNL     1       2.143  -5.606  -4.489  0.00  0.00    +0.213 HD
ENDBRANCH  25  28
BRANCH  23  30
ATOM     30  O   UNL     1       2.710  -1.285  -6.910  0.00  0.00    -0.207 OA
BRANCH  30  31
ATOM     31  S   UNL     1       1.165  -0.889  -6.611  0.00  0.00    +0.208 S 
ATOM     32  O   UNL     1       1.067  -0.226  -5.334  0.00  0.00    -0.118 OA
ATOM     33  O   UNL     1       0.343  -2.036  -6.930  0.00  0.00    -0.118 OA
BRANCH  31  34
ATOM     34  O   UNL     1       0.863   0.196  -7.757  0.00  0.00    -0.231 OA
ATOM     35  H   UNL     1       0.853  -0.267  -8.618  0.00  0.00    +0.247 HD
ENDBRANCH  31  34
ENDBRANCH  30  31
ENDBRANCH  23  30
BRANCH  24  36
ATOM     36  O   UNL     1       2.528  -4.174  -7.364  0.00  0.00    -0.205 OA
BRANCH  36  37
ATOM     37  S   UNL     1       3.637  -4.846  -8.335  0.00  0.00    +0.208 S 
ATOM     38  O   UNL     1       4.708  -3.897  -8.521  0.00  0.00    -0.118 OA
ATOM     39  O   UNL     1       2.930  -5.436  -9.448  0.00  0.00    -0.118 OA
BRANCH  37  40
ATOM     40  O   UNL     1       4.220  -6.079  -7.483  0.00  0.00    -0.231 OA
ATOM     41  H   UNL     1       3.486  -6.678  -7.227  0.00  0.00    +0.247 HD
ENDBRANCH  37  40
ENDBRANCH  36  37
ENDBRANCH  24  36
ENDBRANCH   1  22
TORSDOF 16
