REMARK  Name = 
REMARK  9 active torsions:
REMARK  status: ('A' for Active; 'I' for Inactive)
REMARK    1  A    between atoms: O_1  and  C_2
REMARK    2  A    between atoms: C_2  and  C_3
REMARK    3  A    between atoms: C_2  and  P_9
REMARK    4  A    between atoms: C_2  and  P_13
REMARK    5  A    between atoms: C_3  and  N_4
REMARK    6  A    between atoms: P_9  and  O_10
REMARK    7  A    between atoms: P_9  and  O_11
REMARK    8  A    between atoms: P_13  and  O_14
REMARK    9  A    between atoms: P_13  and  O_15
REMARK                            x       y       z     vdW  Elec       q    Type
REMARK                         _______ _______ _______ _____ _____    ______ ____
ROOT
ATOM      1  C   UNL     1       2.366  -0.053   0.065  0.00  0.00    +0.285 C 
ENDROOT
BRANCH   1   2
ATOM      2  O   UNL     1       0.885  -0.142  -0.104  0.00  0.00    -0.366 OA
ATOM      3  H   UNL     1       0.628  -0.842   0.541  0.00  0.00    +0.212 HD
ENDBRANCH   1   2
BRANCH   1   4
ATOM      4  P   UNL     1       2.976   0.374  -1.607  0.00  0.00    +0.373 P 
ATOM      5  O   UNL     1       3.492   0.736  -3.021  0.00  0.00    -0.255 OA
BRANCH   4   6
ATOM      6  O   UNL     1       4.362   0.909  -0.935  0.00  0.00    -0.322 OA
ATOM      7  H   UNL     1       4.785   1.496  -1.604  0.00  0.00    +0.220 HD
ENDBRANCH   4   6
BRANCH   4   8
ATOM      8  O   UNL     1       2.109   1.774  -1.459  0.00  0.00    -0.322 OA
ATOM      9  H   UNL     1       1.145   1.587  -1.517  0.00  0.00    +0.220 HD
ENDBRANCH   4   8
ENDBRANCH   1   4
BRANCH   1  10
ATOM     10  P   UNL     1       2.976  -1.715   0.531  0.00  0.00    +0.373 P 
ATOM     11  O   UNL     1       3.492  -3.120   0.925  0.00  0.00    -0.255 OA
BRANCH  10  12
ATOM     12  O   UNL     1       2.163  -2.342  -0.754  0.00  0.00    -0.322 OA
ATOM     13  H   UNL     1       2.228  -3.322  -0.704  0.00  0.00    +0.220 HD
ENDBRANCH  10  12
BRANCH  10  14
ATOM     14  O   UNL     1       1.708  -1.845   1.586  0.00  0.00    -0.322 OA
ATOM     15  H   UNL     1       1.777  -2.734   2.003  0.00  0.00    +0.220 HD
ENDBRANCH  10  14
ENDBRANCH   1  10
BRANCH   1  16
ATOM     16  C   UNL     1       2.513   0.975   1.211  0.00  0.00    +0.183 C 
BRANCH  16  17
ATOM     17  N   UNL     1       3.823   1.413   1.623  0.00  0.00    -0.333 N 
ATOM     18  C   UNL     1       4.292   2.694   1.497  0.00  0.00    +0.199 A 
ATOM     19  N   UNL     1       5.483   2.825   2.034  0.00  0.00    -0.244 NA
ATOM     20  C   UNL     1       5.786   1.592   2.535  0.00  0.00    +0.130 A 
ATOM     21  C   UNL     1       4.760   0.699   2.313  0.00  0.00    +0.107 A 
ENDBRANCH  16  17
ENDBRANCH   1  16
TORSDOF 9
