REMARK  Name = 
REMARK  3 active torsions:
REMARK  status: ('A' for Active; 'I' for Inactive)
REMARK    1  A    between atoms: C_1  and  C_2
REMARK    2  A    between atoms: C_2  and  C_3
REMARK    3  A    between atoms: C_3  and  C_4
REMARK                            x       y       z     vdW  Elec       q    Type
REMARK                         _______ _______ _______ _____ _____    ______ ____
ROOT
ATOM      1  C   UNL     1       4.517   0.787  -1.116  0.00  0.00    +0.023 A 
ATOM      2  N   UNL     1       5.242  -0.382  -1.153  0.00  0.00    -0.339 N 
ATOM      3  H   UNL     1       4.760  -1.274  -1.183  0.00  0.00    +0.167 HD
ATOM      4  C   UNL     1       6.607  -0.425  -1.141  0.00  0.00    +0.158 A 
ATOM      5  S   UNL     1       7.430  -1.869  -1.165  0.00  0.00    -0.013 S 
ATOM      6  N   UNL     1       7.255   0.774  -1.108  0.00  0.00    -0.303 N 
ATOM      7  H   UNL     1       8.265   0.779  -1.107  0.00  0.00    +0.171 HD
ATOM      8  C   UNL     1       6.634   1.992  -1.091  0.00  0.00    +0.252 A 
ATOM      9  O   UNL     1       7.247   3.053  -1.081  0.00  0.00    -0.268 OA
ATOM     10  C   UNL     1       5.157   1.965  -1.089  0.00  0.00    +0.091 A 
ENDROOT
BRANCH   1  11
ATOM     11  C   UNL     1       3.013   0.674  -1.134  0.00  0.00    +0.053 C 
BRANCH  11  13
ATOM     12  C   UNL     1       0.939  -0.137   0.050  0.00  0.00    +0.004 C 
ATOM     13  C   UNL     1       2.458  -0.061   0.090  0.00  0.00    +0.003 C 
ENDBRANCH  11  13
ENDBRANCH   1  11
TORSDOF 2
