REMARK  Name = 
REMARK  6 active torsions:
REMARK  status: ('A' for Active; 'I' for Inactive)
REMARK    1  A    between atoms: O_1  and  C_2
REMARK    2  A    between atoms: C_2  and  C_3
REMARK    3  A    between atoms: C_2  and  C_11
REMARK    4  A    between atoms: C_2  and  C_16
REMARK    5  A    between atoms: C_3  and  C_4
REMARK    6  A    between atoms: C_4  and  N_5
REMARK                            x       y       z     vdW  Elec       q    Type
REMARK                         _______ _______ _______ _____ _____    ______ ____
ROOT
ATOM      1  C   UNL     1       2.294  -0.189  -0.142  0.00  0.00    +0.095 C 
ENDROOT
BRANCH   1   2
ATOM      2  C   UNL     1       2.787  -1.279  -1.101  0.00  0.00    -0.016 A 
ATOM      3  C   UNL     1       4.151  -1.603  -1.204  0.00  0.00    +0.006 A 
ATOM      4  C   UNL     1       4.591  -2.626  -2.055  0.00  0.00    +0.000 A 
ATOM      5  C   UNL     1       3.679  -3.340  -2.825  0.00  0.00    +0.000 A 
ATOM      6  C   UNL     1       2.326  -3.030  -2.752  0.00  0.00    +0.000 A 
ATOM      7  C   UNL     1       1.887  -2.010  -1.900  0.00  0.00    +0.006 A 
ENDBRANCH   1   2
BRANCH   1   8
ATOM      8  C   UNL     1       2.679  -0.508   1.349  0.00  0.00    +0.025 C 
ATOM      9  C   UNL     1       2.141  -1.828   1.919  0.00  0.00    +0.007 C 
ATOM     10  C   UNL     1       2.037  -1.631   3.437  0.00  0.00    +0.000 C 
ATOM     11  C   UNL     1       2.360  -0.171   3.714  0.00  0.00    +0.000 C 
ATOM     12  C   UNL     1       2.172   0.521   2.378  0.00  0.00    +0.007 C 
ENDBRANCH   1   8
BRANCH   1  13
ATOM     13  O   UNL     1       0.864  -0.111  -0.239  0.00  0.00    -0.384 OA
ATOM     14  H   UNL     1       0.568   0.689   0.223  0.00  0.00    +0.211 HD
ENDBRANCH   1  13
BRANCH   1  15
ATOM     15  C   UNL     1       2.879   1.208  -0.475  0.00  0.00    +0.055 C 
BRANCH  15  16
ATOM     16  C   UNL     1       2.550   1.843  -1.834  0.00  0.00    +0.087 C 
BRANCH  16  17
ATOM     17  N   UNL     1       3.161   3.192  -1.948  0.00  0.00    -0.302 NA
ATOM     18  C   UNL     1       2.812   4.140  -0.876  0.00  0.00    +0.084 C 
ATOM     19  C   UNL     1       1.349   4.578  -0.920  0.00  0.00    +0.015 C 
ATOM     20  C   UNL     1       1.060   5.262  -2.250  0.00  0.00    +0.002 C 
ATOM     21  C   UNL     1       1.484   4.380  -3.424  0.00  0.00    +0.015 C 
ATOM     22  C   UNL     1       2.902   3.816  -3.257  0.00  0.00    +0.084 C 
ENDBRANCH  16  17
ENDBRANCH  15  16
ENDBRANCH   1  15
TORSDOF 6
