REMARK  Name = 
REMARK  7 active torsions:
REMARK  status: ('A' for Active; 'I' for Inactive)
REMARK    1  A    between atoms: C_1  and  N_2
REMARK    2  A    between atoms: C_3  and  C_4
REMARK    3  A    between atoms: C_4  and  C_5
REMARK    4  A    between atoms: C_5  and  O_6
REMARK    5  A    between atoms: C_10  and  C_11
REMARK    6  A    between atoms: C_11  and  C_13
REMARK    7  A    between atoms: C_16  and  C_17
REMARK                            x       y       z     vdW  Elec       q    Type
REMARK                         _______ _______ _______ _____ _____    ______ ____
ROOT
ATOM      1  C   UNL     1       1.096   0.304   0.150  0.00  0.00    +0.149 C 
ATOM      2  N   UNL     1       2.528   0.070   0.090  0.00  0.00    -0.344 N 
ATOM      3  C   UNL     1       3.138  -1.182   0.095  0.00  0.00    +0.090 A 
ATOM      4  C   UNL     1       4.501  -0.944  -0.002  0.00  0.00    +0.031 A 
ATOM      5  C   UNL     1       4.720   0.447  -0.040  0.00  0.00    +0.024 A 
ATOM      6  C   UNL     1       3.487   1.068  -0.008  0.00  0.00    +0.030 A 
ENDROOT
BRANCH   3   7
ATOM      7  C   UNL     1       2.449  -2.479   0.113  0.00  0.00    +0.209 C 
ATOM      8  O   UNL     1       1.304  -2.629  -0.308  0.00  0.00    -0.285 OA
BRANCH   7   9
ATOM      9  C   UNL     1       3.154  -3.690   0.665  0.00  0.00    +0.024 A 
ATOM     10  C   UNL     1       4.027  -3.576   1.751  0.00  0.00    +0.012 A 
ATOM     11  C   UNL     1       4.657  -4.707   2.281  0.00  0.00    +0.004 A 
ATOM     12  C   UNL     1       4.400  -5.981   1.761  0.00  0.00    -0.050 A 
ATOM     13  C   UNL     1       5.069  -7.175   2.378  0.00  0.00    +0.044 C 
ATOM     14  C   UNL     1       3.524  -6.099   0.676  0.00  0.00    +0.004 A 
ATOM     15  C   UNL     1       2.898  -4.964   0.134  0.00  0.00    +0.012 A 
ENDBRANCH   7   9
ENDBRANCH   3   7
BRANCH   6  16
ATOM     16  C   UNL     1       3.185   2.537  -0.178  0.00  0.00    +0.173 C 
BRANCH  16  17
ATOM     17  C   UNL     1       2.997   3.337   1.099  0.00  0.00    +0.311 C 
ATOM     18  O   UNL     1       2.616   4.503   1.082  0.00  0.00    -0.251 OA
BRANCH  17  19
ATOM     19  O   UNL     1       3.292   2.720   2.260  0.00  0.00    -0.480 OA
ATOM     20  H   UNL     1       3.621   1.806   2.148  0.00  0.00    +0.295 HD
ENDBRANCH  17  19
ENDBRANCH  16  17
ENDBRANCH   6  16
TORSDOF 5
