REMARK  Name = 
REMARK  9 active torsions:
REMARK  status: ('A' for Active; 'I' for Inactive)
REMARK    1  A    between atoms: C_1  and  C_2
REMARK    2  A    between atoms: C_2  and  O_3
REMARK    3  A    between atoms: O_3  and  C_4
REMARK    4  A    between atoms: C_10  and  C_11
REMARK    5  A    between atoms: C_11  and  O_12
REMARK    6  A    between atoms: N_15  and  C_16
REMARK    7  A    between atoms: C_16  and  C_17
REMARK    8  A    between atoms: C_20  and  C_23
REMARK    9  A    between atoms: C_28  and  C_29
REMARK                            x       y       z     vdW  Elec       q    Type
REMARK                         _______ _______ _______ _____ _____    ______ ____
ROOT
ATOM      1  C   UNL     1       6.199  -1.668  -0.217  0.00  0.00    -0.028 A 
ATOM      2  C   UNL     1       7.022  -1.343  -1.302  0.00  0.00    +0.006 A 
ATOM      3  C   UNL     1       8.058  -2.208  -1.697  0.00  0.00    +0.009 A 
ATOM      4  C   UNL     1       8.283  -3.443  -1.056  0.00  0.00    -0.017 A 
ATOM      5  C   UNL     1       7.416  -3.760   0.002  0.00  0.00    +0.009 A 
ATOM      6  C   UNL     1       6.419  -2.883   0.436  0.00  0.00    +0.006 A 
ENDROOT
BRANCH   4   7
ATOM      7  C   UNL     1       9.335  -4.400  -1.518  0.00  0.00    -0.007 A 
ATOM      8  C   UNL     1      10.119  -5.227  -0.663  0.00  0.00    +0.030 A 
ATOM      9  C   UNL     1      10.982  -6.200  -1.215  0.00  0.00    +0.012 A 
ATOM     10  C   UNL     1      11.120  -6.346  -2.592  0.00  0.00    +0.001 A 
ATOM     11  C   UNL     1      10.402  -5.518  -3.441  0.00  0.00    +0.001 A 
ATOM     12  C   UNL     1       9.523  -4.568  -2.912  0.00  0.00    +0.009 A 
BRANCH   8  13
ATOM     13  C   UNL     1      10.079  -5.151   0.792  0.00  0.00    +0.205 A 
ATOM     14  N   UNL     1      10.017  -6.272   1.592  0.00  0.00    -0.108 NA
ATOM     15  N   UNL     1       9.865  -5.844   2.839  0.00  0.00    -0.049 NA
ATOM     16  N   UNL     1       9.850  -4.507   2.735  0.00  0.00    -0.176 N 
ATOM     17  H   UNL     1       9.660  -3.904   3.532  0.00  0.00    +0.214 HD
ATOM     18  N   UNL     1      10.061  -4.017   1.507  0.00  0.00    -0.133 NA
ENDBRANCH   8  13
ENDBRANCH   4   7
BRANCH   1  19
ATOM     19  C   UNL     1       5.022  -0.824   0.199  0.00  0.00    +0.162 C 
BRANCH  19  21
ATOM     20  C   UNL     1       4.484   1.588  -0.007  0.00  0.00    +0.299 A 
ATOM     21  N   UNL     1       5.311   0.581   0.440  0.00  0.00    -0.289 N 
ATOM     22  C   UNL     1       6.409   1.177   1.038  0.00  0.00    +0.086 A 
ATOM     23  C   UNL     1       6.292   2.511   0.627  0.00  0.00    +0.094 A 
ATOM     24  C   UNL     1       7.336   3.420   0.853  0.00  0.00    +0.030 A 
ATOM     25  C   UNL     1       8.486   2.984   1.510  0.00  0.00    +0.003 A 
ATOM     26  C   UNL     1       8.555   1.685   2.012  0.00  0.00    +0.017 A 
ATOM     27  C   UNL     1       7.504   0.763   1.826  0.00  0.00    +0.084 A 
ATOM     28  N   UNL     1       5.074   2.754   0.051  0.00  0.00    -0.195 NA
BRANCH  27  29
ATOM     29  C   UNL     1       7.594  -0.516   2.569  0.00  0.00    +0.339 C 
ATOM     30  O   UNL     1       8.638  -1.092   2.825  0.00  0.00    -0.245 OA
BRANCH  29  31
ATOM     31  O   UNL     1       6.403  -0.906   3.077  0.00  0.00    -0.477 OA
ATOM     32  H   UNL     1       5.720  -0.211   3.041  0.00  0.00    +0.295 HD
ENDBRANCH  29  31
ENDBRANCH  27  29
BRANCH  20  33
ATOM     33  O   UNL     1       3.259   1.362  -0.478  0.00  0.00    -0.464 OA
BRANCH  33  35
ATOM     34  C   UNL     1       1.133   2.189  -1.243  0.00  0.00    +0.048 C 
ATOM     35  C   UNL     1       2.430   2.531  -0.529  0.00  0.00    +0.229 C 
ENDBRANCH  33  35
ENDBRANCH  20  33
ENDBRANCH  19  21
ENDBRANCH   1  19
TORSDOF 8
