REMARK  Name = 
REMARK  13 active torsions:
REMARK  status: ('A' for Active; 'I' for Inactive)
REMARK    1  A    between atoms: C_1  and  C_2
REMARK    2  A    between atoms: C_2  and  C_3
REMARK    3  A    between atoms: C_3  and  C_4
REMARK    4  A    between atoms: C_4  and  O_5
REMARK    5  A    between atoms: O_5  and  C_6
REMARK    6  A    between atoms: C_14  and  C_16
REMARK    7  A    between atoms: N_18  and  C_19
REMARK    8  A    between atoms: C_19  and  C_20
REMARK    9  A    between atoms: C_20  and  N_21
REMARK   10  A    between atoms: N_21  and  C_22
REMARK   11  A    between atoms: N_21  and  C_24
REMARK   12  A    between atoms: C_22  and  C_23
REMARK   13  A    between atoms: C_24  and  C_25
REMARK                            x       y       z     vdW  Elec       q    Type
REMARK                         _______ _______ _______ _____ _____    ______ ____
ROOT
ATOM      1  C   UNL     1       6.344   2.515  -1.713  0.00  0.00    +0.216 A 
ATOM      2  C   UNL     1       7.104   1.373  -1.842  0.00  0.00    +0.081 A 
ATOM      3  C   UNL     1       8.474   1.534  -2.064  0.00  0.00    +0.051 A 
ATOM      4  C   UNL     1       9.049   2.840  -2.120  0.00  0.00    +0.013 A 
ATOM      5  C   UNL     1       8.164   3.920  -1.945  0.00  0.00    +0.076 A 
ATOM      6  C   UNL     1       8.644   5.223  -1.997  0.00  0.00    +0.028 A 
ATOM      7  C   UNL     1       9.987   5.507  -2.234  0.00  0.00    +0.002 A 
ATOM      8  C   UNL     1      10.881   4.463  -2.402  0.00  0.00    +0.001 A 
ATOM      9  C   UNL     1      10.422   3.145  -2.335  0.00  0.00    +0.011 A 
ATOM     10  N   UNL     1       6.851   3.762  -1.742  0.00  0.00    -0.213 NA
ENDROOT
BRANCH   3  11
ATOM     11  C   UNL     1       9.296   0.322  -2.353  0.00  0.00    +0.245 C 
ATOM     12  N   UNL     1       9.012  -0.836  -1.649  0.00  0.00    -0.310 N 
ATOM     13  H   UNL     1       8.327  -0.850  -0.903  0.00  0.00    +0.149 HD
ATOM     14  O   UNL     1      10.193   0.367  -3.188  0.00  0.00    -0.270 OA
BRANCH  12  15
ATOM     15  C   UNL     1       9.886  -1.987  -1.806  0.00  0.00    +0.120 C 
BRANCH  15  16
ATOM     16  C   UNL     1       9.421  -3.258  -1.071  0.00  0.00    +0.103 C 
BRANCH  16  17
ATOM     17  N   UNL     1       8.102  -3.816  -1.454  0.00  0.00    -0.301 NA
BRANCH  17  18
ATOM     18  C   UNL     1       7.819  -4.997  -0.614  0.00  0.00    +0.081 C 
ATOM     19  C   UNL     1       6.447  -5.625  -0.837  0.00  0.00    +0.020 C 
ENDBRANCH  17  18
BRANCH  17  20
ATOM     20  C   UNL     1       7.981  -4.079  -2.900  0.00  0.00    +0.081 C 
ATOM     21  C   UNL     1       8.865  -5.186  -3.473  0.00  0.00    +0.020 C 
ENDBRANCH  17  20
ENDBRANCH  16  17
ENDBRANCH  15  16
ENDBRANCH  12  15
ENDBRANCH   3  11
BRANCH   1  22
ATOM     22  O   UNL     1       4.980   2.358  -1.544  0.00  0.00    -0.476 OA
BRANCH  22  23
ATOM     23  C   UNL     1       4.262   3.517  -1.990  0.00  0.00    +0.231 C 
BRANCH  23  24
ATOM     24  C   UNL     1       2.765   3.301  -1.778  0.00  0.00    +0.041 C 
BRANCH  24  26
ATOM     25  C   UNL     1       0.469   4.301  -2.115  0.00  0.00    +0.004 C 
ATOM     26  C   UNL     1       1.961   4.476  -2.336  0.00  0.00    -0.000 C 
ENDBRANCH  24  26
ENDBRANCH  23  24
ENDBRANCH  22  23
ENDBRANCH   1  22
TORSDOF 10
