REMARK  Name = 
REMARK  11 active torsions:
REMARK  status: ('A' for Active; 'I' for Inactive)
REMARK    1  A    between atoms: C_2  and  C_3
REMARK    2  A    between atoms: C_3  and  C_5
REMARK    3  A    between atoms: C_3  and  O_6
REMARK    4  A    between atoms: C_10  and  C_11
REMARK    5  A    between atoms: C_11  and  O_12
REMARK    6  A    between atoms: C_14  and  S_15
REMARK    7  A    between atoms: S_15  and  C_16
REMARK    8  A    between atoms: C_20  and  C_23
REMARK    9  A    between atoms: N_25  and  C_26
REMARK   10  A    between atoms: N_25  and  C_27
REMARK   11  A    between atoms: C_28  and  C_30
REMARK                            x       y       z     vdW  Elec       q    Type
REMARK                         _______ _______ _______ _____ _____    ______ ____
ROOT
ATOM      1  C   UNL     1       0.354  -0.011  -1.583  0.00  0.00    +0.125 C 
ATOM      2  C   UNL     1      -0.512  -1.204  -2.105  0.00  0.00    +0.104 C 
ATOM      3  N   UNL     1      -0.640  -1.636  -0.684  0.00  0.00    -0.260 N 
ATOM      4  C   UNL     1      -0.120  -2.916  -0.563  0.00  0.00    +0.131 C 
ATOM      5  C   UNL     1       0.275  -3.417  -1.752  0.00  0.00    +0.019 C 
ATOM      6  C   UNL     1       0.033  -2.419  -2.862  0.00  0.00    +0.046 C 
ATOM      7  C   UNL     1       1.230  -2.056  -3.729  0.00  0.00    +0.015 C 
ATOM      8  C   UNL     1       0.044  -0.566  -0.185  0.00  0.00    +0.228 C 
ATOM      9  O   UNL     1       0.294  -0.303   0.970  0.00  0.00    -0.275 OA
ENDROOT
BRANCH   4  10
ATOM     10  C   UNL     1      -0.077  -3.578   0.782  0.00  0.00    +0.352 C 
ATOM     11  O   UNL     1       0.339  -4.705   1.002  0.00  0.00    -0.244 OA
BRANCH  10  12
ATOM     12  O   UNL     1      -0.635  -2.837   1.767  0.00  0.00    -0.476 OA
ATOM     13  H   UNL     1      -0.805  -1.908   1.502  0.00  0.00    +0.295 HD
ENDBRANCH  10  12
ENDBRANCH   4  10
BRANCH   1  14
ATOM     14  C   UNL     1      -0.177   1.377  -1.883  0.00  0.00    +0.125 C 
ATOM     15  C   UNL     1       0.540   2.417  -1.035  0.00  0.00    +0.038 C 
BRANCH  14  16
ATOM     16  O   UNL     1       0.088   1.675  -3.254  0.00  0.00    -0.391 OA
ATOM     17  H   UNL     1      -0.662   1.362  -3.788  0.00  0.00    +0.210 HD
ENDBRANCH  14  16
ENDBRANCH   1  14
BRANCH   5  18
ATOM     18  S   UNL     1       1.057  -4.915  -2.072  0.00  0.00    -0.122 S 
BRANCH  18  19
ATOM     19  C   UNL     1      -0.278  -6.054  -2.599  0.00  0.00    +0.067 C 
ATOM     20  C   UNL     1      -1.329  -6.298  -1.525  0.00  0.00    +0.044 C 
ATOM     21  C   UNL     1      -2.577  -5.517  -1.949  0.00  0.00    +0.142 C 
ATOM     22  N   UNL     1      -2.228  -4.907  -3.254  0.00  0.00    -0.305 NA
ATOM     23  H   UNL     1      -3.035  -4.860  -3.870  0.00  0.00    +0.123 HD
ATOM     24  C   UNL     1      -1.106  -5.648  -3.811  0.00  0.00    +0.096 C 
BRANCH  21  25
ATOM     25  C   UNL     1      -3.049  -4.409  -0.962  0.00  0.00    +0.232 C 
ATOM     26  N   UNL     1      -3.362  -4.762   0.346  0.00  0.00    -0.306 N 
ATOM     27  C   UNL     1      -3.757  -3.721   1.285  0.00  0.00    +0.131 C 
ATOM     28  C   UNL     1      -3.353  -6.109   0.893  0.00  0.00    +0.131 C 
ATOM     29  O   UNL     1      -3.187  -3.240  -1.345  0.00  0.00    -0.274 OA
ENDBRANCH  21  25
ENDBRANCH  18  19
ENDBRANCH   5  18
TORSDOF 7
