REMARK  Name = 
REMARK  9 active torsions:
REMARK  status: ('A' for Active; 'I' for Inactive)
REMARK    1  A    between atoms: C_1  and  C_2
REMARK    2  A    between atoms: C_3  and  C_7
REMARK    3  A    between atoms: C_7  and  C_21
REMARK    4  A    between atoms: C_8  and  C_9
REMARK    5  A    between atoms: C_9  and  C_10
REMARK    6  A    between atoms: C_10  and  N_11
REMARK    7  A    between atoms: C_15  and  C_18
REMARK    8  A    between atoms: C_18  and  O_19
REMARK    9  A    between atoms: C_22  and  C_23
REMARK                            x       y       z     vdW  Elec       q    Type
REMARK                         _______ _______ _______ _____ _____    ______ ____
ROOT
ATOM      1  C   UNL     1       2.686   2.447  -0.134  0.00  0.00    -0.001 C 
ATOM      2  C   UNL     1       1.354   2.642  -0.293  0.00  0.00    -0.016 C 
ENDROOT
BRANCH   1   8
ATOM      3  C   UNL     1       3.586   0.002  -2.167  0.00  0.00    +0.045 C 
ATOM      4  C   UNL     1       3.578   0.050  -0.673  0.00  0.00    -0.036 A 
ATOM      5  C   UNL     1       4.073  -1.066   0.085  0.00  0.00    +0.011 A 
ATOM      6  C   UNL     1       4.039  -0.851   1.439  0.00  0.00    +0.046 A 
ATOM      7  S   UNL     1       3.410   0.685   1.823  0.00  0.00    -0.096 S 
ATOM      8  C   UNL     1       3.174   1.108   0.157  0.00  0.00    +0.023 A 
ENDBRANCH   1   8
BRANCH   1   9
ATOM      9  C   UNL     1       3.574   3.611  -0.193  0.00  0.00    +0.023 A 
ATOM     10  S   UNL     1       5.199   3.373  -0.784  0.00  0.00    -0.096 S 
ATOM     11  C   UNL     1       5.641   4.993  -0.542  0.00  0.00    +0.046 A 
ATOM     12  C   UNL     1       4.605   5.731  -0.037  0.00  0.00    +0.011 A 
ATOM     13  C   UNL     1       3.411   4.956   0.183  0.00  0.00    -0.036 A 
ATOM     14  C   UNL     1       2.208   5.634   0.772  0.00  0.00    +0.045 C 
ENDBRANCH   1   9
BRANCH   2  15
ATOM     15  C   UNL     1       0.244   1.628  -0.089  0.00  0.00    +0.043 C 
BRANCH  15  16
ATOM     16  C   UNL     1      -1.205   2.201  -0.194  0.00  0.00    +0.088 C 
BRANCH  16  17
ATOM     17  N   UNL     1      -2.227   1.157  -0.014  0.00  0.00    -0.301 NA
ATOM     18  C   UNL     1      -3.496   1.342  -0.730  0.00  0.00    +0.099 C 
ATOM     19  C   UNL     1      -4.841   1.287   0.040  0.00  0.00    +0.112 C 
ATOM     20  C   UNL     1      -4.772   0.903   1.520  0.00  0.00    +0.017 C 
ATOM     21  C   UNL     1      -3.429   1.233   2.144  0.00  0.00    +0.016 C 
ATOM     22  C   UNL     1      -2.321   0.592   1.322  0.00  0.00    +0.084 C 
BRANCH  19  23
ATOM     23  C   UNL     1      -5.671   2.522  -0.272  0.00  0.00    +0.309 C 
ATOM     24  O   UNL     1      -6.262   2.664  -1.336  0.00  0.00    -0.251 OA
BRANCH  23  25
ATOM     25  O   UNL     1      -5.696   3.486   0.669  0.00  0.00    -0.480 OA
ATOM     26  H   UNL     1      -5.177   3.309   1.473  0.00  0.00    +0.295 HD
ENDBRANCH  23  25
ENDBRANCH  19  23
ENDBRANCH  16  17
ENDBRANCH  15  16
ENDBRANCH   2  15
TORSDOF 7
