REMARK  Name = 
REMARK  5 active torsions:
REMARK  status: ('A' for Active; 'I' for Inactive)
REMARK    1  A    between atoms: N_1  and  CA_2
REMARK    2  A    between atoms: CA_2  and  CB_4
REMARK    3  A    between atoms: CA_2  and  C_8
REMARK    4  A    between atoms: CB_4  and  CG_5
REMARK    5  A    between atoms: C_8  and  O_9
REMARK                            x       y       z     vdW  Elec       q    Type
REMARK                         _______ _______ _______ _____ _____    ______ ____
ROOT
ATOM      1  CA  ASN A   1       2.382   0.100  -0.124  0.00  0.00    +0.169 C 
ENDROOT
BRANCH   1   2
ATOM      2  N   ASN A   1       0.896   0.038  -0.339  0.00  0.00    -0.318 NA
ATOM      3  H1  ASN A   1       0.660  -0.879  -0.737  0.00  0.00    +0.119 HD
ATOM      4  H2  ASN A   1       0.452   0.020   0.585  0.00  0.00    +0.119 HD
ENDBRANCH   1   2
BRANCH   1   5
ATOM      5  C   ASN A   1       3.033   0.603  -1.426  0.00  0.00    +0.322 C 
ATOM      6  OXT ASN A   1       4.236   0.722  -1.599  0.00  0.00    -0.249 OA
BRANCH   5   7
ATOM      7  O   ASN A   1       2.104   0.957  -2.345  0.00  0.00    -0.480 OA
ATOM      8  H   ASN A   1       1.224   0.830  -1.909  0.00  0.00    +0.295 HD
ENDBRANCH   5   7
ENDBRANCH   1   5
BRANCH   1   9
ATOM      9  CB  ASN A   1       2.919  -1.263   0.291  0.00  0.00    +0.125 C 
BRANCH   9  10
ATOM     10  CG  ASN A   1       4.409  -1.379   0.547  0.00  0.00    +0.213 C 
ATOM     11  OD1 ASN A   1       4.995  -2.454   0.443  0.00  0.00    -0.276 OA
ATOM     12  ND2 ASN A   1       5.073  -0.292   1.029  0.00  0.00    -0.329 N 
ATOM     13 HD21 ASN A   1       6.072  -0.454   1.107  0.00  0.00    +0.145 HD
ATOM     14 HD22 ASN A   1       4.861   0.623   0.650  0.00  0.00    +0.145 HD
ENDBRANCH   9  10
ENDBRANCH   1   9
TORSDOF 5
