REMARK  Name = 
REMARK  9 active torsions:
REMARK  status: ('A' for Active; 'I' for Inactive)
REMARK    1  A    between atoms: N_6  and  C_7
REMARK    2  A    between atoms: C_7  and  C_8
REMARK    3  A    between atoms: C_8  and  C_10
REMARK    4  A    between atoms: C_8  and  O_12
REMARK    5  A    between atoms: C_10  and  O_11
REMARK    6  A    between atoms: O_12  and  C_13
REMARK    7  A    between atoms: C_13  and  P_14
REMARK    8  A    between atoms: P_14  and  O_15
REMARK    9  A    between atoms: P_14  and  O_16
REMARK                            x       y       z     vdW  Elec       q    Type
REMARK                         _______ _______ _______ _____ _____    ______ ____
ROOT
ATOM      1  C   UNL     1       7.079  -1.400  -0.132  0.00  0.00    +0.164 C 
ENDROOT
BRANCH   1   2
ATOM      2  C   UNL     1       6.489  -0.013   0.169  0.00  0.00    +0.160 C 
BRANCH   2   9
ATOM      3  N   UNL     1       1.177   1.137   0.790  0.00  0.00    -0.343 N 
ATOM      4  H   UNL     1       0.583   0.642   1.442  0.00  0.00    +0.144 HD
ATOM      5  H   UNL     1       0.724   1.373  -0.088  0.00  0.00    +0.144 HD
ATOM      6  C   UNL     1       2.460   0.706   0.621  0.00  0.00    +0.123 A 
ATOM      7  C   UNL     1       3.177   0.072   1.750  0.00  0.00    +0.061 A 
ATOM      8  C   UNL     1       4.464  -0.203   1.527  0.00  0.00    +0.094 A 
ATOM      9  N   UNL     1       5.046   0.062   0.310  0.00  0.00    -0.296 N 
ATOM     10  C   UNL     1       4.298   0.562  -0.767  0.00  0.00    +0.350 A 
ATOM     11  O   UNL     1       4.824   0.718  -1.869  0.00  0.00    -0.244 OA
ATOM     12  N   UNL     1       2.986   0.897  -0.544  0.00  0.00    -0.178 NA
ENDBRANCH   2   9
ENDBRANCH   1   2
BRANCH   1  13
ATOM     13  O   UNL     1       8.529  -1.313  -0.117  0.00  0.00    -0.360 OA
BRANCH  13  14
ATOM     14  C   UNL     1       9.073  -1.209   1.213  0.00  0.00    +0.286 C 
BRANCH  14  15
ATOM     15  P   UNL     1      10.755  -0.553   1.065  0.00  0.00    +0.353 P 
ATOM     16  O   UNL     1      11.826  -1.428   1.620  0.00  0.00    -0.256 OA
BRANCH  15  17
ATOM     17  O   UNL     1      10.635   0.901   1.738  0.00  0.00    -0.323 OA
ATOM     18  H   UNL     1      10.435   0.894   2.692  0.00  0.00    +0.220 HD
ENDBRANCH  15  17
BRANCH  15  19
ATOM     19  O   UNL     1      10.879  -0.188  -0.494  0.00  0.00    -0.323 OA
ATOM     20  H   UNL     1      10.070  -0.433  -0.989  0.00  0.00    +0.220 HD
ENDBRANCH  15  19
ENDBRANCH  14  15
ENDBRANCH  13  14
ENDBRANCH   1  13
BRANCH   1  21
ATOM     21  C   UNL     1       6.663  -1.890  -1.530  0.00  0.00    +0.189 C 
BRANCH  21  22
ATOM     22  O   UNL     1       7.214  -3.183  -1.788  0.00  0.00    -0.392 OA
ATOM     23  H   UNL     1       8.176  -3.062  -1.877  0.00  0.00    +0.210 HD
ENDBRANCH  21  22
ENDBRANCH   1  21
TORSDOF 9
