REMARK  Name = 
REMARK  9 active torsions:
REMARK  status: ('A' for Active; 'I' for Inactive)
REMARK    1  A    between atoms: C_1  and  O_2
REMARK    2  A    between atoms: O_2  and  C_3
REMARK    3  A    between atoms: C_8  and  O_9
REMARK    4  A    between atoms: O_9  and  C_10
REMARK    5  A    between atoms: C_10  and  C_11
REMARK    6  A    between atoms: C_11  and  O_12
REMARK    7  A    between atoms: C_11  and  C_13
REMARK    8  A    between atoms: C_13  and  O_14
REMARK    9  A    between atoms: O_14  and  C_15
REMARK                            x       y       z     vdW  Elec       q    Type
REMARK                         _______ _______ _______ _____ _____    ______ ____
ROOT
ATOM      1  C   UNL     1       2.730  -2.407  -0.362  0.00  0.00    +0.264 C 
ENDROOT
BRANCH   1   2
ATOM      2  O   UNL     1       3.367  -1.944  -1.549  0.00  0.00    -0.486 OA
BRANCH   2   4
ATOM      3  C   UNL     1       2.887   0.493  -1.184  0.00  0.00    +0.161 A 
ATOM      4  C   UNL     1       3.384  -0.618  -1.888  0.00  0.00    +0.162 A 
ATOM      5  C   UNL     1       4.018  -0.406  -3.123  0.00  0.00    +0.049 A 
ATOM      6  C   UNL     1       4.189   0.876  -3.644  0.00  0.00    +0.004 A 
ATOM      7  C   UNL     1       3.735   1.973  -2.927  0.00  0.00    +0.004 A 
ATOM      8  C   UNL     1       3.093   1.783  -1.703  0.00  0.00    +0.049 A 
BRANCH   3  10
ATOM      9  C   UNL     1       1.292   1.266   0.393  0.00  0.00    +0.277 C 
ATOM     10  O   UNL     1       2.290   0.309   0.039  0.00  0.00    -0.491 OA
ENDBRANCH   3  10
ENDBRANCH   2   4
ENDBRANCH   1   2
BRANCH   1  11
ATOM     11  C   UNL     1       3.691  -2.479   0.842  0.00  0.00    +0.189 C 
BRANCH  11  12
ATOM     12  O   UNL     1       4.312  -1.221   1.138  0.00  0.00    -0.385 OA
ATOM     13  H   UNL     1       3.649  -0.525   0.972  0.00  0.00    +0.210 HD
ENDBRANCH  11  12
BRANCH  11  14
ATOM     14  C   UNL     1       2.919  -2.945   2.085  0.00  0.00    +0.268 C 
BRANCH  14  15
ATOM     15  O   UNL     1       3.758  -3.008   3.249  0.00  0.00    -0.448 OA
BRANCH  15  16
ATOM     16  C   UNL     1       4.523  -4.115   3.350  0.00  0.00    +0.398 C 
ATOM     17  O   UNL     1       4.559  -5.043   2.560  0.00  0.00    -0.227 OA
ATOM     18  N   UNL     1       5.260  -4.065   4.483  0.00  0.00    -0.295 N 
ATOM     19  H   UNL     1       5.928  -4.795   4.664  0.00  0.00    +0.148 HD
ATOM     20  H   UNL     1       5.236  -3.230   5.050  0.00  0.00    +0.148 HD
ENDBRANCH  15  16
ENDBRANCH  14  15
ENDBRANCH  11  14
ENDBRANCH   1  11
TORSDOF 8
