REMARK  Name = 
REMARK  3 active torsions:
REMARK  status: ('A' for Active; 'I' for Inactive)
REMARK    1  A    between atoms: N_1  and  C_2
REMARK    2  A    between atoms: C_2  and  C_3
REMARK    3  A    between atoms: C_3  and  C_4
REMARK                            x       y       z     vdW  Elec       q    Type
REMARK                         _______ _______ _______ _____ _____    ______ ____
ROOT
ATOM      1  C   UNL     1       4.561  -1.133  -0.735  0.00  0.00    +0.037 A 
ATOM      2  N   UNL     1       5.270   0.039  -0.660  0.00  0.00    -0.282 N 
ATOM      3  H   UNL     1       4.882   0.978  -0.576  0.00  0.00    +0.189 HD
ATOM      4  N   UNL     1       6.601  -0.133  -0.692  0.00  0.00    -0.182 NA
ATOM      5  C   UNL     1       6.743  -1.456  -0.801  0.00  0.00    +0.134 A 
ATOM      6  C   UNL     1       5.507  -2.129  -0.833  0.00  0.00    +0.044 A 
ENDROOT
BRANCH   1   7
ATOM      7  C   UNL     1       3.068  -1.161  -0.731  0.00  0.00    +0.069 C 
BRANCH   7   8
ATOM      8  C   UNL     1       2.423  -0.027   0.085  0.00  0.00    +0.084 C 
BRANCH   8   9
ATOM      9  N   UNL     1       2.745   1.307  -0.444  0.00  0.00    -0.330 NA
ATOM     10  H   UNL     1       2.347   1.397  -1.381  0.00  0.00    +0.118 HD
ATOM     11  H   UNL     1       2.268   2.009   0.125  0.00  0.00    +0.118 HD
ENDBRANCH   8   9
ENDBRANCH   7   8
ENDBRANCH   1   7
TORSDOF 3
