REMARK  Name = 
REMARK  0 active torsions:
REMARK  status: ('A' for Active; 'I' for Inactive)
REMARK                            x       y       z     vdW  Elec       q    Type
REMARK                         _______ _______ _______ _____ _____    ______ ____
ROOT
ATOM      1  N   UNL     1       1.188   0.042  -0.120  0.00  0.00    -0.329 N 
ATOM      2  H   UNL     1       0.769   0.775   0.438  0.00  0.00    +0.145 HD
ATOM      3  H   UNL     1       0.729  -0.852   0.023  0.00  0.00    +0.145 HD
ATOM      4  C   UNL     1       2.539  -0.072  -0.021  0.00  0.00    +0.193 A 
ATOM      5  N   UNL     1       3.172   1.136   0.057  0.00  0.00    -0.311 N 
ATOM      6  H   UNL     1       2.678   2.000  -0.105  0.00  0.00    +0.170 HD
ATOM      7  C   UNL     1       4.502   1.085   0.072  0.00  0.00    +0.161 A 
ATOM      8  N   UNL     1       5.347   2.142   0.063  0.00  0.00    -0.218 NA
ATOM      9  C   UNL     1       6.545   1.590   0.070  0.00  0.00    +0.199 A 
ATOM     10  N   UNL     1       6.478   0.218   0.081  0.00  0.00    -0.341 N 
ATOM     11  H   UNL     1       7.258  -0.426   0.078  0.00  0.00    +0.167 HD
ATOM     12  C   UNL     1       5.151  -0.117   0.077  0.00  0.00    +0.116 A 
ATOM     13  C   UNL     1       4.456  -1.368   0.057  0.00  0.00    +0.138 A 
ATOM     14  S   UNL     1       5.328  -2.794   0.105  0.00  0.00    -0.028 S 
ATOM     15  N   UNL     1       3.078  -1.257  -0.014  0.00  0.00    -0.207 NA
ENDROOT
TORSDOF 0
