REMARK  Name = 
REMARK  9 active torsions:
REMARK  status: ('A' for Active; 'I' for Inactive)
REMARK    1  A    between atoms: C_1  and  C_2
REMARK    2  A    between atoms: C_2  and  C_3
REMARK    3  A    between atoms: C_3  and  N_4
REMARK    4  A    between atoms: N_4  and  C_5
REMARK    5  A    between atoms: N_4  and  C_8
REMARK    6  A    between atoms: C_5  and  C_6
REMARK    7  A    between atoms: C_6  and  C_7
REMARK    8  A    between atoms: C_8  and  C_9
REMARK    9  A    between atoms: C_9  and  C_10
REMARK                            x       y       z     vdW  Elec       q    Type
REMARK                         _______ _______ _______ _____ _____    ______ ____
ROOT
ATOM      1  C   UNL     1       6.948  -2.749  -3.256  0.00  0.00    -0.041 A 
ATOM      2  C   UNL     1       7.128  -4.125  -3.022  0.00  0.00    +0.004 A 
ATOM      3  C   UNL     1       7.499  -5.003  -4.059  0.00  0.00    +0.002 A 
ATOM      4  C   UNL     1       7.694  -4.530  -5.357  0.00  0.00    +0.023 A 
ATOM      5  C   UNL     1       7.512  -3.182  -5.569  0.00  0.00    +0.037 A 
ATOM      6  N   UNL     1       7.644  -2.494  -6.764  0.00  0.00    -0.285 N 
ATOM      7  H   UNL     1       7.896  -2.898  -7.654  0.00  0.00    +0.155 HD
ATOM      8  C   UNL     1       7.381  -1.142  -6.600  0.00  0.00    +0.222 C 
ATOM      9  O   UNL     1       7.418  -0.297  -7.478  0.00  0.00    -0.275 OA
ATOM     10  C   UNL     1       7.038  -0.913  -5.125  0.00  0.00    +0.133 C 
ATOM     11  C   UNL     1       7.149  -2.298  -4.553  0.00  0.00    -0.014 A 
ENDROOT
BRANCH   1  12
ATOM     12  C   UNL     1       6.508  -1.832  -2.141  0.00  0.00    +0.051 C 
BRANCH  12  13
ATOM     13  C   UNL     1       4.972  -1.768  -2.047  0.00  0.00    +0.089 C 
BRANCH  13  14
ATOM     14  N   UNL     1       4.426  -0.922  -0.959  0.00  0.00    -0.302 NA
BRANCH  14  15
ATOM     15  C   UNL     1       2.950  -0.936  -1.043  0.00  0.00    +0.084 C 
BRANCH  15  17
ATOM     16  C   UNL     1       2.506   1.433  -0.181  0.00  0.00    +0.005 C 
ATOM     17  C   UNL     1       2.188  -0.048  -0.048  0.00  0.00    +0.012 C 
ENDBRANCH  15  17
ENDBRANCH  14  15
BRANCH  14  18
ATOM     18  C   UNL     1       4.947  -1.274   0.374  0.00  0.00    +0.084 C 
BRANCH  18  19
ATOM     19  C   UNL     1       4.699  -2.717   0.836  0.00  0.00    +0.012 C 
ATOM     20  C   UNL     1       5.331  -2.982   2.194  0.00  0.00    +0.005 C 
ENDBRANCH  18  19
ENDBRANCH  14  18
ENDBRANCH  13  14
ENDBRANCH  12  13
ENDBRANCH   1  12
TORSDOF 7
