REMARK  Name = 
REMARK  8 active torsions:
REMARK  status: ('A' for Active; 'I' for Inactive)
REMARK    1  A    between atoms: C_1  and  O_2
REMARK    2  A    between atoms: O_2  and  C_3
REMARK    3  A    between atoms: C_7  and  C_9
REMARK    4  A    between atoms: C_9  and  O_10
REMARK    5  A    between atoms: C_15  and  C_17
REMARK    6  A    between atoms: C_17  and  N_18
REMARK    7  A    between atoms: N_18  and  C_19
REMARK    8  A    between atoms: N_18  and  C_20
REMARK                            x       y       z     vdW  Elec       q    Type
REMARK                         _______ _______ _______ _____ _____    ______ ____
ROOT
ATOM      1  C   UNL     1       2.434  -4.836  -0.040  0.00  0.00    +0.095 C 
ATOM      2  C   UNL     1       1.615  -5.034   1.281  0.00  0.00    +0.039 C 
ATOM      3  C   UNL     1       2.362  -5.966   2.257  0.00  0.00    +0.008 C 
ATOM      4  C   UNL     1       2.682  -7.325   1.646  0.00  0.00    +0.001 C 
ATOM      5  C   UNL     1       3.526  -7.178   0.389  0.00  0.00    +0.003 C 
ATOM      6  C   UNL     1       2.930  -6.189  -0.611  0.00  0.00    +0.040 C 
ENDROOT
BRANCH   1   9
ATOM      7  C   UNL     1       5.755  -2.940   0.571  0.00  0.00    +0.120 A 
ATOM      8  C   UNL     1       4.860  -3.969   0.252  0.00  0.00    +0.052 A 
ATOM      9  C   UNL     1       3.481  -3.733   0.191  0.00  0.00    -0.012 A 
ATOM     10  C   UNL     1       3.032  -2.410   0.401  0.00  0.00    +0.007 A 
ATOM     11  C   UNL     1       3.919  -1.374   0.700  0.00  0.00    +0.004 A 
ATOM     12  C   UNL     1       5.278  -1.647   0.792  0.00  0.00    +0.045 A 
BRANCH   7  14
ATOM     13  C   UNL     1       7.641  -4.386   0.527  0.00  0.00    +0.277 C 
ATOM     14  O   UNL     1       7.110  -3.079   0.713  0.00  0.00    -0.495 OA
ENDBRANCH   7  14
ENDBRANCH   1   9
BRANCH   1  15
ATOM     15  O   UNL     1       1.577  -4.308  -1.072  0.00  0.00    -0.384 OA
ATOM     16  H   UNL     1       2.160  -3.987  -1.785  0.00  0.00    +0.211 HD
ENDBRANCH   1  15
BRANCH   2  17
ATOM     17  C   UNL     1       0.152  -5.479   1.023  0.00  0.00    +0.090 C 
BRANCH  17  18
ATOM     18  N   UNL     1      -0.708  -5.532   2.232  0.00  0.00    -0.308 NA
ATOM     19  C   UNL     1      -2.052  -5.975   1.851  0.00  0.00    +0.104 C 
ATOM     20  C   UNL     1      -0.793  -4.227   2.897  0.00  0.00    +0.104 C 
ENDBRANCH  17  18
ENDBRANCH   2  17
TORSDOF 5
