REMARK  Name = 
REMARK  6 active torsions:
REMARK  status: ('A' for Active; 'I' for Inactive)
REMARK    1  A    between atoms: O_1  and  C_2
REMARK    2  A    between atoms: C_2  and  C_3
REMARK    3  A    between atoms: C_2  and  C_11
REMARK    4  A    between atoms: C_2  and  C_17
REMARK    5  A    between atoms: C_3  and  C_4
REMARK    6  A    between atoms: C_4  and  N_5
REMARK                            x       y       z     vdW  Elec       q    Type
REMARK                         _______ _______ _______ _____ _____    ______ ____
ROOT
ATOM      1  C   UNL     1       2.269  -0.193  -0.270  0.00  0.00    +0.095 C 
ENDROOT
BRANCH   1   2
ATOM      2  C   UNL     1       2.588  -0.988  -1.546  0.00  0.00    -0.016 A 
ATOM      3  C   UNL     1       3.908  -1.165  -1.992  0.00  0.00    +0.006 A 
ATOM      4  C   UNL     1       4.188  -1.847  -3.184  0.00  0.00    +0.000 A 
ATOM      5  C   UNL     1       3.153  -2.370  -3.954  0.00  0.00    +0.000 A 
ATOM      6  C   UNL     1       1.838  -2.224  -3.524  0.00  0.00    +0.000 A 
ATOM      7  C   UNL     1       1.561  -1.544  -2.334  0.00  0.00    +0.006 A 
ENDBRANCH   1   2
BRANCH   1   8
ATOM      8  C   UNL     1       2.929  -0.824   1.042  0.00  0.00    +0.025 C 
ATOM      9  C   UNL     1       2.601  -2.301   1.316  0.00  0.00    +0.007 C 
ATOM     10  C   UNL     1       1.201  -2.526   1.875  0.00  0.00    +0.000 C 
ATOM     11  C   UNL     1       0.936  -1.709   3.138  0.00  0.00    +0.000 C 
ATOM     12  C   UNL     1       1.317  -0.241   3.004  0.00  0.00    +0.000 C 
ATOM     13  C   UNL     1       2.694  -0.048   2.374  0.00  0.00    +0.007 C 
ENDBRANCH   1   8
BRANCH   1  14
ATOM     14  O   UNL     1       0.851  -0.128  -0.122  0.00  0.00    -0.384 OA
ATOM     15  H   UNL     1       0.636   0.593   0.495  0.00  0.00    +0.211 HD
ENDBRANCH   1  14
BRANCH   1  16
ATOM     16  C   UNL     1       2.819   1.254  -0.373  0.00  0.00    +0.055 C 
BRANCH  16  17
ATOM     17  C   UNL     1       2.375   2.215  -1.481  0.00  0.00    +0.087 C 
BRANCH  17  18
ATOM     18  N   UNL     1       3.094   3.509  -1.318  0.00  0.00    -0.302 NA
ATOM     19  C   UNL     1       3.030   4.114   0.023  0.00  0.00    +0.084 C 
ATOM     20  C   UNL     1       1.635   4.625   0.365  0.00  0.00    +0.015 C 
ATOM     21  C   UNL     1       1.255   5.722  -0.622  0.00  0.00    +0.002 C 
ATOM     22  C   UNL     1       1.391   5.230  -2.062  0.00  0.00    +0.015 C 
ATOM     23  C   UNL     1       2.723   4.512  -2.327  0.00  0.00    +0.084 C 
ENDBRANCH  17  18
ENDBRANCH  16  17
ENDBRANCH   1  16
TORSDOF 6
