REMARK  Name = 
REMARK  5 active torsions:
REMARK  status: ('A' for Active; 'I' for Inactive)
REMARK    1  A    between atoms: C_1  and  C_2
REMARK    2  A    between atoms: C_2  and  N_3
REMARK    3  A    between atoms: C_5  and  C_6
REMARK    4  A    between atoms: C_6  and  O_7
REMARK    5  A    between atoms: C_14  and  C_17
REMARK                            x       y       z     vdW  Elec       q    Type
REMARK                         _______ _______ _______ _____ _____    ______ ____
ROOT
ATOM      1  N   UNL     1       3.095   1.279   0.524  0.00  0.00    -0.346 N 
ATOM      2  C   UNL     1       2.445   2.429   0.020  0.00  0.00    +0.053 A 
ATOM      3  C   UNL     1       1.459   2.386  -0.981  0.00  0.00    +0.035 A 
ATOM      4  C   UNL     1       0.743   3.524  -1.419  0.00  0.00    -0.016 A 
ATOM      5  C   UNL     1       1.102   4.760  -0.860  0.00  0.00    +0.009 A 
ATOM      6  C   UNL     1       2.118   4.852   0.095  0.00  0.00    +0.014 A 
ATOM      7  C   UNL     1       2.777   3.697   0.531  0.00  0.00    +0.046 A 
ATOM      8  C   UNL     1       3.842   3.816   1.555  0.00  0.00    +0.203 A 
ATOM      9  O   UNL     1       4.154   4.902   2.042  0.00  0.00    -0.286 OA
ATOM     10  C   UNL     1       4.542   2.590   1.982  0.00  0.00    +0.122 A 
ATOM     11  C   UNL     1       4.118   1.434   1.448  0.00  0.00    +0.105 A 
ENDROOT
BRANCH   4  12
ATOM     12  C   UNL     1      -0.366   3.394  -2.399  0.00  0.00    -0.015 A 
ATOM     13  C   UNL     1      -0.698   4.419  -3.294  0.00  0.00    +0.028 A 
ATOM     14  C   UNL     1      -1.763   4.244  -4.170  0.00  0.00    +0.111 A 
ATOM     15  N   UNL     1      -2.513   3.125  -4.231  0.00  0.00    -0.263 NA
ATOM     16  C   UNL     1      -2.189   2.141  -3.372  0.00  0.00    +0.111 A 
ATOM     17  C   UNL     1      -1.153   2.231  -2.456  0.00  0.00    +0.028 A 
ENDBRANCH   4  12
BRANCH   1  19
ATOM     18  C   UNL     1       3.363  -0.546  -1.119  0.00  0.00    +0.027 C 
ATOM     19  C   UNL     1       2.633  -0.064   0.126  0.00  0.00    +0.118 C 
ENDBRANCH   1  19
BRANCH  10  20
ATOM     20  C   UNL     1       5.649   2.571   2.960  0.00  0.00    +0.342 C 
ATOM     21  O   UNL     1       6.221   1.548   3.310  0.00  0.00    -0.245 OA
BRANCH  20  22
ATOM     22  O   UNL     1       5.990   3.786   3.442  0.00  0.00    -0.477 OA
ATOM     23  H   UNL     1       5.440   4.526   3.087  0.00  0.00    +0.295 HD
ENDBRANCH  20  22
ENDBRANCH  10  20
TORSDOF 4
