REMARK  Name = 
REMARK  9 active torsions:
REMARK  status: ('A' for Active; 'I' for Inactive)
REMARK    1  A    between atoms: C_1  and  C_2
REMARK    2  A    between atoms: C_4  and  C_16
REMARK    3  A    between atoms: C_5  and  O_6
REMARK    4  A    between atoms: C_7  and  C_8
REMARK    5  A    between atoms: C_9  and  C_10
REMARK    6  A    between atoms: C_10  and  C_11
REMARK    7  A    between atoms: C_16  and  C_17
REMARK    8  A    between atoms: C_16  and  C_18
REMARK    9  A    between atoms: C_16  and  C_19
REMARK                            x       y       z     vdW  Elec       q    Type
REMARK                         _______ _______ _______ _____ _____    ______ ____
ROOT
ATOM      1  C   UNL     1       1.080   0.451   0.057  0.00  0.00    +0.044 C 
ATOM      2  C   UNL     1       2.567   0.217   0.059  0.00  0.00    -0.046 A 
ATOM      3  C   UNL     1       3.140  -1.069  -0.014  0.00  0.00    -0.027 A 
ATOM      4  C   UNL     1       4.556  -1.174  -0.046  0.00  0.00    -0.005 A 
ATOM      5  C   UNL     1       5.217  -2.529  -0.090  0.00  0.00    +0.048 C 
ATOM      6  C   UNL     1       5.352   0.008  -0.064  0.00  0.00    +0.124 A 
ATOM      7  C   UNL     1       4.804   1.302  -0.042  0.00  0.00    -0.000 A 
ATOM      8  C   UNL     1       3.401   1.355   0.060  0.00  0.00    +0.011 A 
ENDROOT
BRANCH   7   9
ATOM      9  C   UNL     1       5.592   2.638  -0.074  0.00  0.00    -0.009 C 
ATOM     10  C   UNL     1       4.797   3.785  -0.765  0.00  0.00    +0.015 C 
ATOM     11  C   UNL     1       6.942   2.598  -0.831  0.00  0.00    +0.015 C 
ATOM     12  C   UNL     1       5.849   3.062   1.387  0.00  0.00    +0.015 C 
ENDBRANCH   7   9
BRANCH   6  13
ATOM     13  O   UNL     1       6.706  -0.191  -0.096  0.00  0.00    -0.506 OA
ATOM     14  H   UNL     1       7.101   0.429   0.537  0.00  0.00    +0.292 HD
ENDBRANCH   6  13
BRANCH   3  15
ATOM     15  C   UNL     1       2.252  -2.298  -0.143  0.00  0.00    +0.163 C 
BRANCH  15  16
ATOM     16  C   UNL     1       1.821  -3.003   1.127  0.00  0.00    +0.285 C 
ATOM     17  N   UNL     1       2.599  -3.100   2.251  0.00  0.00    -0.233 N 
ATOM     18  H   UNL     1       3.098  -2.271   2.551  0.00  0.00    +0.291 HD
ATOM     19  C   UNL     1       1.915  -3.907   3.234  0.00  0.00    +0.273 C 
ATOM     20  C   UNL     1       0.596  -4.227   2.526  0.00  0.00    +0.333 C 
ATOM     21  N   UNL     1       0.682  -3.649   1.158  0.00  0.00    -0.084 NA
ENDBRANCH  15  16
ENDBRANCH   3  15
TORSDOF 4
