REMARK  Name = 
REMARK  7 active torsions:
REMARK  status: ('A' for Active; 'I' for Inactive)
REMARK    1  A    between atoms: CA_6  and  C_28
REMARK    2  A    between atoms: CA_11  and  N_15
REMARK    3  A    between atoms: C_16  and  C_18
REMARK    4  A    between atoms: C_18  and  S_20
REMARK    5  A    between atoms: C_18  and  C_21
REMARK    6  A    between atoms: C_21  and  C_22
REMARK    7  A    between atoms: C_28  and  O_29
REMARK                            x       y       z     vdW  Elec       q    Type
REMARK                         _______ _______ _______ _____ _____    ______ ____
ROOT
ATOM      1  C   UNK A   1       1.882   0.122  -0.223  0.00  0.00    +0.135 C 
ATOM      2  S   UNK A   1       1.863  -1.362  -1.227  0.00  0.00    -0.138 S 
ATOM      3  C   UNK A   1       3.598  -1.754  -1.461  0.00  0.00    +0.073 C 
ATOM      4  C   UNK A   1       4.311  -0.699  -2.272  0.00  0.00    +0.042 C 
ATOM      5  C   UNK A   1       4.743   0.538  -1.508  0.00  0.00    +0.160 C 
ATOM      6  C   UNK A   1       3.731   1.593  -1.020  0.00  0.00    +0.237 C 
ATOM      7  O   UNK A   1       4.163   2.730  -0.791  0.00  0.00    -0.274 OA
ATOM      8  N   UNK A   1       2.365   1.358  -0.833  0.00  0.00    -0.275 N 
ATOM      9  C   UNK A   1       1.632   2.513  -0.225  0.00  0.00    +0.186 C 
ATOM     10  C   UNK A   1       1.962   2.613   1.284  0.00  0.00    +0.034 C 
ATOM     11  C   UNK A   1       1.690   1.274   1.998  0.00  0.00    +0.005 C 
ATOM     12  C   UNK A   1       2.295   0.055   1.258  0.00  0.00    +0.034 C 
ENDROOT
BRANCH   5  13
ATOM     13  N   UNK A   1       5.735   0.262  -0.467  0.00  0.00    -0.303 N 
ATOM     14  H   UNK A   1       5.414  -0.065   0.432  0.00  0.00    +0.149 HD
ATOM     15  C   UNK A   0       7.077   0.537  -0.652  0.00  0.00    +0.227 C 
ATOM     16  O   UNK A   0       7.522   0.967  -1.715  0.00  0.00    -0.275 OA
BRANCH  15  17
ATOM     17  C   UNK A   0       8.016   0.309   0.546  0.00  0.00    +0.133 C 
BRANCH  17  18
ATOM     18  S   UNK A   0       8.197   1.876   1.465  0.00  0.00    -0.165 S 
ATOM     19  H   UNK A   0       8.888   2.511   0.501  0.00  0.00    +0.102 HD
ENDBRANCH  17  18
BRANCH  17  20
ATOM     20  C   UNK A   0       7.629  -0.843   1.483  0.00  0.00    +0.058 C 
BRANCH  20  21
ATOM     21  C   UNK A   0       7.393  -2.158   0.767  0.00  0.00    -0.046 A 
ATOM     22  C   UNK A   0       6.347  -2.998   1.181  0.00  0.00    +0.004 A 
ATOM     23  C   UNK A   0       6.056  -4.165   0.474  0.00  0.00    +0.000 A 
ATOM     24  C   UNK A   0       6.812  -4.514  -0.643  0.00  0.00    +0.000 A 
ATOM     25  C   UNK A   0       7.882  -3.715  -1.034  0.00  0.00    +0.000 A 
ATOM     26  C   UNK A   0       8.184  -2.557  -0.323  0.00  0.00    +0.004 A 
ENDBRANCH  20  21
ENDBRANCH  17  20
ENDBRANCH  15  17
ENDBRANCH   5  13
BRANCH   9  27
ATOM     27  C   UNK A   1       1.628   3.881  -0.943  0.00  0.00    +0.325 C 
ATOM     28  O   UNK A   2       1.194   4.910  -0.442  0.00  0.00    -0.249 OA
BRANCH  27  29
ATOM     29  O   UNK A   2       1.974   3.816  -2.250  0.00  0.00    -0.479 OA
ATOM     30  H   UNK A   2       2.344   2.941  -2.472  0.00  0.00    +0.295 HD
ENDBRANCH  27  29
ENDBRANCH   9  27
TORSDOF 7
