REMARK  Name = 
REMARK  8 active torsions:
REMARK  status: ('A' for Active; 'I' for Inactive)
REMARK    1  A    between atoms: C_1  and  O_2
REMARK    2  A    between atoms: O_2  and  C_3
REMARK    3  A    between atoms: C_8  and  O_9
REMARK    4  A    between atoms: O_9  and  C_10
REMARK    5  A    between atoms: C_10  and  C_11
REMARK    6  A    between atoms: C_11  and  O_12
REMARK    7  A    between atoms: C_11  and  C_13
REMARK    8  A    between atoms: C_13  and  O_14
REMARK                            x       y       z     vdW  Elec       q    Type
REMARK                         _______ _______ _______ _____ _____    ______ ____
ROOT
ATOM      1  C   UNL     1       2.992  -0.468   1.179  0.00  0.00    +0.161 A 
ATOM      2  C   UNL     1       2.911  -1.861   1.338  0.00  0.00    +0.162 A 
ATOM      3  C   UNL     1       3.638  -2.471   2.374  0.00  0.00    +0.049 A 
ATOM      4  C   UNL     1       4.455  -1.725   3.225  0.00  0.00    +0.004 A 
ATOM      5  C   UNL     1       4.563  -0.352   3.042  0.00  0.00    +0.004 A 
ATOM      6  C   UNL     1       3.844   0.269   2.020  0.00  0.00    +0.049 A 
ENDROOT
BRANCH   1   8
ATOM      7  C   UNL     1       1.927   1.501   0.374  0.00  0.00    +0.277 C 
ATOM      8  O   UNL     1       2.273   0.134   0.179  0.00  0.00    -0.491 OA
ENDBRANCH   1   8
BRANCH   2   9
ATOM      9  O   UNL     1       2.182  -2.772   0.616  0.00  0.00    -0.486 OA
BRANCH   9  10
ATOM     10  C   UNL     1       1.450  -2.316  -0.516  0.00  0.00    +0.262 C 
BRANCH  10  11
ATOM     11  C   UNL     1       0.814  -3.508  -1.238  0.00  0.00    +0.177 C 
BRANCH  11  12
ATOM     12  O   UNL     1       0.002  -3.036  -2.322  0.00  0.00    -0.386 OA
ATOM     13  H   UNL     1       0.601  -2.727  -3.025  0.00  0.00    +0.210 HD
ENDBRANCH  11  12
BRANCH  11  14
ATOM     14  C   UNL     1       1.871  -4.495  -1.759  0.00  0.00    +0.190 C 
BRANCH  14  15
ATOM     15  O   UNL     1       1.272  -5.563  -2.495  0.00  0.00    -0.392 OA
ATOM     16  H   UNL     1       0.400  -5.743  -2.101  0.00  0.00    +0.210 HD
ENDBRANCH  14  15
ENDBRANCH  11  14
ENDBRANCH  10  11
ENDBRANCH   9  10
ENDBRANCH   2   9
TORSDOF 7
