REMARK  Name = 
REMARK  12 active torsions:
REMARK  status: ('A' for Active; 'I' for Inactive)
REMARK    1  A    between atoms: C_1  and  C_2
REMARK    2  A    between atoms: C_7  and  C_10
REMARK    3  A    between atoms: C_10  and  O_11
REMARK    4  A    between atoms: C_13  and  C_15
REMARK    5  A    between atoms: C_15  and  C_17
REMARK    6  A    between atoms: C_15  and  N_24
REMARK    7  A    between atoms: C_17  and  C_18
REMARK    8  A    between atoms: C_18  and  C_19
REMARK    9  A    between atoms: C_19  and  N_20
REMARK   10  A    between atoms: N_24  and  S_25
REMARK   11  A    between atoms: S_25  and  C_28
REMARK   12  A    between atoms: C_36  and  C_38
REMARK                            x       y       z     vdW  Elec       q    Type
REMARK                         _______ _______ _______ _____ _____    ______ ____
ROOT
ATOM      1  C   UNL     1       4.247   0.127  -4.802  0.00  0.00    +0.162 C 
ENDROOT
BRANCH   1   7
ATOM      2  C   UNL     1      -1.613  -1.937  -3.499  0.00  0.00    +0.007 C 
ATOM      3  C   UNL     1      -0.702  -0.715  -3.628  0.00  0.00    -0.010 C 
ATOM      4  C   UNL     1       0.673  -0.995  -2.999  0.00  0.00    +0.037 C 
ATOM      5  C   UNL     1       1.608   0.212  -3.129  0.00  0.00    +0.185 C 
ATOM      6  N   UNL     1       1.741   0.604  -4.549  0.00  0.00    -0.287 N 
ATOM      7  C   UNL     1       2.947   0.898  -5.187  0.00  0.00    +0.235 C 
ATOM      8  O   UNL     1       2.965   1.741  -6.089  0.00  0.00    -0.274 OA
ATOM      9  C   UNL     1       0.469   0.860  -5.254  0.00  0.00    +0.109 C 
ATOM     10  C   UNL     1      -0.525  -0.297  -5.094  0.00  0.00    +0.022 C 
BRANCH   5  11
ATOM     11  C   UNL     1       1.110   1.378  -2.239  0.00  0.00    +0.325 C 
ATOM     12  O   UNL     1       0.676   1.237  -1.104  0.00  0.00    -0.249 OA
BRANCH  11  13
ATOM     13  O   UNL     1       1.262   2.605  -2.792  0.00  0.00    -0.479 OA
ATOM     14  H   UNL     1       1.626   2.562  -3.701  0.00  0.00    +0.295 HD
ENDBRANCH  11  13
ENDBRANCH   5  11
ENDBRANCH   1   7
BRANCH   1  15
ATOM     15  N   UNL     1       4.906  -0.420  -6.034  0.00  0.00    -0.178 NA
ATOM     16  H   UNL     1       5.849  -0.788  -5.927  0.00  0.00    +0.149 HD
BRANCH  15  17
ATOM     17  S   UNL     1       4.047  -1.510  -6.999  0.00  0.00    +0.061 S 
ATOM     18  O   UNL     1       3.049  -2.113  -6.131  0.00  0.00    -0.153 OA
ATOM     19  O   UNL     1       5.049  -2.340  -7.644  0.00  0.00    -0.153 OA
BRANCH  17  20
ATOM     20  C   UNL     1       3.238  -0.529  -8.227  0.00  0.00    +0.126 A 
ATOM     21  C   UNL     1       3.924   0.345  -9.094  0.00  0.00    +0.057 A 
ATOM     22  N   UNL     1       5.326   0.445  -9.099  0.00  0.00    -0.342 N 
ATOM     23  H   UNL     1       5.667   0.696  -8.171  0.00  0.00    +0.146 HD
ATOM     24  C   UNL     1       5.956   1.215 -10.168  0.00  0.00    +0.105 C 
ATOM     25  C   UNL     1       5.211   2.514 -10.455  0.00  0.00    +0.007 C 
ATOM     26  C   UNL     1       5.237   3.477  -9.264  0.00  0.00    +0.009 C 
ATOM     27  C   UNL     1       3.788   2.157 -10.884  0.00  0.00    +0.041 C 
ATOM     28  C   UNL     1       3.146   1.148  -9.962  0.00  0.00    -0.024 A 
ATOM     29  C   UNL     1       1.745   1.037  -9.986  0.00  0.00    +0.005 A 
ATOM     30  C   UNL     1       1.093   0.139  -9.155  0.00  0.00    +0.002 A 
ATOM     31  C   UNL     1       1.837  -0.647  -8.284  0.00  0.00    +0.030 A 
ENDBRANCH  17  20
ENDBRANCH  15  17
ENDBRANCH   1  15
BRANCH   1  32
ATOM     32  C   UNL     1       5.271   1.058  -4.093  0.00  0.00    +0.033 C 
BRANCH  32  33
ATOM     33  C   UNL     1       6.491   0.270  -3.574  0.00  0.00    +0.043 C 
BRANCH  33  34
ATOM     34  C   UNL     1       7.603   1.087  -2.896  0.00  0.00    +0.243 C 
BRANCH  34  35
ATOM     35  N   UNL     1       8.638   0.118  -2.535  0.00  0.00    -0.114 NA
ATOM     36  C   UNL     1       9.734   0.483  -1.990  0.00  0.00    +0.376 C 
ATOM     37  N   UNL     1      10.666  -0.442  -1.676  0.00  0.00    -0.289 N 
ATOM     38  H   UNL     1      11.062  -0.312  -0.754  0.00  0.00    +0.255 HD
ATOM     39  H   UNL     1      10.286  -1.374  -1.777  0.00  0.00    +0.255 HD
ATOM     40  N   UNL     1      10.166   1.712  -1.641  0.00  0.00    -0.289 N 
ATOM     41  H   UNL     1      11.157   1.827  -1.798  0.00  0.00    +0.255 HD
ATOM     42  H   UNL     1       9.641   2.472  -2.058  0.00  0.00    +0.255 HD
ENDBRANCH  34  35
ENDBRANCH  33  34
ENDBRANCH  32  33
ENDBRANCH   1  32
TORSDOF 10
