REMARK  Name = 
REMARK  2 active torsions:
REMARK  status: ('A' for Active; 'I' for Inactive)
REMARK    1  A    between atoms: N_1  and  S_2
REMARK    2  A    between atoms: S_2  and  C_5
REMARK                            x       y       z     vdW  Elec       q    Type
REMARK                         _______ _______ _______ _____ _____    ______ ____
ROOT
ATOM      1  C   UNL     1       3.268   1.530   0.634  0.00  0.00    +0.125 A 
ATOM      2  C   UNL     1       2.678   2.679   0.095  0.00  0.00    +0.060 A 
ATOM      3  C   UNL     1       3.002   3.930   0.630  0.00  0.00    +0.128 A 
ATOM      4  C   UNL     1       3.898   4.080   1.690  0.00  0.00    +0.056 A 
ATOM      5  N   UNL     1       4.156   5.304   2.309  0.00  0.00    -0.328 N 
ATOM      6  H   UNL     1       5.025   5.328   2.835  0.00  0.00    +0.147 HD
ATOM      7  C   UNL     1       3.904   6.516   1.570  0.00  0.00    +0.209 C 
ATOM      8  N   UNL     1       2.530   6.533   1.122  0.00  0.00    -0.173 NA
ATOM      9  H   UNL     1       2.266   7.440   0.743  0.00  0.00    +0.150 HD
ATOM     10  C   UNL     1       4.442   2.911   2.238  0.00  0.00    +0.047 A 
ATOM     11  S   UNL     1       2.251   5.365  -0.048  0.00  0.00    +0.062 S 
ATOM     12  O   UNL     1       3.022   5.751  -1.210  0.00  0.00    -0.153 OA
ATOM     13  O   UNL     1       0.823   5.160  -0.120  0.00  0.00    -0.153 OA
ATOM     14  C   UNL     1       4.151   1.642   1.709  0.00  0.00    +0.069 A 
ATOM     15 CL   UNL     1       4.948   0.299   2.451  0.00  0.00    -0.081 Cl
ENDROOT
BRANCH   1  16
ATOM     16  S   UNL     1       2.836  -0.039  -0.048  0.00  0.00    +0.057 S 
ATOM     17  O   UNL     1       2.419  -0.925   1.010  0.00  0.00    -0.153 OA
ATOM     18  O   UNL     1       2.029   0.171  -1.227  0.00  0.00    -0.153 OA
BRANCH  16  19
ATOM     19  N   UNL     1       4.302  -0.612  -0.632  0.00  0.00    -0.203 NA
ATOM     20  H   UNL     1       4.619  -1.400  -0.065  0.00  0.00    +0.144 HD
ATOM     21  H   UNL     1       4.214  -0.830  -1.626  0.00  0.00    +0.144 HD
ENDBRANCH  16  19
ENDBRANCH   1  16
TORSDOF 2
