REMARK  Name = 
REMARK  13 active torsions:
REMARK  status: ('A' for Active; 'I' for Inactive)
REMARK    1  A    between atoms: C_1  and  O_2
REMARK    2  A    between atoms: O_2  and  C_3
REMARK    3  A    between atoms: C_8  and  O_9
REMARK    4  A    between atoms: O_9  and  C_10
REMARK    5  A    between atoms: C_10  and  C_11
REMARK    6  A    between atoms: C_11  and  O_12
REMARK    7  A    between atoms: C_11  and  C_13
REMARK    8  A    between atoms: C_13  and  N_14
REMARK    9  A    between atoms: N_17  and  C_18
REMARK   10  A    between atoms: C_18  and  C_19
REMARK   11  A    between atoms: N_21  and  C_22
REMARK   12  A    between atoms: C_23  and  C_24
REMARK   13  A    between atoms: C_28  and  C_29
REMARK                            x       y       z     vdW  Elec       q    Type
REMARK                         _______ _______ _______ _____ _____    ______ ____
ROOT
ATOM      1  N   UNL     1       1.059  -5.268   1.881  0.00  0.00    -0.297 NA
ATOM      2  C   UNL     1       1.457  -6.433   1.061  0.00  0.00    +0.100 C 
ATOM      3  C   UNL     1       1.018  -6.403  -0.429  0.00  0.00    +0.100 C 
ATOM      4  N   UNL     1      -0.348  -5.921  -0.725  0.00  0.00    -0.292 NA
ATOM      5  C   UNL     1      -0.690  -4.778   0.151  0.00  0.00    +0.100 C 
ATOM      6  C   UNL     1      -0.372  -5.013   1.639  0.00  0.00    +0.100 C 
ENDROOT
BRANCH   1   7
ATOM      7  C   UNL     1       1.889  -4.081   1.593  0.00  0.00    +0.119 C 
BRANCH   7   8
ATOM      8  C   UNL     1       1.567  -2.829   2.450  0.00  0.00    +0.166 C 
BRANCH   8   9
ATOM      9  O   UNL     1       2.396  -1.747   1.995  0.00  0.00    -0.387 OA
ATOM     10  H   UNL     1       3.292  -1.892   2.339  0.00  0.00    +0.210 HD
ENDBRANCH   8   9
BRANCH   8  11
ATOM     11  C   UNL     1       1.778  -3.117   3.949  0.00  0.00    +0.261 C 
BRANCH  11  12
ATOM     12  O   UNL     1       1.362  -1.987   4.717  0.00  0.00    -0.486 OA
BRANCH  12  14
ATOM     13  C   UNL     1       2.002  -3.075   6.886  0.00  0.00    +0.161 A 
ATOM     14  C   UNL     1       1.523  -2.026   6.080  0.00  0.00    +0.162 A 
ATOM     15  C   UNL     1       1.125  -0.826   6.692  0.00  0.00    +0.049 A 
ATOM     16  C   UNL     1       1.224  -0.647   8.070  0.00  0.00    +0.004 A 
ATOM     17  C   UNL     1       1.736  -1.667   8.859  0.00  0.00    +0.004 A 
ATOM     18  C   UNL     1       2.127  -2.870   8.271  0.00  0.00    +0.049 A 
BRANCH  13  20
ATOM     19  C   UNL     1       2.267  -5.424   7.115  0.00  0.00    +0.277 C 
ATOM     20  O   UNL     1       2.378  -4.258   6.303  0.00  0.00    -0.491 OA
ENDBRANCH  13  20
ENDBRANCH  12  14
ENDBRANCH  11  12
ENDBRANCH   8  11
ENDBRANCH   7   8
ENDBRANCH   1   7
BRANCH   4  21
ATOM     21  C   UNL     1      -1.372  -6.980  -0.617  0.00  0.00    +0.180 C 
BRANCH  21  22
ATOM     22  C   UNL     1      -2.725  -6.435  -1.123  0.00  0.00    +0.231 C 
ATOM     23  N   UNL     1      -2.654  -6.021  -2.443  0.00  0.00    -0.284 N 
ATOM     24  H   UNL     1      -1.890  -6.428  -2.967  0.00  0.00    +0.155 HD
ATOM     25  O   UNL     1      -3.719  -6.395  -0.404  0.00  0.00    -0.274 OA
BRANCH  23  26
ATOM     26  C   UNL     1      -3.734  -5.506  -3.191  0.00  0.00    +0.039 A 
ATOM     27  C   UNL     1      -4.039  -6.139  -4.414  0.00  0.00    -0.029 A 
ATOM     28  C   UNL     1      -3.357  -7.416  -4.830  0.00  0.00    +0.045 C 
ATOM     29  C   UNL     1      -5.051  -5.615  -5.229  0.00  0.00    +0.005 A 
ATOM     30  C   UNL     1      -5.758  -4.484  -4.840  0.00  0.00    +0.001 A 
ATOM     31  C   UNL     1      -5.458  -3.856  -3.633  0.00  0.00    +0.005 A 
ATOM     32  C   UNL     1      -4.428  -4.337  -2.803  0.00  0.00    -0.029 A 
ATOM     33  C   UNL     1      -4.100  -3.536  -1.578  0.00  0.00    +0.045 C 
ENDBRANCH  23  26
ENDBRANCH  21  22
ENDBRANCH   4  21
TORSDOF 10
