REMARK  Name = 
REMARK  6 active torsions:
REMARK  status: ('A' for Active; 'I' for Inactive)
REMARK    1  A    between atoms: C_1  and  C_2
REMARK    2  A    between atoms: C_2  and  N_3
REMARK    3  A    between atoms: N_3  and  C_4
REMARK    4  A    between atoms: C_7  and  C_9
REMARK    5  A    between atoms: C_16  and  S_18
REMARK    6  A    between atoms: S_18  and  N_19
REMARK                            x       y       z     vdW  Elec       q    Type
REMARK                         _______ _______ _______ _____ _____    ______ ____
ROOT
ATOM      1  C   UNL     1       4.447  -1.257   0.031  0.00  0.00    +0.088 C 
ATOM      2  C   UNL     1       4.840  -2.436   0.875  0.00  0.00    +0.004 A 
ATOM      3  C   UNL     1       4.499  -2.644   2.260  0.00  0.00    +0.043 A 
ATOM      4  C   UNL     1       5.111  -3.762   2.799  0.00  0.00    +0.144 A 
ATOM      5  S   UNL     1       6.004  -4.613   1.622  0.00  0.00    -0.050 S 
ATOM      6  C   UNL     1       5.619  -3.474   0.422  0.00  0.00    +0.132 A 
ATOM      7  S   UNL     1       6.297  -3.742  -1.171  0.00  0.00    +0.006 S 
ATOM      8  O   UNL     1       7.687  -3.350  -1.052  0.00  0.00    -0.169 OA
ATOM      9  O   UNL     1       5.902  -5.087  -1.534  0.00  0.00    -0.169 OA
ATOM     10  C   UNL     1       5.438  -2.559  -2.183  0.00  0.00    +0.135 C 
ATOM     11  C   UNL     1       4.512  -3.240  -3.192  0.00  0.00    +0.032 C 
ATOM     12  C   UNL     1       4.722  -1.377  -1.493  0.00  0.00    +0.049 C 
ENDROOT
BRANCH   4  13
ATOM     13  S   UNL     1       5.194  -4.410   4.452  0.00  0.00    +0.062 S 
ATOM     14  O   UNL     1       4.783  -5.791   4.364  0.00  0.00    -0.153 OA
ATOM     15  O   UNL     1       4.513  -3.428   5.261  0.00  0.00    -0.153 OA
BRANCH  13  16
ATOM     16  N   UNL     1       6.815  -4.372   4.887  0.00  0.00    -0.203 NA
ATOM     17  H   UNL     1       7.382  -4.989   4.306  0.00  0.00    +0.144 HD
ATOM     18  H   UNL     1       7.168  -3.421   4.970  0.00  0.00    +0.144 HD
ENDBRANCH  13  16
ENDBRANCH   4  13
BRANCH   1  19
ATOM     19  N   UNL     1       5.140  -0.089   0.603  0.00  0.00    -0.309 NA
ATOM     20  H   UNL     1       5.032  -0.094   1.618  0.00  0.00    +0.122 HD
BRANCH  19  22
ATOM     21  C   UNL     1       5.326   2.343   0.827  0.00  0.00    +0.020 C 
ATOM     22  C   UNL     1       4.628   1.196   0.110  0.00  0.00    +0.078 C 
ENDBRANCH  19  22
ENDBRANCH   1  19
TORSDOF 4
