REMARK  Name = 
REMARK  20 active torsions:
REMARK  status: ('A' for Active; 'I' for Inactive)
REMARK    1  A    between atoms: C_1  and  C_2
REMARK    2  A    between atoms: C_2  and  C_3
REMARK    3  A    between atoms: C_3  and  C_4
REMARK    4  A    between atoms: C_4  and  O_6
REMARK    5  A    between atoms: O_6  and  C_7
REMARK    6  A    between atoms: C_7  and  C_9
REMARK    7  A    between atoms: C_7  and  C_15
REMARK    8  A    between atoms: C_9  and  O_10
REMARK    9  A    between atoms: O_10  and  C_11
REMARK   10  A    between atoms: C_11  and  C_13
REMARK   11  A    between atoms: C_13  and  C_14
REMARK   12  A    between atoms: C_15  and  O_16
REMARK   13  A    between atoms: O_16  and  P_17
REMARK   14  A    between atoms: P_17  and  O_18
REMARK   15  A    between atoms: P_17  and  O_20
REMARK   16  A    between atoms: O_20  and  C_21
REMARK   17  A    between atoms: C_21  and  C_22
REMARK   18  A    between atoms: C_22  and  N_24
REMARK   19  A    between atoms: C_22  and  C_25
REMARK   20  A    between atoms: C_25  and  O_26
REMARK                            x       y       z     vdW  Elec       q    Type
REMARK                         _______ _______ _______ _____ _____    ______ ____
ROOT
ATOM      1  O   UNK     1       7.166  -8.311  10.836  0.00  0.00    -0.283 OA
ENDROOT
BRANCH   1   2
ATOM      2  P   UNK     1       8.242  -8.385   9.484  0.00  0.00    +0.475 P 
ATOM      3  O   UNK     1       7.162  -9.121   8.687  0.00  0.00    -0.227 OA
BRANCH   2   4
ATOM      4  O   UNK     1       9.067  -9.598  10.203  0.00  0.00    -0.302 OA
ATOM      5  H   UNK     1       8.627 -10.426   9.908  0.00  0.00    +0.222 HD
ENDBRANCH   2   4
BRANCH   2   6
ATOM      6  O   UNK     1       9.318  -8.460   8.132  0.00  0.00    -0.285 OA
BRANCH   6   7
ATOM      7  C   UNK     1       8.892  -7.629   7.040  0.00  0.00    +0.202 C 
BRANCH   7   8
ATOM      8  C   UNK     1       9.841  -7.763   5.846  0.00  0.00    +0.187 C 
BRANCH   8   9
ATOM      9  N   UNK     1      11.223  -7.266   6.158  0.00  0.00    -0.317 NA
ATOM     10  H   UNK     1      11.462  -7.652   7.080  0.00  0.00    +0.119 HD
ATOM     11  H   UNK     1      11.871  -7.749   5.524  0.00  0.00    +0.119 HD
ENDBRANCH   8   9
BRANCH   8  12
ATOM     12  C   UNK     1       9.271  -6.952   4.673  0.00  0.00    +0.324 C 
ATOM     13  O   UNK     1       8.187  -7.143   4.146  0.00  0.00    -0.249 OA
BRANCH  12  14
ATOM     14  O   UNK     1      10.116  -5.958   4.292  0.00  0.00    -0.479 OA
ATOM     15  H   UNK     1      10.883  -5.991   4.916  0.00  0.00    +0.295 HD
ENDBRANCH  12  14
ENDBRANCH   8  12
ENDBRANCH   7   8
ENDBRANCH   6   7
ENDBRANCH   2   6
ENDBRANCH   1   2
BRANCH   1  16
ATOM     16  C   UNK     1       7.639  -7.468  11.874  0.00  0.00    +0.220 C 
BRANCH  16  17
ATOM     17  C   UNK     1       6.657  -7.509  13.051  0.00  0.00    +0.240 C 
BRANCH  17  18
ATOM     18  C   UNK     1       7.128  -6.584  14.181  0.00  0.00    +0.279 C 
BRANCH  18  19
ATOM     19  O   UNK     1       8.407  -7.032  14.685  0.00  0.00    -0.461 OA
BRANCH  19  20
ATOM     20  C   UNK     1       8.351  -8.079  15.560  0.00  0.00    +0.307 C 
ATOM     21  O   UNK     1       7.319  -8.563  15.995  0.00  0.00    -0.251 OA
BRANCH  20  22
ATOM     22  C   UNK     1       9.742  -8.596  15.843  0.00  0.00    +0.117 C 
ATOM     23  C   UNK     1       9.728  -9.758  16.825  0.00  0.00    +0.015 C 
ENDBRANCH  20  22
ENDBRANCH  19  20
ENDBRANCH  18  19
ENDBRANCH  17  18
BRANCH  17  24
ATOM     24  O   UNK     1       5.277  -7.302  12.665  0.00  0.00    -0.456 OA
BRANCH  24  25
ATOM     25  C   UNK     1       4.918  -6.219  11.938  0.00  0.00    +0.308 C 
ATOM     26  O   UNK     1       5.667  -5.290  11.666  0.00  0.00    -0.251 OA
BRANCH  25  27
ATOM     27  C   UNK     1       3.503  -6.339  11.404  0.00  0.00    +0.120 C 
BRANCH  27  29
ATOM     28  C   UNK     1       2.302  -6.629  13.627  0.00  0.00    +0.004 C 
ATOM     29  C   UNK     1       2.543  -7.192  12.234  0.00  0.00    +0.008 C 
ENDBRANCH  27  29
ENDBRANCH  25  27
ENDBRANCH  24  25
ENDBRANCH  17  24
ENDBRANCH  16  17
ENDBRANCH   1  16
TORSDOF 18
