REMARK  Name = 
REMARK  4 active torsions:
REMARK  status: ('A' for Active; 'I' for Inactive)
REMARK    1  A    between atoms: C_7  and  C_9
REMARK    2  A    between atoms: C_9  and  O_10
REMARK    3  A    between atoms: C_14  and  C_15
REMARK    4  A    between atoms: C_15  and  O_16
REMARK                            x       y       z     vdW  Elec       q    Type
REMARK                         _______ _______ _______ _____ _____    ______ ____
ROOT
ATOM      1  C   UNL     1       2.417   0.312   0.139  0.00  0.00    +0.274 C 
ATOM      2  O   UNL     1       3.129   1.538   0.424  0.00  0.00    -0.472 OA
ATOM      3  C   UNL     1       4.022   1.673  -0.650  0.00  0.00    +0.130 C 
ATOM      4  C   UNL     1       5.080   2.492  -0.558  0.00  0.00    +0.044 C 
ATOM      5  C   UNL     1       3.767   0.699  -1.784  0.00  0.00    +0.253 C 
ATOM      6  N   UNL     1       2.935  -0.292  -1.107  0.00  0.00    -0.245 N 
ATOM      7  C   UNL     1       3.586  -1.293  -0.429  0.00  0.00    +0.224 C 
ATOM      8  O   UNL     1       4.495  -2.012  -0.769  0.00  0.00    -0.275 OA
ATOM      9  C   UNL     1       2.847  -0.964   0.875  0.00  0.00    +0.161 C 
ENDROOT
BRANCH   5  10
ATOM     10  C   UNL     1       2.980   1.370  -2.923  0.00  0.00    +0.333 C 
ATOM     11  O   UNL     1       3.386   2.310  -3.591  0.00  0.00    -0.248 OA
BRANCH  10  12
ATOM     12  O   UNL     1       1.766   0.800  -3.152  0.00  0.00    -0.479 OA
ATOM     13  H   UNL     1       1.633   0.035  -2.554  0.00  0.00    +0.295 HD
ENDBRANCH  10  12
ENDBRANCH   5  10
BRANCH   4  14
ATOM     14  C   UNL     1       5.375   3.392   0.595  0.00  0.00    +0.186 C 
BRANCH  14  15
ATOM     15  O   UNL     1       6.595   2.969   1.183  0.00  0.00    -0.391 OA
ATOM     16  H   UNL     1       6.407   2.134   1.642  0.00  0.00    +0.210 HD
ENDBRANCH  14  15
ENDBRANCH   4  14
TORSDOF 4
