REMARK  Name = 
REMARK  2 active torsions:
REMARK  status: ('A' for Active; 'I' for Inactive)
REMARK    1  A    between atoms: C_1  and  C_2
REMARK    2  A    between atoms: N_4  and  O_5
REMARK                            x       y       z     vdW  Elec       q    Type
REMARK                         _______ _______ _______ _____ _____    ______ ____
ROOT
ATOM      1  C   UNL     1       1.157   0.042  -0.003  0.00  0.00    +0.111 C 
ATOM      2  C   UNL     1       2.657   0.068  -0.029  0.00  0.00    +0.232 C 
ATOM      3  N   UNL     1       3.244  -0.799   0.854  0.00  0.00    -0.198 N 
ATOM      4  H   UNL     1       2.754  -1.423   1.484  0.00  0.00    +0.182 HD
ATOM      5  O   UNL     1       3.311   0.798  -0.770  0.00  0.00    -0.274 OA
ENDROOT
BRANCH   3   6
ATOM      6  O   UNL     1       4.655  -0.823   0.877  0.00  0.00    -0.295 OA
ATOM      7  H   UNL     1       4.886  -0.153   0.196  0.00  0.00    +0.241 HD
ENDBRANCH   3   6
TORSDOF 1
