REMARK  Name = 
REMARK  27 active torsions:
REMARK  status: ('A' for Active; 'I' for Inactive)
REMARK    1  A    between atoms: C_4  and  O_6
REMARK    2  A    between atoms: C_11  and  C_94
REMARK    3  A    between atoms: C_16  and  N_67
REMARK    4  A    between atoms: C_19  and  O_21
REMARK    5  A    between atoms: C_22  and  O_24
REMARK    6  A    between atoms: C_30  and  O_32
REMARK    7  A    between atoms: C_33  and  C_35
REMARK    8  A    between atoms: C_40  and  C_63
REMARK    9  A    between atoms: C_45  and  C_50
REMARK   10  A    between atoms: C_50  and  O_52
REMARK   11  A    between atoms: C_50  and  C_53
REMARK   12  A    between atoms: C_53  and  O_55
REMARK   13  A    between atoms: C_53  and  C_56
REMARK   14  A    between atoms: C_59  and  O_60
REMARK   15  A    between atoms: C_63  and  C_65
REMARK   16  A    between atoms: C_63  and  O_66
REMARK   17  A    between atoms: C_68  and  C_70
REMARK   18  A    between atoms: C_73  and  C_76
REMARK   19  A    between atoms: C_79  and  C_82
REMARK   20  A    between atoms: C_85  and  O_86
REMARK   21  A    between atoms: O_86  and  C_87
REMARK   22  A    between atoms: C_87  and  C_88
REMARK   23  A    between atoms: C_88  and  C_89
REMARK   24  A    between atoms: C_89  and  C_90
REMARK   25  A    between atoms: C_90  and  C_91
REMARK   26  A    between atoms: C_94  and  C_96
REMARK   27  A    between atoms: C_94  and  O_97
REMARK                            x       y       z     vdW  Elec       q    Type
REMARK                         _______ _______ _______ _____ _____    ______ ____
ROOT
ATOM      1  C   UNL     1       0.229   3.496  -4.058  0.00  0.00    +0.164 C 
ATOM      2  C   UNL     1      -0.969   3.587  -3.096  0.00  0.00    +0.234 C 
ATOM      3  O   UNL     1      -0.963   4.155  -2.010  0.00  0.00    -0.274 OA
ATOM      4  N   UNL     1      -2.187   3.297  -3.765  0.00  0.00    -0.300 N 
ATOM      5  H   UNL     1      -2.964   3.413  -3.121  0.00  0.00    +0.150 HD
ATOM      6  C   UNL     1      -2.198   2.130  -4.738  0.00  0.00    +0.190 C 
ATOM      7  C   UNL     1      -1.814   2.387  -6.589  0.00  0.00    +0.237 C 
ATOM      8  O   UNL     1      -2.837   2.509  -7.296  0.00  0.00    -0.274 OA
ATOM      9  N   UNL     1      -0.388   2.586  -7.486  0.00  0.00    -0.300 N 
ATOM     10  H   UNL     1      -0.699   2.504  -8.452  0.00  0.00    +0.150 HD
ATOM     11  C   UNL     1       1.518   2.339  -7.436  0.00  0.00    +0.187 C 
ATOM     12  C   UNL     1       3.032   2.984  -6.344  0.00  0.00    +0.239 C 
ATOM     13  O   UNL     1       3.397   4.162  -6.586  0.00  0.00    -0.273 OA
ATOM     14  N   UNL     1       3.745   2.445  -4.940  0.00  0.00    -0.285 N 
ATOM     15  C   UNL     1       5.132   1.392  -4.561  0.00  0.00    +0.191 C 
ATOM     16  C   UNL     1       5.670   2.032  -3.182  0.00  0.00    +0.148 C 
ATOM     17  C   UNL     1       4.504   2.788  -2.582  0.00  0.00    +0.034 C 
ATOM     18  C   UNL     1       4.795   3.690  -1.385  0.00  0.00    +0.012 C 
ATOM     19  C   UNL     1       5.139  -0.305  -4.055  0.00  0.00    +0.238 C 
ATOM     20  O   UNL     1       5.273  -0.614  -2.856  0.00  0.00    -0.274 OA
ATOM     21  N   UNL     1       4.796  -1.436  -4.746  0.00  0.00    -0.287 N 
ATOM     22  H   UNL     1       4.510  -2.180  -4.112  0.00  0.00    +0.151 HD
ATOM     23  C   UNL     1       4.369  -1.714  -6.080  0.00  0.00    +0.231 C 
ATOM     24  C   UNL     1       3.142  -0.940  -6.509  0.00  0.00    +0.163 C 
ATOM     25  C   UNL     1       2.891   0.144  -5.466  0.00  0.00    +0.067 C 
ATOM     26  C   UNL     1       2.591   0.200  -3.820  0.00  0.00    +0.162 C 
ATOM     27  C   UNL     1       1.450   1.035  -3.369  0.00  0.00    +0.234 C 
ATOM     28  O   UNL     1       1.418   1.855  -2.466  0.00  0.00    -0.274 OA
ATOM     29  N   UNL     1       0.337   0.492  -3.793  0.00  0.00    -0.300 N 
ATOM     30  H   UNL     1      -0.479   0.554  -3.214  0.00  0.00    +0.150 HD
ATOM     31  C   UNL     1       0.198  -0.318  -4.902  0.00  0.00    +0.187 C 
ATOM     32  C   UNL     1       0.069   1.022  -5.809  0.00  0.00    +0.239 C 
ATOM     33  O   UNL     1      -0.240   0.539  -6.928  0.00  0.00    -0.273 OA
ATOM     34  C   UNL     1       3.812   3.413  -3.796  0.00  0.00    +0.114 C 
ATOM     35  N   UNL     1       0.467   2.720  -5.361  0.00  0.00    -0.286 N 
ATOM     36  C   UNL     1       0.454   4.269  -6.299  0.00  0.00    +0.140 C 
ATOM     37  C   UNL     1       0.704   5.503  -5.397  0.00  0.00    +0.134 C 
ATOM     38  C   UNL     1       1.085   4.845  -4.104  0.00  0.00    +0.065 C 
ENDROOT
BRANCH  26  39
ATOM     39  N   UNL     1       2.477  -0.965  -2.916  0.00  0.00    -0.300 N 
ATOM     40  H   UNL     1       3.405  -1.196  -2.585  0.00  0.00    +0.150 HD
ATOM     41  C   UNL     1       1.579  -0.866  -1.806  0.00  0.00    +0.245 C 
ATOM     42  O   UNL     1       0.351  -0.930  -1.838  0.00  0.00    -0.270 OA
BRANCH  41  43
ATOM     43  C   UNL     1       2.166  -0.716  -0.487  0.00  0.00    +0.037 A 
ATOM     44  C   UNL     1       1.477  -1.342   0.542  0.00  0.00    +0.013 A 
ATOM     45  C   UNL     1       2.212  -1.837   1.586  0.00  0.00    +0.009 A 
ATOM     46  C   UNL     1       3.608  -1.728   1.537  0.00  0.00    -0.018 A 
ATOM     47  C   UNL     1       4.213  -0.837   0.635  0.00  0.00    +0.009 A 
ATOM     48  C   UNL     1       3.463  -0.262  -0.351  0.00  0.00    +0.013 A 
BRANCH  46  49
ATOM     49  C   UNL     1       4.437  -2.721   2.199  0.00  0.00    -0.018 A 
ATOM     50  C   UNL     1       3.957  -4.031   2.374  0.00  0.00    +0.009 A 
ATOM     51  C   UNL     1       4.798  -5.043   2.794  0.00  0.00    +0.009 A 
ATOM     52  C   UNL     1       6.156  -4.784   2.973  0.00  0.00    -0.018 A 
ATOM     53  C   UNL     1       6.629  -3.472   2.799  0.00  0.00    +0.009 A 
ATOM     54  C   UNL     1       5.775  -2.445   2.465  0.00  0.00    +0.009 A 
BRANCH  52  55
ATOM     55  C   UNL     1       7.095  -5.852   3.284  0.00  0.00    -0.018 A 
ATOM     56  C   UNL     1       6.919  -7.167   2.822  0.00  0.00    +0.012 A 
ATOM     57  C   UNL     1       7.888  -8.137   3.060  0.00  0.00    +0.046 A 
ATOM     58  C   UNL     1       9.053  -7.793   3.737  0.00  0.00    +0.121 A 
ATOM     59  C   UNL     1       9.218  -6.495   4.220  0.00  0.00    +0.046 A 
ATOM     60  C   UNL     1       8.242  -5.546   4.016  0.00  0.00    +0.012 A 
BRANCH  58  61
ATOM     61  O   UNL     1       9.987  -8.786   3.868  0.00  0.00    -0.492 OA
BRANCH  61  62
ATOM     62  C   UNL     1      11.192  -8.314   4.457  0.00  0.00    +0.229 C 
BRANCH  62  63
ATOM     63  C   UNL     1      12.212  -9.421   4.556  0.00  0.00    +0.041 C 
BRANCH  63  64
ATOM     64  C   UNL     1      13.451  -8.848   5.233  0.00  0.00    +0.003 C 
BRANCH  64  65
ATOM     65  C   UNL     1      14.527  -9.905   5.391  0.00  0.00    -0.003 C 
ATOM     66  C   UNL     1      15.750  -9.324   6.077  0.00  0.00    +0.004 C 
ENDBRANCH  64  65
ENDBRANCH  63  64
ENDBRANCH  62  63
ENDBRANCH  61  62
ENDBRANCH  58  61
ENDBRANCH  52  55
ENDBRANCH  46  49
ENDBRANCH  41  43
ENDBRANCH  26  39
BRANCH  37  67
ATOM     67  O   UNL     1       1.707   6.386  -5.894  0.00  0.00    -0.390 OA
ATOM     68  H   UNL     1       2.501   5.870  -6.152  0.00  0.00    +0.210 HD
ENDBRANCH  37  67
BRANCH  31  69
ATOM     69  C   UNL     1      -0.157  -1.863  -4.682  0.00  0.00    +0.141 C 
ATOM     70  C   UNL     1      -0.982  -2.704  -5.645  0.00  0.00    +0.040 C 
BRANCH  69  71
ATOM     71  O   UNL     1       1.062  -2.699  -4.542  0.00  0.00    -0.390 OA
ATOM     72  H   UNL     1       0.844  -3.376  -3.869  0.00  0.00    +0.210 HD
ENDBRANCH  69  71
ENDBRANCH  31  69
BRANCH  24  73
ATOM     73  O   UNL     1       3.478  -0.259  -7.769  0.00  0.00    -0.387 OA
ATOM     74  H   UNL     1       4.439  -0.437  -7.925  0.00  0.00    +0.210 HD
ENDBRANCH  24  73
BRANCH  23  75
ATOM     75  O   UNL     1       5.494  -1.349  -6.848  0.00  0.00    -0.372 OA
ATOM     76  H   UNL     1       6.199  -1.299  -6.178  0.00  0.00    +0.212 HD
ENDBRANCH  23  75
BRANCH  16  77
ATOM     77  O   UNL     1       6.821   2.837  -3.336  0.00  0.00    -0.389 OA
ATOM     78  H   UNL     1       6.699   3.418  -4.102  0.00  0.00    +0.210 HD
ENDBRANCH  16  77
BRANCH  11  79
ATOM     79  C   UNL     1       1.863   2.545  -8.992  0.00  0.00    +0.141 C 
ATOM     80  C   UNL     1       2.177   3.933  -9.522  0.00  0.00    +0.040 C 
BRANCH  79  81
ATOM     81  O   UNL     1       2.920   1.688  -9.438  0.00  0.00    -0.390 OA
ATOM     82  H   UNL     1       2.762   0.788  -9.080  0.00  0.00    +0.210 HD
ENDBRANCH  79  81
ENDBRANCH  11  79
BRANCH   6  83
ATOM     83  C   UNL     1      -2.834   0.902  -3.750  0.00  0.00    +0.176 C 
BRANCH  83  84
ATOM     84  O   UNL     1      -1.798  -0.039  -3.507  0.00  0.00    -0.387 OA
ATOM     85  H   UNL     1      -1.788  -0.365  -2.574  0.00  0.00    +0.210 HD
ENDBRANCH  83  84
BRANCH  83  86
ATOM     86  C   UNL     1      -4.053  -0.059  -3.799  0.00  0.00    +0.175 C 
BRANCH  86  87
ATOM     87  C   UNL     1      -3.905  -1.056  -2.531  0.00  0.00    -0.016 A 
ATOM     88  C   UNL     1      -3.325  -2.345  -2.677  0.00  0.00    +0.010 A 
ATOM     89  C   UNL     1      -2.668  -2.990  -1.604  0.00  0.00    +0.046 A 
ATOM     90  C   UNL     1      -2.594  -2.375  -0.361  0.00  0.00    +0.117 A 
ATOM     91  C   UNL     1      -3.227  -1.154  -0.157  0.00  0.00    +0.046 A 
ATOM     92  C   UNL     1      -3.905  -0.514  -1.221  0.00  0.00    +0.010 A 
BRANCH  90  93
ATOM     93  O   UNL     1      -1.847  -2.972   0.615  0.00  0.00    -0.507 OA
ATOM     94  H   UNL     1      -1.816  -2.390   1.394  0.00  0.00    +0.292 HD
ENDBRANCH  90  93
ENDBRANCH  86  87
BRANCH  86  95
ATOM     95  O   UNL     1      -4.042  -0.810  -5.007  0.00  0.00    -0.385 OA
ATOM     96  H   UNL     1      -3.526  -0.315  -5.668  0.00  0.00    +0.210 HD
ENDBRANCH  86  95
ENDBRANCH  83  86
ENDBRANCH   6  83
TORSDOF 23
