REMARK  Name = 
REMARK  10 active torsions:
REMARK  status: ('A' for Active; 'I' for Inactive)
REMARK    1  A    between atoms: C_8  and  C_10
REMARK    2  A    between atoms: C_11  and  O_12
REMARK    3  A    between atoms: C_11  and  C_17
REMARK    4  A    between atoms: O_12  and  C_13
REMARK    5  A    between atoms: C_13  and  C_15
REMARK    6  A    between atoms: C_15  and  C_16
REMARK    7  A    between atoms: C_17  and  C_19
REMARK    8  A    between atoms: C_21  and  C_22
REMARK    9  A    between atoms: C_24  and  O_25
REMARK   10  A    between atoms: C_28  and  C_29
REMARK                            x       y       z     vdW  Elec       q    Type
REMARK                         _______ _______ _______ _____ _____    ______ ____
ROOT
ATOM      1  C   UNL     1      -0.024   2.398   1.849  0.00  0.00    +0.194 C 
ATOM      2  F   UNL     1      -0.987   2.261   2.801  0.00  0.00    -0.241 F 
ATOM      3  C   UNL     1       1.295   2.762   2.461  0.00  0.00    -0.020 C 
ATOM      4  C   UNL     1       1.431   4.172   3.095  0.00  0.00    +0.047 C 
ATOM      5  C   UNL     1       2.867   4.692   2.877  0.00  0.00    +0.023 C 
ATOM      6  C   UNL     1       1.399   3.954   4.635  0.00  0.00    -0.009 C 
ATOM      7  C   UNL     1       1.433   2.745   5.231  0.00  0.00    +0.047 C 
ATOM      8  C   UNL     1       1.462   1.521   4.383  0.00  0.00    +0.179 C 
ATOM      9  O   UNL     1       1.126   0.412   4.812  0.00  0.00    -0.288 OA
ATOM     10  C   UNL     1       0.330   5.248   2.617  0.00  0.00    +0.153 C 
ATOM     11  F   UNL     1      -0.322   5.616   3.790  0.00  0.00    -0.238 F 
ATOM     12  C   UNL     1      -0.815   4.744   1.676  0.00  0.00    +0.037 C 
ATOM     13  C   UNL     1      -1.364   5.817   0.616  0.00  0.00    +0.006 C 
ATOM     14  C   UNL     1      -1.568   7.372   1.154  0.00  0.00    +0.021 C 
ATOM     15  C   UNL     1      -1.397   8.683   0.315  0.00  0.00    +0.016 C 
ATOM     16  C   UNL     1      -0.428   7.586   2.188  0.00  0.00    +0.045 C 
ATOM     17  C   UNL     1      -3.105   7.254   1.398  0.00  0.00    +0.180 C 
ATOM     18  C   UNL     1      -3.525   6.511   0.016  0.00  0.00    +0.038 C 
ATOM     19  C   UNL     1      -3.082   7.075  -1.384  0.00  0.00    +0.012 C 
ATOM     20  C   UNL     1      -2.727   5.255   0.144  0.00  0.00    +0.012 C 
ATOM     21  C   UNL     1       0.735   6.580   1.930  0.00  0.00    +0.154 C 
ATOM     22  C   UNL     1       1.988   1.729   2.990  0.00  0.00    +0.054 C 
ATOM     23  C   UNL     1      -0.445   3.481   0.894  0.00  0.00    +0.048 C 
ENDROOT
BRANCH  17  24
ATOM     24  C   UNL     1      -4.060   8.464   1.597  0.00  0.00    +0.192 C 
ATOM     25  O   UNL     1      -4.720   8.912   0.654  0.00  0.00    -0.292 OA
BRANCH  24  26
ATOM     26  C   UNL     1      -4.239   8.988   3.007  0.00  0.00    +0.187 C 
ATOM     27 CL   UNL     1      -4.622  10.719   2.993  0.00  0.00    -0.117 Cl
ENDBRANCH  24  26
ENDBRANCH  17  24
BRANCH  21  28
ATOM     28  O   UNL     1       1.976   7.203   2.195  0.00  0.00    -0.389 OA
ATOM     29  H   UNL     1       2.261   7.582   1.333  0.00  0.00    +0.210 HD
ENDBRANCH  21  28
BRANCH  17  30
ATOM     30  O   UNL     1      -3.130   6.433   2.609  0.00  0.00    -0.449 OA
BRANCH  30  31
ATOM     31  C   UNL     1      -4.229   5.777   3.050  0.00  0.00    +0.308 C 
ATOM     32  O   UNL     1      -5.319   5.872   2.521  0.00  0.00    -0.251 OA
BRANCH  31  33
ATOM     33  C   UNL     1      -3.922   5.055   4.344  0.00  0.00    +0.117 C 
ATOM     34  C   UNL     1      -4.643   3.719   4.425  0.00  0.00    +0.015 C 
ENDBRANCH  31  33
ENDBRANCH  30  31
ENDBRANCH  17  30
TORSDOF 6
