REMARK  Name = 
REMARK  10 active torsions:
REMARK  status: ('A' for Active; 'I' for Inactive)
REMARK    1  A    between atoms: C_1  and  C_2
REMARK    2  A    between atoms: C_2  and  N_3
REMARK    3  A    between atoms: N_3  and  C_4
REMARK    4  A    between atoms: N_3  and  C_5
REMARK    5  A    between atoms: N_3  and  C_7
REMARK    6  A    between atoms: C_5  and  C_6
REMARK    7  A    between atoms: C_7  and  C_8
REMARK    8  A    between atoms: C_8  and  O_9
REMARK    9  A    between atoms: O_9  and  C_10
REMARK   10  A    between atoms: C_10  and  C_12
REMARK                            x       y       z     vdW  Elec       q    Type
REMARK                         _______ _______ _______ _____ _____    ______ ____
ROOT
ATOM      1  C   UNL     1       8.477  -0.552   4.024  0.00  0.00    +0.164 C 
ATOM      2  C   UNL     1       9.404   0.209   3.113  0.00  0.00    +0.013 A 
ATOM      3  C   UNL     1       9.872  -0.386   1.942  0.00  0.00    +0.133 A 
ATOM      4  C   UNL     1      10.680   0.337   1.063  0.00  0.00    +0.046 A 
ATOM      5  C   UNL     1      11.025   1.658   1.352  0.00  0.00    +0.004 A 
ATOM      6  C   UNL     1      10.570   2.256   2.525  0.00  0.00    +0.001 A 
ATOM      7  O   UNL     1       9.572  -1.675   1.570  0.00  0.00    -0.455 OA
ATOM      8  C   UNL     1       8.821  -2.453   2.414  0.00  0.00    +0.133 A 
ATOM      9  C   UNL     1       8.553  -3.755   1.982  0.00  0.00    +0.046 A 
ATOM     10  C   UNL     1       7.754  -4.602   2.752  0.00  0.00    +0.004 A 
ATOM     11  C   UNL     1       7.232  -4.157   3.964  0.00  0.00    +0.001 A 
ATOM     12  C   UNL     1       7.510  -2.865   4.405  0.00  0.00    +0.008 A 
ATOM     13  C   UNL     1       9.766   1.535   3.406  0.00  0.00    +0.008 A 
ATOM     14  C   UNL     1       8.300  -1.999   3.625  0.00  0.00    +0.013 A 
ENDROOT
BRANCH   1  15
ATOM     15  C   UNL     1       7.093   0.095   4.039  0.00  0.00    +0.319 C 
ATOM     16  O   UNL     1       6.496   0.463   5.046  0.00  0.00    -0.250 OA
BRANCH  15  17
ATOM     17  O   UNL     1       6.526   0.086   2.793  0.00  0.00    -0.459 OA
BRANCH  17  18
ATOM     18  C   UNL     1       5.096   0.114   2.799  0.00  0.00    +0.282 C 
BRANCH  18  19
ATOM     19  C   UNL     1       4.572   1.533   3.030  0.00  0.00    +0.174 C 
BRANCH  19  20
ATOM     20  N   UNL     1       3.023   1.639   3.134  0.00  0.00    +0.243 N 
ATOM     21  C   UNL     1       2.559   0.806   4.343  0.00  0.00    +0.192 C 
BRANCH  20  23
ATOM     22  C   UNL     1       1.250   3.463   3.575  0.00  0.00    +0.060 C 
ATOM     23  C   UNL     1       2.723   3.135   3.410  0.00  0.00    +0.129 C 
ENDBRANCH  20  23
BRANCH  20  24
ATOM     24  C   UNL     1       2.319   1.109   1.871  0.00  0.00    +0.129 C 
ATOM     25  C   UNL     1       2.832   1.725   0.578  0.00  0.00    +0.060 C 
ENDBRANCH  20  24
ENDBRANCH  19  20
ENDBRANCH  18  19
ENDBRANCH  17  18
ENDBRANCH  15  17
ENDBRANCH   1  15
TORSDOF 7
