REMARK  Name = 
REMARK  5 active torsions:
REMARK  status: ('A' for Active; 'I' for Inactive)
REMARK    1  A    between atoms: C_1  and  C_2
REMARK    2  A    between atoms: C_2  and  C_3
REMARK    3  A    between atoms: C_3  and  C_4
REMARK    4  A    between atoms: C_3  and  C_10
REMARK    5  A    between atoms: C_11  and  O_12
REMARK                            x       y       z     vdW  Elec       q    Type
REMARK                         _______ _______ _______ _____ _____    ______ ____
ROOT
ATOM      1  C   UNL     1       4.592   1.142  -0.800  0.00  0.00    +0.086 A 
ATOM      2  C   UNL     1       5.244   0.096  -1.645  0.00  0.00    +0.345 A 
ATOM      3  O   UNL     1       4.582  -0.711  -2.292  0.00  0.00    -0.245 OA
ATOM      4  O   UNL     1       6.628   0.012  -1.634  0.00  0.00    -0.422 OA
ATOM      5  C   UNL     1       7.403   1.074  -1.137  0.00  0.00    +0.143 A 
ATOM      6  C   UNL     1       8.763   1.073  -1.444  0.00  0.00    +0.047 A 
ATOM      7  C   UNL     1       9.537   2.174  -1.081  0.00  0.00    +0.004 A 
ATOM      8  C   UNL     1       8.950   3.248  -0.413  0.00  0.00    +0.001 A 
ATOM      9  C   UNL     1       7.593   3.206  -0.075  0.00  0.00    +0.015 A 
ATOM     10  C   UNL     1       6.805   2.103  -0.429  0.00  0.00    +0.059 A 
ATOM     11  C   UNL     1       5.372   2.032  -0.153  0.00  0.00    +0.138 A 
ENDROOT
BRANCH  11  12
ATOM     12  O   UNL     1       4.929   2.975   0.750  0.00  0.00    -0.506 OA
ATOM     13  H   UNL     1       3.975   2.874   0.902  0.00  0.00    +0.292 HD
ENDBRANCH  11  12
BRANCH   1  14
ATOM     14  C   UNL     1       3.055   1.119  -0.844  0.00  0.00    +0.059 C 
BRANCH  14  15
ATOM     15  C   UNL     1       2.418   2.521  -0.865  0.00  0.00    -0.040 A 
ATOM     16  C   UNL     1       2.912   3.481  -1.770  0.00  0.00    +0.004 A 
ATOM     17  C   UNL     1       2.471   4.804  -1.734  0.00  0.00    +0.000 A 
ATOM     18  C   UNL     1       1.500   5.188  -0.817  0.00  0.00    +0.000 A 
ATOM     19  C   UNL     1       0.934   4.238   0.025  0.00  0.00    +0.000 A 
ATOM     20  C   UNL     1       1.375   2.911  -0.014  0.00  0.00    +0.004 A 
ENDBRANCH  14  15
BRANCH  14  22
ATOM     21  C   UNL     1       2.741   0.389   1.650  0.00  0.00    +0.005 C 
ATOM     22  C   UNL     1       2.471   0.105   0.175  0.00  0.00    +0.010 C 
ENDBRANCH  14  22
ENDBRANCH   1  14
TORSDOF 4
