REMARK  Name = 
REMARK  6 active torsions:
REMARK  status: ('A' for Active; 'I' for Inactive)
REMARK    1  A    between atoms: C_1  and  O_2
REMARK    2  A    between atoms: O_2  and  C_3
REMARK    3  A    between atoms: C_3  and  C_4
REMARK    4  A    between atoms: C_3  and  C_9
REMARK    5  A    between atoms: C_4  and  N_5
REMARK    6  A    between atoms: C_9  and  HG_10
REMARK                            x       y       z     vdW  Elec       q    Type
REMARK                         _______ _______ _______ _____ _____    ______ ____
ROOT
ATOM      1  C   UNL     1       2.324  -2.382   0.506  0.00  0.00    +0.000 C 
ENDROOT
BRANCH   1   2
ATOM      2  N   UNL     1       2.814  -2.657  -0.852  0.00  0.00    +0.000 N 
ATOM      3  H   UNL     1       2.576  -2.054  -1.593  0.00  0.00    +0.000 HD
ATOM      4  C   UNL     1       3.659  -3.833  -1.104  0.00  0.00    +0.000 C 
ATOM      5  O   UNL     1       3.966  -4.612  -0.148  0.00  0.00    +0.000 OA
ATOM      6  N   UNL     1       4.149  -4.108  -2.462  0.00  0.00    +0.000 N 
ATOM      7  H   UNL     1       4.715  -4.896  -2.631  0.00  0.00    +0.000 HD
ATOM      8  H   UNL     1       3.911  -3.505  -3.203  0.00  0.00    +0.000 HD
ENDBRANCH   1   2
BRANCH   1   9
ATOM      9  C   UNL     1       2.831  -1.023   0.962  0.00  0.00    +0.000 C 
BRANCH   9  11
ATOM     10  C   UNL     1       0.938  -0.020   0.076  0.00  0.00    +0.000 C 
ATOM     11  O   UNL     1       2.358  -0.020   0.076  0.00  0.00    +0.000 OA
ENDBRANCH   9  11
BRANCH   9  12
ATOM     12  C   UNL     1       4.351  -1.023   0.962  0.00  0.00    +0.000 C 
BRANCH  12  13
ATOM     13 HG   UNL     1       5.044  -2.492   2.260  0.00  0.00    +0.000 Hg
ATOM     14 CL   UNL     1        -nan    -nan    -nan  0.00  0.00    +0.000 Cl
ENDBRANCH  12  13
ENDBRANCH   9  12
ENDBRANCH   1   9
TORSDOF 5
