REMARK  Name = 
REMARK  6 active torsions:
REMARK  status: ('A' for Active; 'I' for Inactive)
REMARK    1  A    between atoms: C_1  and  C_2
REMARK    2  A    between atoms: N_4  and  C_8
REMARK    3  A    between atoms: C_11  and  C_12
REMARK    4  A    between atoms: C_16  and  C_24
REMARK    5  A    between atoms: N_18  and  C_19
REMARK    6  A    between atoms: C_24  and  O_25
REMARK                            x       y       z     vdW  Elec       q    Type
REMARK                         _______ _______ _______ _____ _____    ______ ____
ROOT
ATOM      1  C   UNL     1       1.854  -2.789  -2.184  0.00  0.00    +0.068 A 
ATOM      2  C   UNL     1       2.272  -4.120  -2.023  0.00  0.00    +0.052 A 
ATOM      3  C   UNL     1       1.464  -5.228  -2.345  0.00  0.00    +0.055 A 
ATOM      4  C   UNL     1       0.155  -4.989  -2.818  0.00  0.00    +0.052 A 
ATOM      5  C   UNL     1      -0.696  -6.169  -3.151  0.00  0.00    +0.204 A 
ATOM      6  C   UNL     1      -0.153  -7.526  -2.941  0.00  0.00    +0.122 A 
ATOM      7  C   UNL     1       1.101  -7.623  -2.479  0.00  0.00    +0.105 A 
ATOM      8  O   UNL     1      -1.842  -6.062  -3.587  0.00  0.00    -0.286 OA
ATOM      9  C   UNL     1      -0.323  -3.674  -2.962  0.00  0.00    -0.001 A 
ATOM     10  C   UNL     1      -1.703  -3.344  -3.466  0.00  0.00    +0.047 C 
ATOM     11  N   UNL     1       1.944  -6.565  -2.207  0.00  0.00    -0.343 N 
ATOM     12  C   UNL     1       0.534  -2.612  -2.633  0.00  0.00    +0.148 A 
ATOM     13  F   UNL     1       0.049  -1.372  -2.802  0.00  0.00    -0.203 F 
ENDROOT
BRANCH   1  20
ATOM     14  C   UNL     1       1.772   0.552  -3.879  0.00  0.00    +0.025 C 
ATOM     15  C   UNL     1       2.645   0.651  -2.624  0.00  0.00    +0.068 C 
ATOM     16  N   UNL     1       4.085   0.612  -2.974  0.00  0.00    -0.311 NA
ATOM     17  H   UNL     1       4.257   1.228  -3.767  0.00  0.00    +0.122 HD
ATOM     18  C   UNL     1       4.505  -0.757  -3.322  0.00  0.00    +0.100 C 
ATOM     19  C   UNL     1       4.150  -1.825  -2.260  0.00  0.00    +0.120 C 
ATOM     20  N   UNL     1       2.724  -1.752  -1.883  0.00  0.00    -0.325 N 
ATOM     21  C   UNL     1       2.270  -0.393  -1.535  0.00  0.00    +0.123 C 
ENDBRANCH   1  20
BRANCH  11  22
ATOM     22  C   UNL     1       3.314  -6.844  -1.726  0.00  0.00    +0.087 C 
ATOM     23  C   UNL     1       4.500  -6.625  -2.639  0.00  0.00    +0.027 C 
ATOM     24  C   UNL     1       4.156  -8.009  -2.187  0.00  0.00    +0.027 C 
ENDBRANCH  11  22
BRANCH   6  25
ATOM     25  C   UNL     1      -0.913  -8.761  -3.226  0.00  0.00    +0.342 C 
ATOM     26  O   UNL     1      -0.454  -9.880  -3.067  0.00  0.00    -0.245 OA
BRANCH  25  27
ATOM     27  O   UNL     1      -2.167  -8.561  -3.685  0.00  0.00    -0.477 OA
ATOM     28  H   UNL     1      -2.410  -7.606  -3.777  0.00  0.00    +0.295 HD
ENDBRANCH  25  27
ENDBRANCH   6  25
TORSDOF 4
