REMARK  Name = 
REMARK  7 active torsions:
REMARK  status: ('A' for Active; 'I' for Inactive)
REMARK    1  A    between atoms: CD1_1  and  CG1_2
REMARK    2  A    between atoms: CG1_2  and  CB_3
REMARK    3  A    between atoms: CB_3  and  CG2_5
REMARK    4  A    between atoms: CB_3  and  CA_6
REMARK    5  A    between atoms: CA_6  and  N_8
REMARK    6  A    between atoms: CA_6  and  C_9
REMARK    7  A    between atoms: C_9  and  O_10
REMARK                            x       y       z     vdW  Elec       q    Type
REMARK                         _______ _______ _______ _____ _____    ______ ____
ROOT
ATOM      1  CA  ILE A   1       4.575  -0.407   1.449  0.00  0.00    +0.163 C 
ENDROOT
BRANCH   1   2
ATOM      2  N   ILE A   1       5.673   0.227   2.234  0.00  0.00    -0.318 NA
ATOM      3  H1  ILE A   1       6.289   0.717   1.580  0.00  0.00    +0.119 HD
ATOM      4  H2  ILE A   1       5.260   0.981   2.796  0.00  0.00    +0.119 HD
ENDBRANCH   1   2
BRANCH   1   5
ATOM      5  CB  ILE A   1       5.050  -1.346   0.314  0.00  0.00    +0.013 C 
ATOM      6  CG2 ILE A   1       5.780  -0.577  -0.793  0.00  0.00    +0.009 C 
BRANCH   5   8
ATOM      7  CD1 ILE A   1       7.261  -2.362   1.278  0.00  0.00    +0.004 C 
ATOM      8  CG1 ILE A   1       5.849  -2.594   0.760  0.00  0.00    +0.002 C 
ENDBRANCH   5   8
ENDBRANCH   1   5
BRANCH   1   9
ATOM      9  C   ILE A   1       3.664  -1.171   2.426  0.00  0.00    +0.322 C 
ATOM     10  OXT ILE A   1       2.516  -1.514   2.196  0.00  0.00    -0.249 OA
BRANCH   9  11
ATOM     11  O   ILE A   1       4.313  -1.448   3.588  0.00  0.00    -0.480 OA
ATOM     12  H   ILE A   1       5.219  -1.062   3.492  0.00  0.00    +0.295 HD
ENDBRANCH   9  11
ENDBRANCH   1   9
TORSDOF 5
