REMARK  Name = 
REMARK  7 active torsions:
REMARK  status: ('A' for Active; 'I' for Inactive)
REMARK    1  A    between atoms: C_1  and  C_2
REMARK    2  A    between atoms: C_2  and  C_3
REMARK    3  A    between atoms: C_3  and  N_4
REMARK    4  A    between atoms: C_9  and  C_11
REMARK    5  A    between atoms: N_13  and  C_14
REMARK    6  A    between atoms: C_15  and  C_16
REMARK    7  A    between atoms: C_20  and  C_21
REMARK                            x       y       z     vdW  Elec       q    Type
REMARK                         _______ _______ _______ _____ _____    ______ ____
ROOT
ATOM      1  C   UNL     1       4.508  -3.323  -0.129  0.00  0.00    +0.234 C 
ATOM      2  N   UNL     1       4.403  -2.602  -1.303  0.00  0.00    -0.284 N 
ATOM      3  H   UNL     1       4.926  -1.736  -1.318  0.00  0.00    +0.155 HD
ATOM      4  O   UNL     1       4.341  -4.541  -0.048  0.00  0.00    -0.274 OA
ENDROOT
BRANCH   2   5
ATOM      5  C   UNL     1       3.923  -3.127  -2.523  0.00  0.00    +0.039 A 
ATOM      6  C   UNL     1       4.639  -2.815  -3.702  0.00  0.00    -0.029 A 
ATOM      7  C   UNL     1       5.945  -2.064  -3.662  0.00  0.00    +0.045 C 
ATOM      8  C   UNL     1       4.187  -3.295  -4.941  0.00  0.00    +0.005 A 
ATOM      9  C   UNL     1       3.038  -4.077  -5.020  0.00  0.00    +0.001 A 
ATOM     10  C   UNL     1       2.328  -4.383  -3.862  0.00  0.00    +0.005 A 
ATOM     11  C   UNL     1       2.743  -3.903  -2.607  0.00  0.00    -0.029 A 
ATOM     12  C   UNL     1       1.845  -4.241  -1.445  0.00  0.00    +0.045 C 
ENDBRANCH   2   5
BRANCH   1  14
ATOM     13  N   UNL     1       4.513  -1.079   1.093  0.00  0.00    -0.292 NA
ATOM     14  C   UNL     1       4.996  -2.499   1.083  0.00  0.00    +0.143 C 
ATOM     15  C   UNL     1       4.694  -3.260   2.384  0.00  0.00    +0.028 C 
ATOM     16  C   UNL     1       5.227  -2.527   3.606  0.00  0.00    +0.003 C 
ATOM     17  C   UNL     1       4.814  -1.061   3.602  0.00  0.00    +0.015 C 
ATOM     18  C   UNL     1       5.131  -0.401   2.255  0.00  0.00    +0.085 C 
BRANCH  13  19
ATOM     19  C   UNL     1       3.035  -0.964   1.100  0.00  0.00    +0.085 C 
BRANCH  19  21
ATOM     20  C   UNL     1       1.014   0.551   0.956  0.00  0.00    +0.005 C 
ATOM     21  C   UNL     1       2.535   0.487   0.995  0.00  0.00    +0.012 C 
ENDBRANCH  19  21
ENDBRANCH  13  19
ENDBRANCH   1  14
TORSDOF 4
