REMARK  Name = 
REMARK  30 active torsions:
REMARK  status: ('A' for Active; 'I' for Inactive)
REMARK    1  A    between atoms: C_1  and  C_2
REMARK    2  A    between atoms: C_2  and  C_3
REMARK    3  A    between atoms: C_8  and  C_10
REMARK    4  A    between atoms: C_11  and  O_13
REMARK    5  A    between atoms: O_13  and  C_14
REMARK    6  A    between atoms: C_17  and  C_18
REMARK    7  A    between atoms: C_17  and  O_19
REMARK    8  A    between atoms: O_19  and  C_20
REMARK    9  A    between atoms: C_21  and  O_23
REMARK   10  A    between atoms: C_24  and  C_26
REMARK   11  A    between atoms: C_28  and  C_30
REMARK   12  A    between atoms: C_31  and  O_33
REMARK   13  A    between atoms: O_33  and  C_34
REMARK   14  A    between atoms: C_37  and  C_39
REMARK   15  A    between atoms: C_41  and  N_46
REMARK   16  A    between atoms: C_43  and  O_45
REMARK   17  A    between atoms: N_46  and  C_47
REMARK   18  A    between atoms: N_46  and  C_48
REMARK   19  A    between atoms: C_49  and  C_50
REMARK   20  A    between atoms: C_49  and  O_51
REMARK   21  A    between atoms: C_53  and  C_55
REMARK   22  A    between atoms: C_59  and  C_61
REMARK   23  A    between atoms: C_61  and  O_62
REMARK   24  A    between atoms: O_62  and  C_63
REMARK   25  A    between atoms: C_63  and  C_64
REMARK   26  A    between atoms: C_64  and  O_65
REMARK   27  A    between atoms: O_65  and  C_66
REMARK   28  A    between atoms: C_70  and  C_72
REMARK   29  A    between atoms: C_73  and  C_74
REMARK   30  A    between atoms: C_73  and  O_75
REMARK                            x       y       z     vdW  Elec       q    Type
REMARK                         _______ _______ _______ _____ _____    ______ ____
ROOT
ATOM      1  C   UNL     1      -2.988   0.682  -4.261  0.00  0.00    +0.210 C 
ATOM      2  C   UNL     1      -3.047   1.112  -5.808  0.00  0.00    +0.126 C 
ATOM      3  C   UNL     1      -3.947   2.381  -5.856  0.00  0.00    +0.048 C 
ATOM      4  C   UNL     1      -3.586   0.002  -6.832  0.00  0.00    +0.160 C 
ATOM      5  C   UNL     1      -2.936  -1.409  -6.981  0.00  0.00    +0.035 C 
ATOM      6  C   UNL     1      -1.600  -1.349  -6.407  0.00  0.00    +0.012 C 
ATOM      7  C   UNL     1      -2.765  -2.147  -8.381  0.00  0.00    +0.064 C 
ATOM      8  N   UNL     1      -3.509  -1.455  -9.445  0.00  0.00    -0.286 NA
ATOM      9  H   UNL     1      -2.840  -0.992 -10.058  0.00  0.00    +0.125 HD
ATOM     10  C   UNL     1      -4.421  -0.416  -8.979  0.00  0.00    +0.213 C 
ATOM     11  C   UNL     1      -1.220  -2.534  -8.861  0.00  0.00    +0.006 C 
ATOM     12  C   UNL     1      -1.137  -3.108 -10.297  0.00  0.00    +0.009 C 
ATOM     13  C   UNL     1      -0.396  -3.553  -7.914  0.00  0.00    +0.042 C 
ATOM     14  C   UNL     1       1.062  -3.163  -7.281  0.00  0.00    +0.090 C 
ATOM     15  C   UNL     1       2.023  -4.322  -7.579  0.00  0.00    +0.044 C 
ATOM     16  C   UNL     1       0.995  -2.739  -5.706  0.00  0.00    +0.158 C 
ATOM     17  C   UNL     1       1.869  -2.958  -4.441  0.00  0.00    +0.047 C 
ATOM     18  C   UNL     1       2.649  -4.275  -4.401  0.00  0.00    +0.013 C 
ATOM     19  C   UNL     1       0.958  -2.593  -3.107  0.00  0.00    +0.140 C 
ATOM     20  C   UNL     1       0.022  -1.248  -2.796  0.00  0.00    +0.124 C 
ATOM     21  C   UNL     1       0.483   0.211  -2.552  0.00  0.00    +0.022 C 
ATOM     22  C   UNL     1      -1.375  -1.169  -3.448  0.00  0.00    +0.313 C 
ATOM     23  O   UNL     1      -2.092  -2.142  -3.608  0.00  0.00    -0.250 OA
ATOM     24  O   UNL     1      -3.717   0.528  -8.157  0.00  0.00    -0.353 OA
ATOM     25  O   UNL     1      -1.711   0.131  -3.769  0.00  0.00    -0.458 OA
ENDROOT
BRANCH   1  27
ATOM     26  C   UNL     1      -4.435   0.025  -2.277  0.00  0.00    +0.007 C 
ATOM     27  C   UNL     1      -4.225  -0.083  -3.778  0.00  0.00    +0.044 C 
ENDBRANCH   1  27
BRANCH  14  28
ATOM     28  O   UNL     1       1.574  -2.093  -8.090  0.00  0.00    -0.386 OA
ATOM     29  H   UNL     1       0.990  -1.320  -7.947  0.00  0.00    +0.210 HD
ENDBRANCH  14  28
BRANCH   2  30
ATOM     30  O   UNL     1      -1.788   1.633  -6.252  0.00  0.00    -0.383 OA
ATOM     31  H   UNL     1      -1.861   1.740  -7.220  0.00  0.00    +0.210 HD
ENDBRANCH   2  30
BRANCH  16  32
ATOM     32  O   UNL     1       0.717  -1.338  -5.613  0.00  0.00    -0.342 OA
BRANCH  32  33
ATOM     33  C   UNL     1       1.797  -0.435  -5.805  0.00  0.00    +0.281 C 
ATOM     34  C   UNL     1       1.199   0.930  -6.174  0.00  0.00    +0.187 C 
ATOM     35  C   UNL     1       2.244   2.058  -6.048  0.00  0.00    +0.092 C 
ATOM     36  C   UNL     1       3.270   1.879  -4.894  0.00  0.00    +0.053 C 
ATOM     37  C   UNL     1       3.720   0.438  -4.882  0.00  0.00    +0.120 C 
ATOM     38  C   UNL     1       4.740   0.044  -3.831  0.00  0.00    +0.038 C 
ATOM     39  O   UNL     1       2.553  -0.312  -4.617  0.00  0.00    -0.346 OA
BRANCH  35  40
ATOM     40  N   UNL     1       1.565   3.376  -6.131  0.00  0.00    -0.303 NA
ATOM     41  C   UNL     1       2.512   4.442  -6.457  0.00  0.00    +0.105 C 
ATOM     42  C   UNL     1       0.790   3.740  -4.939  0.00  0.00    +0.105 C 
ENDBRANCH  35  40
BRANCH  34  43
ATOM     43  O   UNL     1       0.716   0.863  -7.527  0.00  0.00    -0.385 OA
ATOM     44  H   UNL     1       0.604   1.800  -7.779  0.00  0.00    +0.210 HD
ENDBRANCH  34  43
ENDBRANCH  32  33
ENDBRANCH  16  32
BRANCH  19  45
ATOM     45  O   UNL     1       1.585  -3.100  -1.901  0.00  0.00    -0.347 OA
BRANCH  45  46
ATOM     46  C   UNL     1       2.834  -2.589  -1.469  0.00  0.00    +0.254 C 
ATOM     47  O   UNL     1       3.443  -3.497  -0.542  0.00  0.00    -0.346 OA
ATOM     48  C   UNL     1       2.723  -3.606   0.700  0.00  0.00    +0.149 C 
ATOM     49  C   UNL     1       3.505  -4.594   1.554  0.00  0.00    +0.041 C 
ATOM     50  C   UNL     1       2.565  -2.242   1.426  0.00  0.00    +0.175 C 
ATOM     51  C   UNL     1       1.874  -1.230   0.475  0.00  0.00    +0.099 C 
ATOM     52  C   UNL     1       1.784   0.208   1.010  0.00  0.00    +0.044 C 
ATOM     53  C   UNL     1       2.796  -1.240  -0.780  0.00  0.00    +0.098 C 
BRANCH  51  54
ATOM     54  O   UNL     1       0.551  -1.643   0.116  0.00  0.00    -0.374 OA
ATOM     55  C   UNL     1      -0.472  -1.762   1.090  0.00  0.00    +0.194 C 
ENDBRANCH  51  54
BRANCH  50  56
ATOM     56  O   UNL     1       1.900  -2.413   2.680  0.00  0.00    -0.386 OA
ATOM     57  H   UNL     1       1.378  -1.622   2.871  0.00  0.00    +0.210 HD
ENDBRANCH  50  56
ENDBRANCH  45  46
ENDBRANCH  19  45
BRANCH  10  58
ATOM     58  C   UNL     1      -5.744  -0.925  -8.323  0.00  0.00    +0.207 C 
BRANCH  58  59
ATOM     59  O   UNL     1      -6.524   0.153  -7.762  0.00  0.00    -0.374 OA
BRANCH  59  60
ATOM     60  C   UNL     1      -7.032   1.081  -8.725  0.00  0.00    +0.188 C 
BRANCH  60  61
ATOM     61  C   UNL     1      -8.061   0.380  -9.601  0.00  0.00    +0.187 C 
BRANCH  61  62
ATOM     62  O   UNL     1      -8.626   1.243 -10.574  0.00  0.00    -0.381 OA
ATOM     63  C   UNL     1      -9.501   0.483 -11.404  0.00  0.00    +0.194 C 
ENDBRANCH  61  62
ENDBRANCH  60  61
ENDBRANCH  59  60
ENDBRANCH  58  59
ENDBRANCH  10  58
TORSDOF 16
