REMARK  Name = 
REMARK  13 active torsions:
REMARK  status: ('A' for Active; 'I' for Inactive)
REMARK    1  A    between atoms: C_1  and  C_2
REMARK    2  A    between atoms: C_2  and  O_3
REMARK    3  A    between atoms: O_3  and  C_4
REMARK    4  A    between atoms: C_4  and  C_6
REMARK    5  A    between atoms: C_8  and  O_10
REMARK    6  A    between atoms: O_10  and  C_11
REMARK    7  A    between atoms: C_11  and  C_12
REMARK    8  A    between atoms: C_11  and  C_14
REMARK    9  A    between atoms: C_12  and  C_13
REMARK   10  A    between atoms: C_14  and  C_15
REMARK   11  A    between atoms: C_16  and  N_18
REMARK   12  A    between atoms: C_19  and  C_20
REMARK   13  A    between atoms: C_22  and  N_24
REMARK                            x       y       z     vdW  Elec       q    Type
REMARK                         _______ _______ _______ _____ _____    ______ ____
ROOT
ATOM      1  C   UNL     1       4.890   1.559  -2.402  0.00  0.00    +0.037 C 
ATOM      2  C   UNL     1       5.210   0.508  -3.417  0.00  0.00    +0.062 C 
ATOM      3  C   UNL     1       5.724   1.005  -4.775  0.00  0.00    +0.078 C 
ATOM      4  C   UNL     1       5.277   2.433  -5.187  0.00  0.00    +0.122 C 
ATOM      5  C   UNL     1       5.088   3.471  -4.032  0.00  0.00    +0.164 C 
ATOM      6  C   UNL     1       4.886   2.877  -2.664  0.00  0.00    +0.016 C 
ENDROOT
BRANCH   4   7
ATOM      7  N   UNL     1       4.170   2.413  -6.163  0.00  0.00    -0.308 N 
ATOM      8  H   UNL     1       4.428   2.386  -7.141  0.00  0.00    +0.149 HD
ATOM      9  C   UNL     1       2.846   2.247  -5.843  0.00  0.00    +0.210 C 
ATOM     10  O   UNL     1       2.436   2.051  -4.707  0.00  0.00    -0.276 OA
ATOM     11  C   UNL     1       1.919   2.354  -7.030  0.00  0.00    +0.109 C 
ENDBRANCH   4   7
BRANCH   3  12
ATOM     12  N   UNL     1       7.199   0.879  -4.818  0.00  0.00    -0.325 NA
ATOM     13  H   UNL     1       7.450  -0.111  -4.820  0.00  0.00    +0.119 HD
ATOM     14  H   UNL     1       7.567   1.265  -5.686  0.00  0.00    +0.119 HD
ENDBRANCH   3  12
BRANCH   1  15
ATOM     15  C   UNL     1       4.420   0.992  -1.103  0.00  0.00    +0.335 C 
ATOM     16  O   UNL     1       4.692  -0.134  -0.716  0.00  0.00    -0.245 OA
BRANCH  15  17
ATOM     17  O   UNL     1       3.454   1.797  -0.585  0.00  0.00    -0.462 OA
BRANCH  17  19
ATOM     18  C   UNL     1       1.394   0.611  -0.878  0.00  0.00    +0.048 C 
ATOM     19  C   UNL     1       2.419   1.108   0.129  0.00  0.00    +0.229 C 
ENDBRANCH  17  19
ENDBRANCH  15  17
ENDBRANCH   1  15
BRANCH   5  20
ATOM     20  O   UNL     1       6.150   4.442  -3.926  0.00  0.00    -0.367 OA
BRANCH  20  21
ATOM     21  C   UNL     1       6.457   5.235  -5.087  0.00  0.00    +0.119 C 
BRANCH  21  22
ATOM     22  C   UNL     1       7.554   6.247  -4.702  0.00  0.00    +0.028 C 
ATOM     23  C   UNL     1       8.804   5.591  -4.130  0.00  0.00    +0.006 C 
ENDBRANCH  21  22
BRANCH  21  24
ATOM     24  C   UNL     1       5.223   5.948  -5.676  0.00  0.00    +0.028 C 
ATOM     25  C   UNL     1       5.516   6.758  -6.931  0.00  0.00    +0.006 C 
ENDBRANCH  21  24
ENDBRANCH  20  21
ENDBRANCH   5  20
TORSDOF 9
