REMARK  Name = 
REMARK  19 active torsions:
REMARK  status: ('A' for Active; 'I' for Inactive)
REMARK    1  A    between atoms: C_1  and  O_2
REMARK    2  A    between atoms: O_2  and  C_3
REMARK    3  A    between atoms: C_8  and  C_9
REMARK    4  A    between atoms: C_17  and  O_18
REMARK    5  A    between atoms: C_19  and  C_20
REMARK    6  A    between atoms: C_27  and  C_28
REMARK    7  A    between atoms: C_32  and  C_34
REMARK    8  A    between atoms: C_35  and  O_37
REMARK    9  A    between atoms: C_38  and  C_40
REMARK   10  A    between atoms: C_41  and  O_43
REMARK   11  A    between atoms: C_44  and  C_46
REMARK   12  A    between atoms: C_47  and  O_49
REMARK   13  A    between atoms: O_49  and  C_50
REMARK   14  A    between atoms: C_50  and  C_51
REMARK   15  A    between atoms: C_53  and  C_55
REMARK   16  A    between atoms: N_61  and  C_64
REMARK   17  A    between atoms: C_64  and  C_65
REMARK   18  A    between atoms: C_65  and  C_66
REMARK   19  A    between atoms: C_65  and  C_67
REMARK                            x       y       z     vdW  Elec       q    Type
REMARK                         _______ _______ _______ _____ _____    ______ ____
ROOT
ATOM      1  C   UNL     1      14.049  12.047 -20.213  0.00  0.00    +0.150 C 
ATOM      2  C   UNL     1      12.290  11.891 -21.517  0.00  0.00    +0.060 C 
ATOM      3  C   UNL     1      11.786  12.073 -19.764  0.00  0.00    +0.014 C 
ATOM      4  C   UNL     1      10.917  11.625 -23.218  0.00  0.00    +0.187 C 
ATOM      5  C   UNL     1       9.600  10.519 -24.459  0.00  0.00    +0.056 C 
ATOM      6  C   UNL     1       7.851  11.037 -24.736  0.00  0.00    +0.014 C 
ATOM      7  C   UNL     1       8.997   9.801 -26.138  0.00  0.00    +0.126 C 
ATOM      8  C   UNL     1       7.408   8.752 -26.475  0.00  0.00    +0.044 C 
ATOM      9  C   UNL     1       5.719   9.164 -26.581  0.00  0.00    +0.013 C 
ATOM     10  C   UNL     1       7.875   7.461 -25.780  0.00  0.00    +0.126 C 
ATOM     11  C   UNL     1       7.167   7.498 -24.453  0.00  0.00    +0.037 C 
ATOM     12  C   UNL     1       6.361   6.201 -24.450  0.00  0.00    +0.014 C 
ATOM     13  C   UNL     1       8.212   7.753 -23.413  0.00  0.00    -0.021 C 
ATOM     14  C   UNL     1       8.107   7.137 -22.254  0.00  0.00    -0.003 C 
ATOM     15  C   UNL     1       9.283   6.648 -21.553  0.00  0.00    +0.008 C 
ATOM     16  C   UNL     1       9.193   5.853 -20.444  0.00  0.00    +0.012 C 
ATOM     17  C   UNL     1       7.781   5.796 -19.924  0.00  0.00    +0.049 C 
ATOM     18  C   UNL     1      10.550   5.371 -19.688  0.00  0.00    +0.244 C 
ATOM     19  O   UNL     1      11.546   5.270 -20.409  0.00  0.00    -0.270 OA
ATOM     20  N   UNL     1      10.633   5.253 -18.217  0.00  0.00    -0.277 N 
ATOM     21  H   UNL     1       9.755   5.063 -17.747  0.00  0.00    +0.155 HD
ATOM     22  C   UNL     1      11.524   5.986 -17.242  0.00  0.00    +0.105 C 
ATOM     23  C   UNL     1      12.171   7.234 -17.201  0.00  0.00    +0.080 C 
ATOM     24  C   UNL     1      13.418   6.668 -17.361  0.00  0.00    +0.092 C 
ATOM     25  C   UNL     1      13.749   6.440 -15.840  0.00  0.00    +0.031 A 
ATOM     26  C   UNL     1      12.569   6.272 -15.010  0.00  0.00    +0.075 A 
ATOM     27  C   UNL     1      12.455   6.604 -13.619  0.00  0.00    +0.135 A 
ATOM     28  C   UNL     1      13.486   7.258 -12.942  0.00  0.00    +0.034 A 
ATOM     29  C   UNL     1      13.402   7.383 -11.420  0.00  0.00    +0.051 C 
ATOM     30  C   UNL     1      14.496   7.719 -13.833  0.00  0.00    +0.143 A 
ATOM     31  O   UNL     1      15.202   8.933 -13.673  0.00  0.00    -0.444 OA
ATOM     32  C   UNL     1      16.240   8.842 -14.753  0.00  0.00    +0.314 C 
ATOM     33  C   UNL     1      17.524   8.137 -13.836  0.00  0.00    +0.114 C 
ATOM     34  C   UNL     1      15.768   7.953 -15.690  0.00  0.00    +0.250 C 
ATOM     35  O   UNL     1      16.240   7.586 -16.792  0.00  0.00    -0.284 OA
ATOM     36  O   UNL     1      16.210  10.057 -16.097  0.00  0.00    -0.453 OA
ATOM     37  C   UNL     1      14.927  10.746 -17.075  0.00  0.00    +0.190 C 
ATOM     38  C   UNL     1      14.659   7.214 -15.147  0.00  0.00    +0.077 A 
ATOM     39  N   UNL     1      13.445   6.738 -18.738  0.00  0.00    -0.256 NA
ATOM     40  C   UNL     1      11.975   7.713 -19.154  0.00  0.00    +0.128 C 
ATOM     41  C   UNL     1      10.367   7.707 -18.638  0.00  0.00    +0.065 C 
ATOM     42  C   UNL     1       9.969   8.841 -17.709  0.00  0.00    +0.088 C 
ATOM     43  N   UNL     1       9.641   9.829 -18.677  0.00  0.00    -0.302 NA
ATOM     44  C   UNL     1      10.840   9.886 -19.530  0.00  0.00    +0.088 C 
ATOM     45  C   UNL     1      11.820   8.778 -20.210  0.00  0.00    +0.065 C 
ATOM     46  N   UNL     1      12.391   8.354 -17.983  0.00  0.00    -0.317 N 
ATOM     47  H   UNL     1      13.388   8.536 -18.232  0.00  0.00    +0.148 HD
ATOM     48  C   UNL     1      11.293   6.022 -15.780  0.00  0.00    +0.213 C 
ATOM     49  O   UNL     1      10.174   6.097 -15.294  0.00  0.00    -0.285 OA
ATOM     50  C   UNL     1      14.778  11.062 -18.625  0.00  0.00    +0.042 C 
ENDROOT
BRANCH   1  52
ATOM     51  C   UNL     1      16.066  13.560 -18.286  0.00  0.00    +0.194 C 
ATOM     52  O   UNL     1      15.263  13.300 -19.765  0.00  0.00    -0.375 OA
ENDBRANCH   1  52
BRANCH   7  53
ATOM     53  O   UNL     1       9.759   8.975 -27.190  0.00  0.00    -0.391 OA
ATOM     54  H   UNL     1       9.097   8.484 -27.786  0.00  0.00    +0.210 HD
ENDBRANCH   7  53
BRANCH  10  55
ATOM     55  O   UNL     1       9.315   7.305 -25.613  0.00  0.00    -0.391 OA
ATOM     56  H   UNL     1       9.839   7.843 -26.247  0.00  0.00    +0.210 HD
ENDBRANCH  10  55
BRANCH  27  57
ATOM     57  O   UNL     1      11.272   6.400 -12.946  0.00  0.00    -0.506 OA
ATOM     58  H   UNL     1      10.535   6.282 -13.587  0.00  0.00    +0.292 HD
ENDBRANCH  27  57
BRANCH   4  59
ATOM     59  O   UNL     1      10.332  12.844 -24.572  0.00  0.00    -0.461 OA
BRANCH  59  60
ATOM     60  C   UNL     1       8.958  13.319 -25.266  0.00  0.00    +0.304 C 
ATOM     61  O   UNL     1       8.188  13.995 -24.553  0.00  0.00    -0.251 OA
ATOM     62  C   UNL     1       8.189  13.091 -26.928  0.00  0.00    +0.136 C 
ENDBRANCH  59  60
ENDBRANCH   4  59
BRANCH  43  63
ATOM     63  C   UNL     1       8.445   9.577 -19.451  0.00  0.00    +0.087 C 
BRANCH  63  64
ATOM     64  C   UNL     1       7.194   9.237 -18.609  0.00  0.00    -0.003 C 
ATOM     65  C   UNL     1       6.850  10.549 -17.921  0.00  0.00    +0.008 C 
ATOM     66  C   UNL     1       7.158   8.035 -17.614  0.00  0.00    +0.008 C 
ENDBRANCH  63  64
ENDBRANCH  43  63
TORSDOF 8
