REMARK  Name = 
REMARK  8 active torsions:
REMARK  status: ('A' for Active; 'I' for Inactive)
REMARK    1  A    between atoms: O_1  and  C_2
REMARK    2  A    between atoms: C_2  and  C_4
REMARK    3  A    between atoms: C_2  and  C_27
REMARK    4  A    between atoms: C_4  and  C_5
REMARK    5  A    between atoms: C_5  and  C_6
REMARK    6  A    between atoms: C_8  and  C_20
REMARK    7  A    between atoms: N_10  and  C_13
REMARK    8  A    between atoms: C_23  and  O_24
REMARK                            x       y       z     vdW  Elec       q    Type
REMARK                         _______ _______ _______ _____ _____    ______ ____
ROOT
ATOM      1  C   UNL     1       2.831  -2.091   3.251  0.00  0.00    +0.101 C 
ATOM      2  C   UNL     1       3.079  -3.581   2.952  0.00  0.00    +0.226 C 
ATOM      3  O   UNL     1       3.769  -4.188   2.166  0.00  0.00    -0.275 OA
ATOM      4  N   UNL     1       2.306  -3.958   4.002  0.00  0.00    -0.263 N 
ATOM      5  C   UNL     1       1.776  -2.619   4.297  0.00  0.00    +0.123 C 
ENDROOT
BRANCH   4   6
ATOM      6  C   UNL     1       2.340  -5.111   4.782  0.00  0.00    +0.037 A 
ATOM      7  C   UNL     1       1.426  -5.296   5.826  0.00  0.00    +0.026 A 
ATOM      8  C   UNL     1       1.500  -6.439   6.631  0.00  0.00    +0.040 A 
ATOM      9  C   UNL     1       2.497  -7.382   6.405  0.00  0.00    +0.124 A 
ATOM     10  F   UNL     1       2.577  -8.464   7.189  0.00  0.00    -0.205 F 
ATOM     11  C   UNL     1       3.416  -7.211   5.381  0.00  0.00    +0.040 A 
ATOM     12  C   UNL     1       3.327  -6.083   4.562  0.00  0.00    +0.026 A 
ENDBRANCH   4   6
BRANCH   5  13
ATOM     13  C   UNL     1       0.258  -2.307   3.889  0.00  0.00    -0.026 A 
ATOM     14  C   UNL     1      -0.533  -1.385   4.603  0.00  0.00    +0.009 A 
ATOM     15  C   UNL     1      -1.806  -0.999   4.157  0.00  0.00    +0.046 A 
ATOM     16  C   UNL     1      -2.312  -1.529   2.980  0.00  0.00    +0.117 A 
ATOM     17  C   UNL     1      -1.593  -2.474   2.269  0.00  0.00    +0.046 A 
ATOM     18  C   UNL     1      -0.329  -2.863   2.727  0.00  0.00    +0.009 A 
BRANCH  16  19
ATOM     19  O   UNL     1      -3.521  -1.080   2.541  0.00  0.00    -0.507 OA
ATOM     20  H   UNL     1      -3.683  -1.446   1.655  0.00  0.00    +0.292 HD
ENDBRANCH  16  19
ENDBRANCH   5  13
BRANCH   1  21
ATOM     21  C   UNL     1       4.082  -1.368   3.747  0.00  0.00    +0.018 C 
BRANCH  21  22
ATOM     22  C   UNL     1       4.953  -0.985   2.539  0.00  0.00    +0.037 C 
BRANCH  22  23
ATOM     23  C   UNL     1       6.303  -0.351   2.892  0.00  0.00    +0.145 C 
BRANCH  23  24
ATOM     24  C   UNL     1       6.170   0.957   3.644  0.00  0.00    -0.019 A 
ATOM     25  C   UNL     1       6.236   1.003   5.047  0.00  0.00    +0.009 A 
ATOM     26  C   UNL     1       6.112   2.214   5.725  0.00  0.00    +0.039 A 
ATOM     27  C   UNL     1       5.924   3.386   5.004  0.00  0.00    +0.123 A 
ATOM     28  F   UNL     1       5.816   4.551   5.656  0.00  0.00    -0.205 F 
ATOM     29  C   UNL     1       5.844   3.366   3.618  0.00  0.00    +0.039 A 
ATOM     30  C   UNL     1       5.963   2.154   2.937  0.00  0.00    +0.009 A 
ENDBRANCH  23  24
BRANCH  23  31
ATOM     31  O   UNL     1       7.091  -1.276   3.637  0.00  0.00    -0.387 OA
ATOM     32  H   UNL     1       7.317  -2.005   3.033  0.00  0.00    +0.210 HD
ENDBRANCH  23  31
ENDBRANCH  22  23
ENDBRANCH  21  22
ENDBRANCH   1  21
TORSDOF 8
