REMARK  Name = 
REMARK  11 active torsions:
REMARK  status: ('A' for Active; 'I' for Inactive)
REMARK    1  A    between atoms: C_10  and  C_11
REMARK    2  A    between atoms: C_11  and  C_12
REMARK    3  A    between atoms: C_12  and  C_13
REMARK    4  A    between atoms: C_16  and  C_19
REMARK    5  A    between atoms: N_21  and  CA_22
REMARK    6  A    between atoms: CA_22  and  CB_24
REMARK    7  A    between atoms: CA_22  and  C_29
REMARK    8  A    between atoms: CB_24  and  CG_25
REMARK    9  A    between atoms: CG_25  and  CD_26
REMARK   10  A    between atoms: CD_26  and  OE1_27
REMARK   11  A    between atoms: C_29  and  O_30
REMARK                            x       y       z     vdW  Elec       q    Type
REMARK                         _______ _______ _______ _____ _____    ______ ____
ROOT
ATOM      1  C   UNK A   0      11.248   2.499  -2.987  0.00  0.00    -0.047 A 
ATOM      2  C   UNK A   0      11.805   3.140  -1.868  0.00  0.00    +0.004 A 
ATOM      3  C   UNK A   0      12.266   4.459  -1.948  0.00  0.00    +0.013 A 
ATOM      4  C   UNK A   0      12.191   5.153  -3.158  0.00  0.00    +0.037 A 
ATOM      5  C   UNK A   0      11.544   4.562  -4.248  0.00  0.00    +0.013 A 
ATOM      6  C   UNK A   0      11.071   3.248  -4.158  0.00  0.00    +0.004 A 
ENDROOT
BRANCH   4   7
ATOM      7  C   UNK A   0      12.819   6.501  -3.253  0.00  0.00    +0.245 C 
ATOM      8  N   GLU A   1      13.351   6.840  -4.481  0.00  0.00    -0.298 N 
ATOM      9  H   GLU A   1      13.284   6.180  -5.251  0.00  0.00    +0.150 HD
ATOM     10  O   UNK A   0      12.868   7.243  -2.279  0.00  0.00    -0.270 OA
BRANCH   8  11
ATOM     11  CA  GLU A   1      13.886   8.177  -4.781  0.00  0.00    +0.182 C 
BRANCH  11  12
ATOM     12  C   GLU A   1      15.019   8.012  -5.808  0.00  0.00    +0.325 C 
ATOM     13  OXT GLU A   1      15.223   8.738  -6.767  0.00  0.00    -0.249 OA
BRANCH  12  14
ATOM     14  O   GLU A   1      15.848   6.981  -5.495  0.00  0.00    -0.479 OA
ATOM     15  H   GLU A   1      15.597   6.570  -4.641  0.00  0.00    +0.295 HD
ENDBRANCH  12  14
ENDBRANCH  11  12
BRANCH  11  16
ATOM     16  CB  GLU A   1      12.815   9.152  -5.284  0.00  0.00    +0.045 C 
BRANCH  16  17
ATOM     17  CG  GLU A   1      11.699   9.386  -4.263  0.00  0.00    +0.123 C 
BRANCH  17  18
ATOM     18  CD  GLU A   1      10.693  10.408  -4.716  0.00  0.00    +0.305 C 
ATOM     19  OE2 GLU A   1      10.713  10.997  -5.787  0.00  0.00    -0.251 OA
BRANCH  18  20
ATOM     20  OE1 GLU A   1       9.720  10.606  -3.794  0.00  0.00    -0.481 OA
ATOM     21  HE1 GLU A   1       9.837  10.063  -2.990  0.00  0.00    +0.295 HD
ENDBRANCH  18  20
ENDBRANCH  17  18
ENDBRANCH  16  17
ENDBRANCH  11  16
ENDBRANCH   8  11
ENDBRANCH   4   7
BRANCH   1  22
ATOM     22  C   UNK A   0      10.816   1.048  -2.865  0.00  0.00    +0.040 C 
BRANCH  22  23
ATOM     23  C   UNK A   0      10.832   0.232  -4.169  0.00  0.00    +0.042 C 
BRANCH  23  34
ATOM     24  N   UNK A   0      12.302  -6.088  -2.732  0.00  0.00    -0.329 N 
ATOM     25  H   UNK A   0      11.845  -6.810  -3.273  0.00  0.00    +0.145 HD
ATOM     26  H   UNK A   0      13.310  -6.224  -2.719  0.00  0.00    +0.145 HD
ATOM     27  C   UNK A   0      11.992  -4.813  -3.083  0.00  0.00    +0.195 A 
ATOM     28  N   UNK A   0      10.654  -4.632  -3.319  0.00  0.00    -0.314 N 
ATOM     29  H   UNK A   0      10.022  -5.387  -3.087  0.00  0.00    +0.170 HD
ATOM     30  C   UNK A   0      10.257  -3.384  -3.596  0.00  0.00    +0.124 A 
ATOM     31  N   UNK A   0       8.988  -2.956  -3.804  0.00  0.00    -0.347 N 
ATOM     32  H   UNK A   0       8.152  -3.523  -3.794  0.00  0.00    +0.167 HD
ATOM     33  C   UNK A   0       9.034  -1.602  -4.041  0.00  0.00    +0.088 A 
ATOM     34  C   UNK A   0      10.357  -1.176  -3.973  0.00  0.00    -0.015 A 
ATOM     35  C   UNK A   0      11.138  -2.339  -3.690  0.00  0.00    +0.086 A 
ATOM     36  C   UNK A   0      12.567  -2.591  -3.487  0.00  0.00    +0.284 A 
ATOM     37  O   UNK A   0      13.395  -1.693  -3.597  0.00  0.00    -0.265 OA
ATOM     38  N   UNK A   0      12.913  -3.900  -3.153  0.00  0.00    -0.177 NA
ENDBRANCH  23  34
ENDBRANCH  22  23
ENDBRANCH   1  22
TORSDOF 11
