REMARK  Name = 
REMARK  12 active torsions:
REMARK  status: ('A' for Active; 'I' for Inactive)
REMARK    1  A    between atoms: C_2  and  CA_4
REMARK    2  A    between atoms: C_5  and  C_33
REMARK    3  A    between atoms: CA_10  and  N_12
REMARK    4  A    between atoms: C_13  and  C_15
REMARK    5  A    between atoms: C_15  and  C_24
REMARK    6  A    between atoms: N_16  and  O_17
REMARK    7  A    between atoms: O_17  and  C_18
REMARK    8  A    between atoms: C_18  and  C_19
REMARK    9  A    between atoms: C_18  and  C_20
REMARK   10  A    between atoms: C_18  and  C_21
REMARK   11  A    between atoms: C_21  and  O_22
REMARK   12  A    between atoms: C_33  and  N_34
REMARK                            x       y       z     vdW  Elec       q    Type
REMARK                         _______ _______ _______ _____ _____    ______ ____
ROOT
ATOM      1  N   UNL     1       5.785  -2.115   3.762  0.00  0.00    -0.296 N 
ATOM      2  H   UNL     1       6.552  -2.392   4.366  0.00  0.00    +0.150 HD
ATOM      3  C   UNL     1       4.502  -2.421   4.184  0.00  0.00    +0.268 C 
ATOM      4  O   UNL     1       3.481  -2.290   3.517  0.00  0.00    -0.268 OA
ENDROOT
BRANCH   1   8
ATOM      5  CA  UNL     1       3.284  -1.170   0.529  0.00  0.00    +0.066 C 
ATOM      6  N   UNL     1       4.501  -1.051   1.141  0.00  0.00    -0.253 N 
ATOM      7  C   UNL     1       5.579  -2.008   1.109  0.00  0.00    +0.168 C 
ATOM      8  CA  UNL     1       6.057  -1.386   2.459  0.00  0.00    +0.191 C 
ATOM      9  S   UNL     1       5.157  -3.749   1.180  0.00  0.00    -0.131 S 
ATOM     10  C   UNL     1       3.457  -3.712   0.644  0.00  0.00    +0.110 C 
ATOM     11  C   UNL     1       5.016  -0.265   2.128  0.00  0.00    +0.244 C 
ATOM     12  O   UNL     1       4.701   0.738   2.725  0.00  0.00    -0.273 OA
ATOM     13  C   UNL     1       2.780  -2.410   0.316  0.00  0.00    +0.028 C 
BRANCH   5  15
ATOM     14  O   UNL     1       1.530  -0.124  -0.738  0.00  0.00    -0.543 OA
ATOM     15  C   UNL     1       2.406   0.100   0.155  0.00  0.00    +0.086 C 
ATOM     16  OXT UNL     1       2.633   1.157   0.785  0.00  0.00    -0.543 OA
ENDBRANCH   5  15
BRANCH  13  17
ATOM     17  C   UNL     1       1.368  -2.650  -0.196  0.00  0.00    +0.391 C 
BRANCH  17  18
ATOM     18  N   UNL     1       0.256  -2.207   0.699  0.00  0.00    -0.200 N 
ATOM     19  C   UNL     1      -0.890  -1.773   0.123  0.00  0.00    +0.309 A 
ATOM     20  C   UNL     1      -2.039  -1.572   0.881  0.00  0.00    +0.070 A 
ATOM     21  C   UNL     1      -1.997  -1.771   2.255  0.00  0.00    +0.012 A 
ATOM     22  C   UNL     1      -0.791  -2.128   2.850  0.00  0.00    +0.070 A 
ATOM     23  C   UNL     1       0.333  -2.330   2.047  0.00  0.00    +0.309 A 
ENDBRANCH  17  18
ENDBRANCH  13  17
ENDBRANCH   1   8
BRANCH   3  24
ATOM     24  C   UNL     1       4.312  -2.938   5.595  0.00  0.00    +0.190 C 
ATOM     25  N   UNL     1       5.094  -3.778   6.213  0.00  0.00    -0.077 NA
BRANCH  24  26
ATOM     26  C   UNL     1       3.095  -2.540   6.316  0.00  0.00    +0.107 A 
ATOM     27  N   UNL     1       2.466  -3.416   7.202  0.00  0.00    -0.223 NA
ATOM     28  C   UNL     1       1.337  -2.907   7.626  0.00  0.00    +0.156 A 
ATOM     29  N   UNL     1       0.490  -3.560   8.437  0.00  0.00    -0.338 N 
ATOM     30  H   UNL     1       0.878  -4.355   8.934  0.00  0.00    +0.144 HD
ATOM     31  H   UNL     1      -0.159  -3.008   8.986  0.00  0.00    +0.144 HD
ATOM     32  S   UNL     1       0.987  -1.324   7.068  0.00  0.00    -0.060 S 
ATOM     33  C   UNL     1       2.425  -1.341   6.140  0.00  0.00    +0.078 A 
ENDBRANCH  24  26
BRANCH  25  34
ATOM     34  O   UNL     1       6.174  -4.265   5.460  0.00  0.00    -0.376 OA
BRANCH  34  35
ATOM     35  C   UNL     1       6.537  -5.587   5.921  0.00  0.00    +0.228 C 
ATOM     36  C   UNL     1       7.870  -5.939   5.250  0.00  0.00    +0.070 C 
ATOM     37  C   UNL     1       5.458  -6.579   5.474  0.00  0.00    +0.070 C 
BRANCH  35  38
ATOM     38  C   UNL     1       6.776  -5.724   7.446  0.00  0.00    +0.351 C 
ATOM     39  O   UNL     1       7.143  -6.755   7.995  0.00  0.00    -0.246 OA
BRANCH  38  40
ATOM     40  O   UNL     1       6.584  -4.576   8.138  0.00  0.00    -0.478 OA
ATOM     41  H   UNL     1       6.130  -3.932   7.544  0.00  0.00    +0.295 HD
ENDBRANCH  38  40
ENDBRANCH  35  38
ENDBRANCH  34  35
ENDBRANCH  25  34
ENDBRANCH   3  24
TORSDOF 10
