REMARK  Name = 
REMARK  5 active torsions:
REMARK  status: ('A' for Active; 'I' for Inactive)
REMARK    1  A    between atoms: C_1  and  O_2
REMARK    2  A    between atoms: O_2  and  C_3
REMARK    3  A    between atoms: C_4  and  O_5
REMARK    4  A    between atoms: O_5  and  C_6
REMARK    5  A    between atoms: C_22  and  C_24
REMARK                            x       y       z     vdW  Elec       q    Type
REMARK                         _______ _______ _______ _____ _____    ______ ____
ROOT
ATOM      1  C   UNL     1       3.291   1.153  -0.459  0.00  0.00    +0.164 A 
ATOM      2  C   UNL     1       4.605   1.142  -0.971  0.00  0.00    +0.078 A 
ATOM      3  C   UNL     1       5.284   2.297  -1.337  0.00  0.00    +0.082 A 
ATOM      4  C   UNL     1       4.596   3.499  -1.276  0.00  0.00    +0.044 A 
ATOM      5  C   UNL     1       5.341   4.621  -1.629  0.00  0.00    +0.129 A 
ATOM      6  N   UNL     1       6.625   4.559  -1.996  0.00  0.00    -0.199 NA
ATOM      7  C   UNL     1       7.227   3.359  -2.008  0.00  0.00    +0.220 A 
ATOM      8  N   UNL     1       8.555   3.292  -2.341  0.00  0.00    -0.297 N 
ATOM      9  C   UNL     1       9.330   4.502  -2.646  0.00  0.00    +0.127 C 
ATOM     10  C   UNL     1      10.025   4.327  -4.014  0.00  0.00    +0.127 C 
ATOM     11  N   UNL     1      10.826   3.092  -4.031  0.00  0.00    -0.295 N 
ATOM     12  C   UNL     1      12.212   3.012  -4.069  0.00  0.00    +0.260 C 
ATOM     13  O   UNL     1      12.783   1.941  -3.836  0.00  0.00    -0.271 OA
ATOM     14  C   UNL     1      10.041   1.887  -3.706  0.00  0.00    +0.127 C 
ATOM     15  C   UNL     1       9.291   2.029  -2.364  0.00  0.00    +0.127 C 
ATOM     16  N   UNL     1       4.779   5.903  -1.633  0.00  0.00    -0.343 N 
ATOM     17  H   UNL     1       5.527   6.555  -1.853  0.00  0.00    +0.144 HD
ATOM     18  H   UNL     1       4.339   6.120  -0.745  0.00  0.00    +0.144 HD
ATOM     19  C   UNL     1       3.250   3.518  -0.856  0.00  0.00    +0.062 A 
ATOM     20  N   UNL     1       6.574   2.227  -1.705  0.00  0.00    -0.214 NA
ATOM     21  C   UNL     1       2.590   2.364  -0.421  0.00  0.00    +0.162 A 
ENDROOT
BRANCH  12  22
ATOM     22  C   UNL     1      13.027   4.250  -4.505  0.00  0.00    +0.296 C 
ATOM     23  O   UNL     1      12.816   5.371  -3.641  0.00  0.00    -0.473 OA
ATOM     24  C   UNL     1      13.710   6.380  -3.898  0.00  0.00    +0.163 A 
ATOM     25  C   UNL     1      14.922   6.177  -4.564  0.00  0.00    +0.162 A 
ATOM     26  C   UNL     1      15.793   7.244  -4.774  0.00  0.00    +0.049 A 
ATOM     27  C   UNL     1      15.458   8.519  -4.315  0.00  0.00    +0.004 A 
ATOM     28  C   UNL     1      14.245   8.725  -3.655  0.00  0.00    +0.004 A 
ATOM     29  O   UNL     1      15.312   4.959  -5.053  0.00  0.00    -0.484 OA
ATOM     30  C   UNL     1      13.372   7.653  -3.443  0.00  0.00    +0.049 A 
ATOM     31  C   UNL     1      14.517   3.893  -4.517  0.00  0.00    +0.283 C 
ENDBRANCH  12  22
BRANCH   1  33
ATOM     32  C   UNL     1       3.568  -1.032   0.442  0.00  0.00    +0.277 C 
ATOM     33  O   UNL     1       2.690   0.010   0.004  0.00  0.00    -0.491 OA
ENDBRANCH   1  33
BRANCH  21  34
ATOM     34  O   UNL     1       1.339   2.654   0.034  0.00  0.00    -0.491 OA
ATOM     35  C   UNL     1       0.446   1.641   0.459  0.00  0.00    +0.277 C 
ENDBRANCH  21  34
TORSDOF 3
