REMARK  Name = 
REMARK  5 active torsions:
REMARK  status: ('A' for Active; 'I' for Inactive)
REMARK    1  A    between atoms: N_1  and  C_2
REMARK    2  A    between atoms: C_5  and  C_8
REMARK    3  A    between atoms: N_10  and  C_11
REMARK    4  A    between atoms: C_11  and  C_12
REMARK    5  A    between atoms: C_12  and  O_13
REMARK                            x       y       z     vdW  Elec       q    Type
REMARK                         _______ _______ _______ _____ _____    ______ ____
ROOT
ATOM      1  C   UNL     1       2.496  -0.003  -0.109  0.00  0.00    +0.025 A 
ATOM      2  C   UNL     1       3.201  -1.210  -0.136  0.00  0.00    +0.023 A 
ATOM      3  C   UNL     1       4.591  -1.226  -0.291  0.00  0.00    +0.015 A 
ATOM      4  C   UNL     1       5.296  -0.021  -0.379  0.00  0.00    +0.037 A 
ATOM      5  C   UNL     1       4.607   1.190  -0.278  0.00  0.00    +0.015 A 
ATOM      6  C   UNL     1       3.216   1.194  -0.129  0.00  0.00    +0.023 A 
ENDROOT
BRANCH   4   7
ATOM      7  C   UNL     1       6.776   0.009  -0.508  0.00  0.00    +0.245 C 
ATOM      8  N   UNL     1       7.351  -1.032  -1.212  0.00  0.00    -0.301 N 
ATOM      9  H   UNL     1       6.747  -1.578  -1.816  0.00  0.00    +0.150 HD
ATOM     10  O   UNL     1       7.432   0.912  -0.006  0.00  0.00    -0.270 OA
BRANCH   8  11
ATOM     11  C   UNL     1       8.770  -0.980  -1.580  0.00  0.00    +0.225 C 
BRANCH  11  12
ATOM     12  C   UNL     1       9.682  -1.663  -0.563  0.00  0.00    +0.322 C 
ATOM     13  O   UNL     1      10.890  -1.788  -0.707  0.00  0.00    -0.249 OA
BRANCH  12  14
ATOM     14  O   UNL     1       9.020  -2.169   0.505  0.00  0.00    -0.480 OA
ATOM     15  H   UNL     1       8.082  -1.895   0.456  0.00  0.00    +0.295 HD
ENDBRANCH  12  14
ENDBRANCH  11  12
ENDBRANCH   8  11
ENDBRANCH   4   7
BRANCH   1  16
ATOM     16  N   UNL     1       1.128   0.005   0.179  0.00  0.00    -0.358 N 
ATOM     17  H   UNL     1       0.633  -0.832  -0.115  0.00  0.00    +0.142 HD
ATOM     18  H   UNL     1       0.648   0.854  -0.103  0.00  0.00    +0.142 HD
ENDBRANCH   1  16
TORSDOF 5
