REMARK  Name = 
REMARK  8 active torsions:
REMARK  status: ('A' for Active; 'I' for Inactive)
REMARK    1  A    between atoms: C_1  and  N_2
REMARK    2  A    between atoms: C_7  and  C_8
REMARK    3  A    between atoms: C_8  and  O_9
REMARK    4  A    between atoms: O_9  and  C_10
REMARK    5  A    between atoms: C_10  and  C_12
REMARK    6  A    between atoms: C_12  and  O_13
REMARK    7  A    between atoms: C_12  and  C_14
REMARK    8  A    between atoms: C_12  and  C_20
REMARK                            x       y       z     vdW  Elec       q    Type
REMARK                         _______ _______ _______ _____ _____    ______ ____
ROOT
ATOM      1  C   UNL     1       3.677  -6.066  -0.021  0.00  0.00    +0.190 C 
ENDROOT
BRANCH   1   2
ATOM      2  C   UNL     1       2.898  -7.401  -0.087  0.00  0.00    -0.005 A 
ATOM      3  C   UNL     1       2.531  -8.116   1.067  0.00  0.00    +0.007 A 
ATOM      4  C   UNL     1       1.813  -9.319   0.982  0.00  0.00    +0.000 A 
ATOM      5  C   UNL     1       1.433  -9.825  -0.258  0.00  0.00    +0.000 A 
ATOM      6  C   UNL     1       1.756  -9.123  -1.412  0.00  0.00    +0.000 A 
ATOM      7  C   UNL     1       2.473  -7.923  -1.327  0.00  0.00    +0.007 A 
ENDBRANCH   1   2
BRANCH   1   8
ATOM      8  C   UNL     1       4.774  -5.980   1.112  0.00  0.00    +0.036 C 
ATOM      9  C   UNL     1       5.575  -4.654   1.155  0.00  0.00    +0.007 C 
ATOM     10  C   UNL     1       6.652  -4.490   0.090  0.00  0.00    +0.000 C 
ATOM     11  C   UNL     1       7.594  -5.681   0.041  0.00  0.00    +0.000 C 
ATOM     12  C   UNL     1       6.860  -7.016   0.015  0.00  0.00    +0.000 C 
ATOM     13  C   UNL     1       5.816  -7.121   1.122  0.00  0.00    +0.007 C 
ENDBRANCH   1   8
BRANCH   1  14
ATOM     14  C   UNL     1       2.654  -4.893   0.204  0.00  0.00    +0.345 C 
ATOM     15  O   UNL     1       1.651  -4.928   0.898  0.00  0.00    -0.247 OA
BRANCH  14  16
ATOM     16  O   UNL     1       3.074  -3.791  -0.503  0.00  0.00    -0.450 OA
BRANCH  16  17
ATOM     17  C   UNL     1       2.296  -2.614  -0.309  0.00  0.00    +0.359 C 
BRANCH  17  20
ATOM     18  C   UNL     1       0.816  -0.155   0.218  0.00  0.00    +0.276 C 
ATOM     19  N   UNL     1       1.771  -0.646   1.200  0.00  0.00    -0.224 N 
ATOM     20  C   UNL     1       2.507  -1.797   1.006  0.00  0.00    +0.320 C 
ATOM     21  N   UNL     1       3.389  -2.246   1.820  0.00  0.00    -0.084 NA
ATOM     22  C   UNL     1       3.703  -1.586   3.069  0.00  0.00    +0.294 C 
ATOM     23  C   UNL     1       2.956  -0.308   3.379  0.00  0.00    +0.093 C 
ATOM     24  C   UNL     1       1.990   0.220   2.342  0.00  0.00    +0.229 C 
ENDBRANCH  17  20
ENDBRANCH  16  17
ENDBRANCH  14  16
ENDBRANCH   1  14
BRANCH   1  25
ATOM     25  O   UNL     1       4.315  -5.907  -1.300  0.00  0.00    -0.373 OA
ATOM     26  H   UNL     1       4.349  -4.946  -1.460  0.00  0.00    +0.211 HD
ENDBRANCH   1  25
TORSDOF 7
