REMARK  Name = 
REMARK  11 active torsions:
REMARK  status: ('A' for Active; 'I' for Inactive)
REMARK    1  A    between atoms: C_2  and  C_21
REMARK    2  A    between atoms: C_4  and  C_18
REMARK    3  A    between atoms: C_6  and  N_8
REMARK    4  A    between atoms: C_12  and  N_14
REMARK    5  A    between atoms: C_15  and  C_16
REMARK    6  A    between atoms: C_18  and  O_19
REMARK    7  A    between atoms: C_21  and  O_23
REMARK    8  A    between atoms: C_21  and  C_24
REMARK    9  A    between atoms: C_24  and  O_26
REMARK   10  A    between atoms: C_24  and  C_27
REMARK   11  A    between atoms: C_27  and  O_28
REMARK                            x       y       z     vdW  Elec       q    Type
REMARK                         _______ _______ _______ _____ _____    ______ ____
ROOT
ATOM      1  C   UNL     1       5.740  -2.012   0.883  0.00  0.00    +0.229 C 
ATOM      2  C   UNL     1       5.461  -3.488   0.454  0.00  0.00    +0.160 C 
ATOM      3  C   UNL     1       6.396  -3.985  -0.676  0.00  0.00    +0.238 C 
ATOM      4  C   UNL     1       7.745  -3.373  -0.622  0.00  0.00    +0.071 C 
ATOM      5  C   UNL     1       8.002  -2.245   0.044  0.00  0.00    +0.204 C 
ATOM      6  O   UNL     1       7.072  -1.512   0.727  0.00  0.00    -0.477 OA
ENDROOT
BRANCH   3   7
ATOM      7  N   UNL     1       5.787  -3.685  -1.976  0.00  0.00    -0.104 NA
ATOM      8  C   UNL     1       5.937  -4.510  -2.946  0.00  0.00    +0.377 C 
ATOM      9  N   UNL     1       5.370  -4.252  -4.147  0.00  0.00    -0.289 N 
ATOM     10  H   UNL     1       5.980  -4.469  -4.928  0.00  0.00    +0.255 HD
ATOM     11  H   UNL     1       5.044  -3.293  -4.202  0.00  0.00    +0.255 HD
ATOM     12  N   UNL     1       6.612  -5.680  -3.031  0.00  0.00    -0.289 N 
ATOM     13  H   UNL     1       6.158  -6.367  -3.620  0.00  0.00    +0.255 HD
ATOM     14  H   UNL     1       6.956  -6.091  -2.176  0.00  0.00    +0.255 HD
ENDBRANCH   3   7
BRANCH   2  15
ATOM     15  N   UNL     1       5.494  -4.425   1.601  0.00  0.00    -0.305 N 
ATOM     16  H   UNL     1       5.737  -5.387   1.398  0.00  0.00    +0.149 HD
ATOM     17  C   UNL     1       4.648  -4.265   2.680  0.00  0.00    +0.210 C 
ATOM     18  O   UNL     1       3.916  -3.293   2.836  0.00  0.00    -0.276 OA
ATOM     19  C   UNL     1       4.692  -5.417   3.644  0.00  0.00    +0.109 C 
ENDBRANCH   2  15
BRANCH   5  20
ATOM     20  C   UNL     1       9.402  -1.725   0.056  0.00  0.00    +0.372 C 
ATOM     21  O   UNL     1      10.372  -2.288  -0.425  0.00  0.00    -0.242 OA
BRANCH  20  22
ATOM     22  O   UNL     1       9.470  -0.548   0.720  0.00  0.00    -0.475 OA
ATOM     23  H   UNL     1       8.566  -0.263   0.986  0.00  0.00    +0.296 HD
ENDBRANCH  20  22
ENDBRANCH   5  20
BRANCH   1  24
ATOM     24  C   UNL     1       4.700  -1.048   0.256  0.00  0.00    +0.187 C 
BRANCH  24  25
ATOM     25  O   UNL     1       4.907  -0.876  -1.156  0.00  0.00    -0.385 OA
ATOM     26  H   UNL     1       5.238  -1.713  -1.535  0.00  0.00    +0.210 HD
ENDBRANCH  24  25
BRANCH  24  27
ATOM     27  C   UNL     1       4.625   0.355   0.919  0.00  0.00    +0.172 C 
BRANCH  27  28
ATOM     28  O   UNL     1       5.868   1.064   0.780  0.00  0.00    -0.387 OA
ATOM     29  H   UNL     1       5.702   1.983   1.059  0.00  0.00    +0.210 HD
ENDBRANCH  27  28
BRANCH  27  30
ATOM     30  C   UNL     1       4.241   0.312   2.409  0.00  0.00    +0.189 C 
BRANCH  30  31
ATOM     31  O   UNL     1       4.013   1.626   2.927  0.00  0.00    -0.392 OA
ATOM     32  H   UNL     1       3.763   2.221   2.203  0.00  0.00    +0.210 HD
ENDBRANCH  30  31
ENDBRANCH  27  30
ENDBRANCH  24  27
ENDBRANCH   1  24
TORSDOF 10
