REMARK  Name = 
REMARK  12 active torsions:
REMARK  status: ('A' for Active; 'I' for Inactive)
REMARK    1  A    between atoms: C_1  and  C_2
REMARK    2  A    between atoms: C_2  and  C_3
REMARK    3  A    between atoms: C_3  and  C_4
REMARK    4  A    between atoms: C_3  and  C_6
REMARK    5  A    between atoms: C_3  and  C_27
REMARK    6  A    between atoms: C_4  and  C_5
REMARK    7  A    between atoms: C_6  and  C_7
REMARK    8  A    between atoms: N_9  and  C_10
REMARK    9  A    between atoms: C_14  and  C_15
REMARK   10  A    between atoms: C_16  and  C_17
REMARK   11  A    between atoms: C_19  and  C_22
REMARK   12  A    between atoms: C_27  and  O_28
REMARK                            x       y       z     vdW  Elec       q    Type
REMARK                         _______ _______ _______ _____ _____    ______ ____
ROOT
ATOM      1  C   UNL     1      -1.159   1.505   3.349  0.00  0.00    +0.034 A 
ATOM      2  C   UNL     1      -1.768   2.771   3.313  0.00  0.00    +0.031 A 
ATOM      3  C   UNL     1      -3.149   2.898   3.078  0.00  0.00    -0.023 A 
ATOM      4  C   UNL     1      -3.911   1.734   2.934  0.00  0.00    +0.008 A 
ATOM      5  C   UNL     1      -3.310   0.471   2.975  0.00  0.00    +0.002 A 
ATOM      6  C   UNL     1      -1.929   0.362   3.141  0.00  0.00    +0.023 A 
ENDROOT
BRANCH   1   8
ATOM      7  C   UNL     1       1.003   2.096   4.378  0.00  0.00    +0.218 C 
ATOM      8  N   UNL     1       0.228   1.329   3.535  0.00  0.00    -0.285 N 
ATOM      9  H   UNL     1       0.621   0.453   3.203  0.00  0.00    +0.155 HD
ATOM     10  O   UNL     1       0.578   2.961   5.138  0.00  0.00    -0.275 OA
BRANCH   7  11
ATOM     11  C   UNL     1       2.498   1.833   4.261  0.00  0.00    +0.114 C 
BRANCH  11  12
ATOM     12  C   UNL     1       3.155   2.611   3.088  0.00  0.00    +0.075 C 
BRANCH  12  14
ATOM     13  C   UNL     1       3.450   5.011   2.124  0.00  0.00    +0.005 C 
ATOM     14  C   UNL     1       2.889   4.135   3.237  0.00  0.00    +0.015 C 
ENDBRANCH  12  14
BRANCH  12  15
ATOM     15  C   UNL     1       2.601   1.993   1.788  0.00  0.00    +0.311 C 
ATOM     16  O   UNL     1       3.024   0.950   1.308  0.00  0.00    -0.250 OA
BRANCH  15  17
ATOM     17  O   UNL     1       1.535   2.605   1.235  0.00  0.00    -0.480 OA
ATOM     18  H   UNL     1       1.131   3.341   1.728  0.00  0.00    +0.295 HD
ENDBRANCH  15  17
ENDBRANCH  12  15
BRANCH  12  19
ATOM     19  C   UNL     1       4.693   2.312   3.065  0.00  0.00    +0.015 C 
ATOM     20  C   UNL     1       5.507   2.790   4.262  0.00  0.00    +0.005 C 
ENDBRANCH  12  19
ENDBRANCH  11  12
ENDBRANCH   7  11
ENDBRANCH   1   8
BRANCH   3  21
ATOM     21  C   UNL     1      -3.822   4.202   2.873  0.00  0.00    +0.010 C 
ATOM     22  C   UNL     1      -3.451   5.351   3.459  0.00  0.00    +0.035 C 
BRANCH  22  23
ATOM     23  C   UNL     1      -4.114   6.594   3.208  0.00  0.00    +0.101 A 
ATOM     24  S   UNL     1      -3.526   8.003   4.044  0.00  0.00    -0.076 S 
ATOM     25  C   UNL     1      -4.722   8.960   3.297  0.00  0.00    +0.070 A 
ATOM     26  C   UNL     1      -5.493   8.183   2.464  0.00  0.00    +0.052 A 
ATOM     27  N   UNL     1      -5.142   6.837   2.409  0.00  0.00    -0.244 NA
BRANCH  26  28
ATOM     28  C   UNL     1      -6.646   8.795   1.670  0.00  0.00    +0.038 C 
ATOM     29  C   UNL     1      -7.933   7.926   1.589  0.00  0.00    +0.010 C 
ATOM     30  C   UNL     1      -8.078   8.390   0.129  0.00  0.00    +0.001 C 
ATOM     31  C   UNL     1      -6.550   8.582   0.130  0.00  0.00    +0.010 C 
ENDBRANCH  26  28
ENDBRANCH  22  23
ENDBRANCH   3  21
TORSDOF 10
