REMARK  Name = 
REMARK  13 active torsions:
REMARK  status: ('A' for Active; 'I' for Inactive)
REMARK    1  A    between atoms: CA_4  and  C_29
REMARK    2  A    between atoms: C_7  and  CA_9
REMARK    3  A    between atoms: CA_9  and  CB_11
REMARK    4  A    between atoms: CA_9  and  N_12
REMARK    5  A    between atoms: N_12  and  C_13
REMARK    6  A    between atoms: C_13  and  C_15
REMARK    7  A    between atoms: C_13  and  C_18
REMARK    8  A    between atoms: C_15  and  C_16
REMARK    9  A    between atoms: C_16  and  C_17
REMARK   10  A    between atoms: C_18  and  O_20
REMARK   11  A    between atoms: O_20  and  C_21
REMARK   12  A    between atoms: C_21  and  C_22
REMARK   13  A    between atoms: C_29  and  O_30
REMARK                            x       y       z     vdW  Elec       q    Type
REMARK                         _______ _______ _______ _____ _____    ______ ____
ROOT
ATOM      1  C   UNL     1       3.975   1.823   4.889  0.00  0.00    +0.012 C 
ATOM      2  C   UNL     1       2.643   1.526   4.158  0.00  0.00    +0.005 C 
ATOM      3  C   UNL     1       2.316   2.504   3.024  0.00  0.00    +0.000 C 
ATOM      4  C   UNL     1       3.506   2.750   2.113  0.00  0.00    +0.002 C 
ATOM      5  C   UNL     1       4.718   3.140   2.945  0.00  0.00    +0.023 C 
ATOM      6  C   UNL     1       5.127   2.047   3.910  0.00  0.00    +0.080 C 
ATOM      7  N   UNL     1       5.427   0.673   3.467  0.00  0.00    -0.283 N 
ATOM      8  C   UNL     1       6.254   0.292   2.410  0.00  0.00    +0.233 C 
ATOM      9  O   UNL     1       6.725  -0.854   2.403  0.00  0.00    -0.274 OA
ATOM     10  CA  UNL     1       5.290  -0.220   4.666  0.00  0.00    +0.185 C 
ATOM     11  C   UNL     1       4.485   0.625   5.686  0.00  0.00    +0.039 C 
ENDROOT
BRANCH   8  12
ATOM     12  CA  UNL     1       6.406   1.195   1.152  0.00  0.00    +0.138 C 
ATOM     13  CB  UNL     1       6.105   0.398  -0.127  0.00  0.00    +0.034 C 
BRANCH  12  14
ATOM     14  N   UNL     1       7.708   1.880   1.164  0.00  0.00    -0.294 NA
ATOM     15  H   UNL     1       8.440   1.179   1.010  0.00  0.00    +0.123 HD
BRANCH  14  16
ATOM     16  C   UNL     1       7.862   2.957   0.146  0.00  0.00    +0.164 C 
BRANCH  16  17
ATOM     17  C   UNL     1       9.312   3.464   0.218  0.00  0.00    +0.324 C 
ATOM     18  O   UNL     1       9.721   4.364   0.955  0.00  0.00    -0.249 OA
BRANCH  17  19
ATOM     19  O   UNL     1      10.070   2.812  -0.713  0.00  0.00    -0.464 OA
BRANCH  19  20
ATOM     20  C   UNL     1      11.313   3.445  -1.021  0.00  0.00    +0.229 C 
ATOM     21  C   UNL     1      11.067   4.422  -2.157  0.00  0.00    +0.048 C 
ENDBRANCH  19  20
ENDBRANCH  17  19
ENDBRANCH  16  17
BRANCH  16  22
ATOM     22  C   UNL     1       6.923   4.175   0.332  0.00  0.00    +0.030 C 
BRANCH  22  23
ATOM     23  C   UNL     1       7.094   5.295  -0.706  0.00  0.00    -0.001 C 
ATOM     24  C   UNL     1       6.190   6.482  -0.388  0.00  0.00    +0.004 C 
ENDBRANCH  22  23
ENDBRANCH  16  22
ENDBRANCH  14  16
ENDBRANCH  12  14
ENDBRANCH   8  12
BRANCH  10  25
ATOM     25  C   UNL     1       4.596  -1.593   4.566  0.00  0.00    +0.325 C 
ATOM     26  OXT UNL     1       4.342  -2.293   5.540  0.00  0.00    -0.249 OA
BRANCH  25  27
ATOM     27  O   UNL     1       4.267  -1.983   3.313  0.00  0.00    -0.479 OA
ATOM     28  H   UNL     1       4.728  -1.426   2.661  0.00  0.00    +0.295 HD
ENDBRANCH  25  27
ENDBRANCH  10  25
TORSDOF 10
