REMARK  Name = 
REMARK  5 active torsions:
REMARK  status: ('A' for Active; 'I' for Inactive)
REMARK    1  A    between atoms: C_4  and  O_6
REMARK    2  A    between atoms: C_7  and  C_9
REMARK    3  A    between atoms: C_9  and  O_10
REMARK    4  A    between atoms: C_12  and  N_14
REMARK    5  A    between atoms: C_18  and  N_19
REMARK                            x       y       z     vdW  Elec       q    Type
REMARK                         _______ _______ _______ _____ _____    ______ ____
ROOT
ATOM      1  N   UNL     1       1.551  -1.856   1.665  0.00  0.00    -0.285 N 
ATOM      2  C   UNL     1       0.676  -2.837   1.277  0.00  0.00    +0.169 A 
ATOM      3  C   UNL     1      -0.038  -3.151   2.423  0.00  0.00    +0.147 A 
ATOM      4  C   UNL     1      -1.017  -4.153   2.307  0.00  0.00    +0.149 A 
ATOM      5  N   UNL     1      -1.223  -4.720   1.099  0.00  0.00    -0.201 NA
ATOM      6  C   UNL     1      -0.448  -4.310   0.076  0.00  0.00    +0.226 A 
ATOM      7 CL   UNL     1      -0.752  -5.075  -1.426  0.00  0.00    -0.041 Cl
ATOM      8  N   UNL     1       0.373  -2.374   3.484  0.00  0.00    -0.231 NA
ATOM      9  N   UNL     1       0.532  -3.380   0.058  0.00  0.00    -0.198 NA
ATOM     10  C   UNL     1       1.322  -1.605   2.991  0.00  0.00    +0.203 A 
ENDROOT
BRANCH   1  13
ATOM     11  C   UNL     1       2.047   0.045   0.108  0.00  0.00    +0.246 C 
ATOM     12  F   UNL     1       0.700   0.159   0.085  0.00  0.00    -0.238 F 
ATOM     13  C   UNL     1       2.530  -1.226   0.803  0.00  0.00    +0.259 C 
ATOM     14  O   UNL     1       3.700  -0.876   1.589  0.00  0.00    -0.345 OA
ATOM     15  C   UNL     1       3.991   0.515   1.335  0.00  0.00    +0.178 C 
ATOM     16  C   UNL     1       2.664   1.151   0.944  0.00  0.00    +0.184 C 
BRANCH  16  17
ATOM     17  O   UNL     1       2.851   2.380   0.251  0.00  0.00    -0.386 OA
ATOM     18  H   UNL     1       3.016   2.216  -0.692  0.00  0.00    +0.210 HD
ENDBRANCH  16  17
BRANCH  15  19
ATOM     19  C   UNL     1       4.648   1.155   2.555  0.00  0.00    +0.190 C 
BRANCH  19  20
ATOM     20  O   UNL     1       3.815   1.033   3.705  0.00  0.00    -0.392 OA
ATOM     21  H   UNL     1       3.877   0.105   3.992  0.00  0.00    +0.210 HD
ENDBRANCH  19  20
ENDBRANCH  15  19
ENDBRANCH   1  13
BRANCH   4  22
ATOM     22  N   UNL     1      -1.797  -4.573   3.376  0.00  0.00    -0.341 N 
ATOM     23  H   UNL     1      -2.667  -4.999   3.084  0.00  0.00    +0.144 HD
ATOM     24  H   UNL     1      -1.832  -3.907   4.141  0.00  0.00    +0.144 HD
ENDBRANCH   4  22
TORSDOF 5
