REMARK  Name = 
REMARK  5 active torsions:
REMARK  status: ('A' for Active; 'I' for Inactive)
REMARK    1  A    between atoms: C_1  and  O_2
REMARK    2  A    between atoms: O_2  and  C_3
REMARK    3  A    between atoms: N_9  and  S_10
REMARK    4  A    between atoms: S_10  and  C_13
REMARK    5  A    between atoms: C_16  and  N_17
REMARK                            x       y       z     vdW  Elec       q    Type
REMARK                         _______ _______ _______ _____ _____    ______ ____
ROOT
ATOM      1  S   UNL     1       4.243  -1.668  -0.693  0.00  0.00    +0.074 S 
ATOM      2  O   UNL     1       3.357  -1.417  -1.809  0.00  0.00    -0.150 OA
ATOM      3  O   UNL     1       3.723  -2.124   0.579  0.00  0.00    -0.150 OA
ENDROOT
BRANCH   1   6
ATOM      4  C   UNL     1       5.181   1.158  -2.396  0.00  0.00    +0.257 A 
ATOM      5  C   UNL     1       5.802   0.292  -1.483  0.00  0.00    +0.201 A 
ATOM      6  N   UNL     1       5.166  -0.299  -0.366  0.00  0.00    -0.195 N 
ATOM      7  H   UNL     1       5.836  -0.487   0.373  0.00  0.00    +0.175 HD
ATOM      8  N   UNL     1       7.090  -0.096  -1.599  0.00  0.00    -0.233 NA
ATOM      9  C   UNL     1       7.746   0.420  -2.665  0.00  0.00    +0.133 A 
ATOM     10  C   UNL     1       7.144   1.282  -3.571  0.00  0.00    +0.134 A 
ATOM     11  N   UNL     1       5.853   1.671  -3.458  0.00  0.00    -0.217 NA
BRANCH   4  13
ATOM     12  C   UNL     1       3.296   2.265  -3.234  0.00  0.00    +0.279 C 
ATOM     13  O   UNL     1       3.898   1.589  -2.135  0.00  0.00    -0.477 OA
ENDBRANCH   4  13
ENDBRANCH   1   6
BRANCH   1  14
ATOM     14  C   UNL     1       5.439  -2.885  -1.223  0.00  0.00    +0.109 A 
ATOM     15  C   UNL     1       5.714  -3.035  -2.583  0.00  0.00    +0.030 A 
ATOM     16  C   UNL     1       6.629  -4.006  -3.001  0.00  0.00    +0.024 A 
ATOM     17  C   UNL     1       7.293  -4.814  -2.072  0.00  0.00    +0.025 A 
ATOM     18  C   UNL     1       6.930  -4.722  -0.725  0.00  0.00    +0.024 A 
ATOM     19  C   UNL     1       6.018  -3.751  -0.291  0.00  0.00    +0.030 A 
BRANCH  17  20
ATOM     20  N   UNL     1       8.123  -5.851  -2.512  0.00  0.00    -0.358 N 
ATOM     21  H   UNL     1       8.562  -5.675  -3.410  0.00  0.00    +0.142 HD
ATOM     22  H   UNL     1       8.790  -6.169  -1.815  0.00  0.00    +0.142 HD
ENDBRANCH  17  20
ENDBRANCH   1  14
TORSDOF 4
