REMARK  Name = 
REMARK  6 active torsions:
REMARK  status: ('A' for Active; 'I' for Inactive)
REMARK    1  A    between atoms: C_7  and  C_9
REMARK    2  A    between atoms: C_11  and  C_14
REMARK    3  A    between atoms: C_14  and  O_16
REMARK    4  A    between atoms: C_14  and  C_17
REMARK    5  A    between atoms: C_20  and  O_21
REMARK    6  A    between atoms: O_21  and  C_22
REMARK                            x       y       z     vdW  Elec       q    Type
REMARK                         _______ _______ _______ _____ _____    ______ ____
ROOT
ATOM      1  C   UNL     1       3.573   2.400   1.818  0.00  0.00    +0.162 C 
ENDROOT
BRANCH   1   2
ATOM      2  C   UNL     1       2.666   2.878   2.960  0.00  0.00    -0.007 A 
ATOM      3  C   UNL     1       1.389   3.374   2.639  0.00  0.00    +0.026 A 
ATOM      4  C   UNL     1       0.525   3.741   3.646  0.00  0.00    +0.112 A 
ATOM      5  N   UNL     1       0.824   3.648   4.951  0.00  0.00    -0.255 NA
ATOM      6  C   UNL     1       2.037   3.195   5.286  0.00  0.00    +0.072 A 
ATOM      7  C   UNL     1       2.313   3.129   6.641  0.00  0.00    +0.032 A 
ATOM      8  C   UNL     1       3.550   2.701   7.123  0.00  0.00    +0.048 A 
ATOM      9  C   UNL     1       4.543   2.332   6.228  0.00  0.00    +0.121 A 
ATOM     10  C   UNL     1       4.277   2.377   4.850  0.00  0.00    +0.056 A 
ATOM     11  C   UNL     1       3.021   2.796   4.347  0.00  0.00    +0.010 A 
BRANCH   9  12
ATOM     12  O   UNL     1       5.805   1.923   6.563  0.00  0.00    -0.495 OA
ATOM     13  C   UNL     1       6.089   1.788   7.953  0.00  0.00    +0.277 C 
ENDBRANCH   9  12
ENDBRANCH   1   2
BRANCH   1  16
ATOM     14  C   UNL     1       1.904  -0.358  -0.316  0.00  0.00    -0.000 C 
ATOM     15  C   UNL     1       1.880   0.719   0.785  0.00  0.00    +0.026 C 
ATOM     16  C   UNL     1       3.289   0.901   1.413  0.00  0.00    +0.090 C 
ATOM     17  N   UNL     1       4.311   0.231   0.532  0.00  0.00    -0.296 NA
ATOM     18  C   UNL     1       4.118   0.664  -0.882  0.00  0.00    +0.092 C 
ATOM     19  C   UNL     1       4.065  -1.244   0.579  0.00  0.00    +0.085 C 
ATOM     20  C   UNL     1       2.835   0.042  -1.493  0.00  0.00    +0.028 C 
ATOM     21  C   UNL     1       2.578  -1.586   0.327  0.00  0.00    +0.019 C 
BRANCH  20  22
ATOM     22  C   UNL     1       2.319   0.828  -2.671  0.00  0.00    -0.030 C 
ATOM     23  C   UNL     1       1.218   1.579  -2.774  0.00  0.00    +0.004 C 
ENDBRANCH  20  22
ENDBRANCH   1  16
BRANCH   1  24
ATOM     24  O   UNL     1       3.406   3.278   0.695  0.00  0.00    -0.386 OA
ATOM     25  H   UNL     1       3.312   4.181   1.041  0.00  0.00    +0.210 HD
ENDBRANCH   1  24
TORSDOF 5
