REMARK  Name = 
REMARK  1 active torsions:
REMARK  status: ('A' for Active; 'I' for Inactive)
REMARK    1  A    between atoms: N_1  and  C_2
REMARK                            x       y       z     vdW  Elec       q    Type
REMARK                         _______ _______ _______ _____ _____    ______ ____
ROOT
ATOM      1  C   UNL     1       2.423  -0.089   0.014  0.00  0.00    +0.145 A 
ATOM      2  N   UNL     1       3.118   1.060  -0.017  0.00  0.00    -0.219 NA
ATOM      3  C   UNL     1       4.465   0.995  -0.097  0.00  0.00    +0.225 A 
ATOM      4  N   UNL     1       5.240  -0.096  -0.160  0.00  0.00    -0.214 NA
ATOM      5  C   UNL     1       4.525  -1.233  -0.127  0.00  0.00    +0.183 A 
ATOM      6  N   UNL     1       5.042  -2.501  -0.170  0.00  0.00    -0.216 NA
ATOM      7  C   UNL     1       3.998  -3.297  -0.102  0.00  0.00    +0.199 A 
ATOM      8  N   UNL     1       2.828  -2.591  -0.023  0.00  0.00    -0.340 N 
ATOM      9  H   UNL     1       1.901  -2.982   0.054  0.00  0.00    +0.167 HD
ATOM     10  C   UNL     1       3.144  -1.262  -0.045  0.00  0.00    +0.125 A 
ENDROOT
BRANCH   1  11
ATOM     11  N   UNL     1       1.044  -0.026   0.097  0.00  0.00    -0.341 N 
ATOM     12  H   UNL     1       0.729   0.920  -0.101  0.00  0.00    +0.144 HD
ATOM     13  H   UNL     1       0.536  -0.755  -0.381  0.00  0.00    +0.144 HD
ENDBRANCH   1  11
TORSDOF 1
