REMARK  Name = 
REMARK  14 active torsions:
REMARK  status: ('A' for Active; 'I' for Inactive)
REMARK    1  A    between atoms: C_4  and  O_6
REMARK    2  A    between atoms: C_7  and  C_9
REMARK    3  A    between atoms: C_9  and  C_10
REMARK    4  A    between atoms: C_10  and  C_11
REMARK    5  A    between atoms: C_11  and  O_13
REMARK    6  A    between atoms: C_11  and  C_14
REMARK    7  A    between atoms: C_14  and  C_15
REMARK    8  A    between atoms: C_15  and  C_16
REMARK    9  A    between atoms: C_16  and  C_17
REMARK   10  A    between atoms: C_17  and  C_18
REMARK   11  A    between atoms: C_25  and  O_26
REMARK   12  A    between atoms: O_26  and  C_27
REMARK   13  A    between atoms: C_27  and  C_28
REMARK   14  A    between atoms: C_28  and  O_29
REMARK                            x       y       z     vdW  Elec       q    Type
REMARK                         _______ _______ _______ _____ _____    ______ ____
ROOT
ATOM      1  C   UNL     1       2.088  -0.172  -0.137  0.00  0.00    -0.000 C 
ATOM      2  C   UNL     1       2.294   1.294   0.200  0.00  0.00    +0.043 C 
ATOM      3  C   UNL     1       3.668   1.702   0.670  0.00  0.00    -0.002 A 
ATOM      4  C   UNL     1       4.084   3.054   0.768  0.00  0.00    +0.125 A 
ATOM      5  C   UNL     1       5.333   3.355   1.337  0.00  0.00    +0.046 A 
ATOM      6  C   UNL     1       6.190   2.353   1.781  0.00  0.00    +0.004 A 
ATOM      7  C   UNL     1       5.797   1.027   1.682  0.00  0.00    +0.004 A 
ATOM      8  C   UNL     1       4.540   0.690   1.152  0.00  0.00    -0.040 A 
ATOM      9  C   UNL     1       4.220  -0.788   1.070  0.00  0.00    +0.039 C 
ATOM     10  C   UNL     1       2.740  -1.129   0.847  0.00  0.00    +0.002 C 
ATOM     11  C   UNL     1       2.576  -2.497   0.135  0.00  0.00    +0.021 C 
ATOM     12  C   UNL     1       2.648  -2.151  -1.376  0.00  0.00    +0.118 C 
ATOM     13  C   UNL     1       2.658  -0.622  -1.482  0.00  0.00    +0.035 C 
ENDROOT
BRANCH  12  14
ATOM     14  O   UNL     1       3.841  -2.690  -1.928  0.00  0.00    -0.391 OA
ATOM     15  H   UNL     1       3.882  -2.422  -2.863  0.00  0.00    +0.210 HD
ENDBRANCH  12  14
BRANCH   4  16
ATOM     16  O   UNL     1       3.405   4.201   0.429  0.00  0.00    -0.481 OA
BRANCH  16  17
ATOM     17  C   UNL     1       2.466   4.145  -0.639  0.00  0.00    +0.349 C 
BRANCH  17  18
ATOM     18  C   UNL     1       2.236   5.511  -1.270  0.00  0.00    +0.343 C 
ATOM     19  O   UNL     1       1.446   5.719  -2.179  0.00  0.00    -0.247 OA
BRANCH  18  20
ATOM     20  O   UNL     1       3.001   6.485  -0.732  0.00  0.00    -0.478 OA
ATOM     21  H   UNL     1       3.559   6.116  -0.018  0.00  0.00    +0.295 HD
ENDBRANCH  18  20
ENDBRANCH  17  18
ENDBRANCH  16  17
ENDBRANCH   4  16
BRANCH  11  22
ATOM     22  C   UNL     1       1.230  -3.135   0.543  0.00  0.00    +0.009 C 
BRANCH  22  23
ATOM     23  C   UNL     1       0.882  -4.448  -0.159  0.00  0.00    +0.032 C 
BRANCH  23  24
ATOM     24  C   UNL     1       1.894  -5.587   0.019  0.00  0.00    +0.115 C 
BRANCH  24  25
ATOM     25  O   UNL     1       2.007  -5.910   1.404  0.00  0.00    -0.392 OA
ATOM     26  H   UNL     1       2.449  -5.166   1.846  0.00  0.00    +0.210 HD
ENDBRANCH  24  25
BRANCH  24  27
ATOM     27  C   UNL     1       1.453  -6.863  -0.715  0.00  0.00    +0.031 C 
BRANCH  27  28
ATOM     28  C   UNL     1       1.330  -6.663  -2.225  0.00  0.00    +0.002 C 
BRANCH  28  29
ATOM     29  C   UNL     1       0.859  -7.924  -2.944  0.00  0.00    -0.000 C 
BRANCH  29  30
ATOM     30  C   UNL     1       0.710  -7.647  -4.440  0.00  0.00    -0.003 C 
ATOM     31  C   UNL     1       0.218  -8.871  -5.190  0.00  0.00    +0.004 C 
ENDBRANCH  29  30
ENDBRANCH  28  29
ENDBRANCH  27  28
ENDBRANCH  24  27
ENDBRANCH  23  24
ENDBRANCH  22  23
ENDBRANCH  11  22
TORSDOF 13
