REMARK  Name = 
REMARK  0 active torsions:
REMARK  status: ('A' for Active; 'I' for Inactive)
REMARK                            x       y       z     vdW  Elec       q    Type
REMARK                         _______ _______ _______ _____ _____    ______ ____
ROOT
ATOM      1  N   UNL     1       1.844  -0.437  -0.818  0.00  0.00    -0.313 N 
ATOM      2  H   UNL     1       1.553   0.243  -1.505  0.00  0.00    +0.147 HD
ATOM      3  H   UNL     1       1.131  -1.107  -0.552  0.00  0.00    +0.147 HD
ATOM      4  C   UNL     1       2.542   0.044   0.259  0.00  0.00    +0.308 C 
ATOM      5  N   UNL     1       3.414   1.118  -0.024  0.00  0.00    -0.224 N 
ATOM      6  C   UNL     1       4.202   1.167  -1.257  0.00  0.00    +0.053 A 
ATOM      7  C   UNL     1       4.809   2.311  -1.830  0.00  0.00    +0.039 A 
ATOM      8  C   UNL     1       5.632   2.185  -2.974  0.00  0.00    +0.013 A 
ATOM      9  C   UNL     1       5.851   0.957  -3.586  0.00  0.00    +0.001 A 
ATOM     10  C   UNL     1       5.256  -0.172  -3.057  0.00  0.00    +0.002 A 
ATOM     11  C   UNL     1       4.595   3.721  -1.395  0.00  0.00    +0.169 C 
ATOM     12  O   UNL     1       5.234   4.640  -1.906  0.00  0.00    -0.292 OA
ATOM     13  C   UNL     1       3.559   3.998  -0.357  0.00  0.00    +0.116 C 
ATOM     14  C   UNL     1       3.942   3.344   0.927  0.00  0.00    -0.018 A 
ATOM     15  C   UNL     1       4.371   4.144   2.004  0.00  0.00    +0.006 A 
ATOM     16  C   UNL     1       4.690   3.572   3.230  0.00  0.00    +0.000 A 
ATOM     17  C   UNL     1       4.581   2.198   3.391  0.00  0.00    +0.002 A 
ATOM     18  C   UNL     1       4.175   1.397   2.320  0.00  0.00    +0.024 A 
ATOM     19  C   UNL     1       4.464  -0.066  -1.910  0.00  0.00    +0.024 A 
ATOM     20  C   UNL     1       3.867   1.948   1.064  0.00  0.00    +0.046 A 
ATOM     21  O   UNL     1       2.273  -0.444   1.352  0.00  0.00    -0.252 OA
ENDROOT
TORSDOF 0
