REMARK  Name = 
REMARK  2 active torsions:
REMARK  status: ('A' for Active; 'I' for Inactive)
REMARK    1  A    between atoms: O_1  and  C_2
REMARK    2  A    between atoms: C_4  and  C_5
REMARK                            x       y       z     vdW  Elec       q    Type
REMARK                         _______ _______ _______ _____ _____    ______ ____
ROOT
ATOM      1  C   UNL     1       2.364  -0.074  -0.021  0.00  0.00    +0.320 C 
ATOM      2  C   UNL     1       2.775   1.204   0.771  0.00  0.00    +0.269 C 
ATOM      3  O   UNL     1       1.980   1.981   1.298  0.00  0.00    -0.270 OA
ATOM      4  N   UNL     1       4.120   1.514   0.786  0.00  0.00    -0.281 N 
ATOM      5  H   UNL     1       4.302   2.467   1.080  0.00  0.00    +0.155 HD
ATOM      6  C   UNL     1       5.162   0.735   0.261  0.00  0.00    +0.043 A 
ATOM      7  C   UNL     1       6.288   1.424  -0.210  0.00  0.00    +0.025 A 
ATOM      8  C   UNL     1       7.341   0.733  -0.817  0.00  0.00    +0.022 A 
ATOM      9  C   UNL     1       7.284  -0.652  -0.937  0.00  0.00    +0.042 A 
ATOM     10  C   UNL     1       6.191  -1.356  -0.440  0.00  0.00    +0.032 A 
ATOM     11 CL   UNL     1       8.583  -1.504  -1.672  0.00  0.00    -0.084 Cl
ATOM     12  C   UNL     1       5.138  -0.670   0.187  0.00  0.00    +0.023 A 
ATOM     13  C   UNL     1       4.065  -1.482   0.841  0.00  0.00    +0.078 C 
ATOM     14  N   UNL     1       2.802  -1.230   0.749  0.00  0.00    -0.243 NA
ENDROOT
BRANCH  13  15
ATOM     15  C   UNL     1       4.462  -2.673   1.665  0.00  0.00    +0.001 A 
ATOM     16  C   UNL     1       5.661  -2.697   2.392  0.00  0.00    +0.010 A 
ATOM     17  C   UNL     1       6.012  -3.830   3.130  0.00  0.00    +0.001 A 
ATOM     18  C   UNL     1       5.160  -4.933   3.165  0.00  0.00    +0.000 A 
ATOM     19  C   UNL     1       3.953  -4.904   2.468  0.00  0.00    +0.001 A 
ATOM     20  C   UNL     1       3.602  -3.777   1.722  0.00  0.00    +0.010 A 
ENDBRANCH  13  15
BRANCH   1  21
ATOM     21  O   UNL     1       0.981  -0.151  -0.291  0.00  0.00    -0.364 OA
ATOM     22  H   UNL     1       0.667  -0.756   0.402  0.00  0.00    +0.212 HD
ENDBRANCH   1  21
TORSDOF 2
