REMARK  Name = 
REMARK  26 active torsions:
REMARK  status: ('A' for Active; 'I' for Inactive)
REMARK    1  A    between atoms: C_1  and  C_2
REMARK    2  A    between atoms: C_2  and  C_3
REMARK    3  A    between atoms: C_8  and  C_10
REMARK    4  A    between atoms: C_11  and  O_13
REMARK    5  A    between atoms: O_13  and  C_14
REMARK    6  A    between atoms: C_17  and  C_18
REMARK    7  A    between atoms: C_17  and  O_19
REMARK    8  A    between atoms: O_19  and  C_20
REMARK    9  A    between atoms: C_21  and  O_23
REMARK   10  A    between atoms: C_24  and  C_26
REMARK   11  A    between atoms: C_28  and  C_30
REMARK   12  A    between atoms: C_31  and  O_33
REMARK   13  A    between atoms: O_33  and  C_34
REMARK   14  A    between atoms: C_37  and  C_39
REMARK   15  A    between atoms: C_41  and  N_46
REMARK   16  A    between atoms: C_43  and  O_45
REMARK   17  A    between atoms: N_46  and  C_47
REMARK   18  A    between atoms: N_46  and  C_48
REMARK   19  A    between atoms: C_49  and  C_50
REMARK   20  A    between atoms: C_49  and  O_51
REMARK   21  A    between atoms: C_53  and  C_55
REMARK   22  A    between atoms: N_57  and  C_58
REMARK   23  A    between atoms: C_59  and  C_61
REMARK   24  A    between atoms: C_62  and  O_64
REMARK   25  A    between atoms: C_65  and  C_66
REMARK   26  A    between atoms: C_65  and  O_67
REMARK                            x       y       z     vdW  Elec       q    Type
REMARK                         _______ _______ _______ _____ _____    ______ ____
ROOT
ATOM      1  C   UNL     1       4.639  -0.656   2.353  0.00  0.00    +0.210 C 
ATOM      2  C   UNL     1       5.417  -1.262   3.623  0.00  0.00    +0.127 C 
ATOM      3  C   UNL     1       5.487  -2.805   3.490  0.00  0.00    +0.048 C 
ATOM      4  C   UNL     1       4.829  -0.947   5.047  0.00  0.00    +0.166 C 
ATOM      5  C   UNL     1       5.306   0.306   5.895  0.00  0.00    +0.085 C 
ATOM      6  C   UNL     1       5.741   1.489   5.046  0.00  0.00    +0.027 C 
ATOM      7  N   UNL     1       4.209   0.642   6.869  0.00  0.00    -0.300 NA
ATOM      8  C   UNL     1       4.209  -0.302   8.000  0.00  0.00    +0.105 C 
ATOM      9  C   UNL     1       4.061   2.033   7.343  0.00  0.00    +0.087 C 
ATOM     10  C   UNL     1       2.874   2.838   6.688  0.00  0.00    +0.003 C 
ATOM     11  C   UNL     1       1.896   1.945   5.928  0.00  0.00    +0.009 C 
ATOM     12  C   UNL     1       3.359   4.104   5.927  0.00  0.00    +0.041 C 
ATOM     13  C   UNL     1       2.392   4.938   5.001  0.00  0.00    +0.090 C 
ATOM     14  C   UNL     1       0.899   4.771   5.225  0.00  0.00    +0.044 C 
ATOM     15  C   UNL     1       2.789   4.968   3.459  0.00  0.00    +0.158 C 
ATOM     16  C   UNL     1       3.467   3.738   2.783  0.00  0.00    +0.047 C 
ATOM     17  C   UNL     1       2.478   2.753   2.203  0.00  0.00    +0.013 C 
ATOM     18  C   UNL     1       4.832   3.948   1.953  0.00  0.00    +0.140 C 
ATOM     19  C   UNL     1       5.197   2.804   0.910  0.00  0.00    +0.124 C 
ATOM     20  C   UNL     1       6.688   2.633   0.561  0.00  0.00    +0.022 C 
ATOM     21  C   UNL     1       4.761   1.351   1.058  0.00  0.00    +0.313 C 
ATOM     22  O   UNL     1       4.462   0.719   0.041  0.00  0.00    -0.250 OA
ATOM     23  O   UNL     1       4.886   0.786   2.276  0.00  0.00    -0.458 OA
ENDROOT
BRANCH   1  25
ATOM     24  C   UNL     1       2.286  -0.701   1.065  0.00  0.00    +0.007 C 
ATOM     25  C   UNL     1       3.115  -0.986   2.317  0.00  0.00    +0.044 C 
ENDBRANCH   1  25
BRANCH   2  26
ATOM     26  O   UNL     1       6.807  -0.878   3.591  0.00  0.00    -0.383 OA
ATOM     27  H   UNL     1       6.928  -0.278   2.834  0.00  0.00    +0.210 HD
ENDBRANCH   2  26
BRANCH   4  28
ATOM     28  O   UNL     1       3.398  -0.992   5.017  0.00  0.00    -0.387 OA
ATOM     29  H   UNL     1       3.129  -0.236   5.576  0.00  0.00    +0.210 HD
ENDBRANCH   4  28
BRANCH  13  30
ATOM     30  O   UNL     1       2.627   6.316   5.457  0.00  0.00    -0.386 OA
ATOM     31  H   UNL     1       2.215   6.906   4.794  0.00  0.00    +0.210 HD
ENDBRANCH  13  30
BRANCH  15  32
ATOM     32  O   UNL     1       1.915   5.819   2.663  0.00  0.00    -0.342 OA
BRANCH  32  33
ATOM     33  C   UNL     1       0.752   5.331   1.942  0.00  0.00    +0.281 C 
ATOM     34  C   UNL     1      -0.104   6.567   1.448  0.00  0.00    +0.187 C 
ATOM     35  C   UNL     1      -1.200   6.175   0.384  0.00  0.00    +0.092 C 
ATOM     36  C   UNL     1      -0.683   5.122  -0.608  0.00  0.00    +0.053 C 
ATOM     37  C   UNL     1       0.016   3.996   0.120  0.00  0.00    +0.120 C 
ATOM     38  C   UNL     1       0.522   2.965  -0.885  0.00  0.00    +0.038 C 
ATOM     39  O   UNL     1       1.132   4.563   0.811  0.00  0.00    -0.346 OA
BRANCH  35  40
ATOM     40  N   UNL     1      -1.893   7.247  -0.386  0.00  0.00    -0.303 NA
ATOM     41  C   UNL     1      -1.076   7.923  -1.397  0.00  0.00    +0.105 C 
ATOM     42  C   UNL     1      -2.561   8.243   0.450  0.00  0.00    +0.105 C 
ENDBRANCH  35  40
BRANCH  34  43
ATOM     43  O   UNL     1      -0.730   7.191   2.591  0.00  0.00    -0.385 OA
ATOM     44  H   UNL     1      -1.371   6.560   2.960  0.00  0.00    +0.210 HD
ENDBRANCH  34  43
ENDBRANCH  32  33
ENDBRANCH  15  32
BRANCH  18  45
ATOM     45  O   UNL     1       4.973   5.198   1.208  0.00  0.00    -0.347 OA
BRANCH  45  46
ATOM     46  C   UNL     1       4.952   6.485   1.839  0.00  0.00    +0.254 C 
ATOM     47  O   UNL     1       4.999   7.566   0.909  0.00  0.00    -0.346 OA
ATOM     48  C   UNL     1       6.271   7.859   0.362  0.00  0.00    +0.149 C 
ATOM     49  C   UNL     1       6.068   9.145  -0.447  0.00  0.00    +0.041 C 
ATOM     50  C   UNL     1       7.345   8.083   1.444  0.00  0.00    +0.175 C 
ATOM     51  C   UNL     1       7.370   6.951   2.505  0.00  0.00    +0.099 C 
ATOM     52  C   UNL     1       8.327   7.363   3.644  0.00  0.00    +0.044 C 
ATOM     53  C   UNL     1       5.932   6.738   3.000  0.00  0.00    +0.098 C 
BRANCH  50  54
ATOM     54  O   UNL     1       8.632   8.199   0.826  0.00  0.00    -0.386 OA
ATOM     55  H   UNL     1       8.866   7.286   0.566  0.00  0.00    +0.210 HD
ENDBRANCH  50  54
BRANCH  51  56
ATOM     56  O   UNL     1       7.861   5.753   1.868  0.00  0.00    -0.374 OA
ATOM     57  C   UNL     1       8.269   4.721   2.757  0.00  0.00    +0.194 C 
ENDBRANCH  51  56
ENDBRANCH  45  46
ENDBRANCH  18  45
TORSDOF 12
