REMARK  Name = 
REMARK  11 active torsions:
REMARK  status: ('A' for Active; 'I' for Inactive)
REMARK    1  A    between atoms: C_1  and  C_2
REMARK    2  A    between atoms: C_2  and  C_3
REMARK    3  A    between atoms: C_3  and  C_4
REMARK    4  A    between atoms: C_9  and  C_13
REMARK    5  A    between atoms: C_11  and  C_12
REMARK    6  A    between atoms: N_21  and  C_22
REMARK    7  A    between atoms: N_23  and  C_24
REMARK    8  A    between atoms: C_24  and  C_25
REMARK    9  A    between atoms: C_28  and  C_31
REMARK   10  A    between atoms: C_36  and  C_37
REMARK   11  A    between atoms: C_37  and  O_38
REMARK                            x       y       z     vdW  Elec       q    Type
REMARK                         _______ _______ _______ _____ _____    ______ ____
ROOT
ATOM      1  C   UNL     1       4.504  -0.268   1.094  0.00  0.00    +0.111 A 
ATOM      2  N   UNL     1       5.195   0.927   1.222  0.00  0.00    -0.323 N 
ATOM      3  C   UNL     1       6.554   0.627   1.268  0.00  0.00    +0.070 A 
ATOM      4  C   UNL     1       7.746   1.387   1.317  0.00  0.00    +0.039 A 
ATOM      5  C   UNL     1       8.985   0.698   1.368  0.00  0.00    +0.020 A 
ATOM      6  C   UNL     1       8.973  -0.702   1.453  0.00  0.00    +0.017 A 
ATOM      7  C   UNL     1       7.795  -1.462   1.357  0.00  0.00    -0.022 A 
ATOM      8  C   UNL     1       7.835  -2.959   1.385  0.00  0.00    +0.046 C 
ATOM      9  C   UNL     1       6.584  -0.763   1.249  0.00  0.00    +0.092 A 
ATOM     10  N   UNL     1       5.334  -1.287   1.121  0.00  0.00    -0.232 NA
ENDROOT
BRANCH   5  11
ATOM     11  C   UNL     1      10.265   1.456   1.361  0.00  0.00    +0.142 A 
ATOM     12  N   UNL     1      11.487   1.036   0.840  0.00  0.00    -0.327 N 
ATOM     13  C   UNL     1      11.770  -0.186   0.122  0.00  0.00    +0.151 C 
ATOM     14  C   UNL     1      12.429   2.021   1.062  0.00  0.00    +0.069 A 
ATOM     15  C   UNL     1      11.717   3.031   1.693  0.00  0.00    +0.090 A 
ATOM     16  C   UNL     1      12.389   4.206   2.075  0.00  0.00    +0.030 A 
ATOM     17  C   UNL     1      13.753   4.335   1.783  0.00  0.00    +0.002 A 
ATOM     18  C   UNL     1      14.444   3.312   1.133  0.00  0.00    +0.002 A 
ATOM     19  C   UNL     1      13.795   2.132   0.761  0.00  0.00    +0.028 A 
ATOM     20  N   UNL     1      10.399   2.675   1.858  0.00  0.00    -0.228 NA
ENDBRANCH   5  11
BRANCH   1  21
ATOM     21  C   UNL     1       3.030  -0.450   0.913  0.00  0.00    +0.074 C 
BRANCH  21  23
ATOM     22  C   UNL     1       1.056  -1.868   1.654  0.00  0.00    +0.004 C 
ATOM     23  C   UNL     1       2.466  -1.398   1.980  0.00  0.00    +0.004 C 
ENDBRANCH  21  23
ENDBRANCH   1  21
BRANCH   2  24
ATOM     24  C   UNL     1       4.599   2.256   1.365  0.00  0.00    +0.158 C 
BRANCH  24  25
ATOM     25  C   UNL     1       4.548   3.081   0.096  0.00  0.00    -0.028 A 
ATOM     26  C   UNL     1       4.074   4.400   0.153  0.00  0.00    +0.006 A 
ATOM     27  C   UNL     1       4.288   5.291  -0.913  0.00  0.00    +0.009 A 
ATOM     28  C   UNL     1       5.055   4.911  -2.024  0.00  0.00    -0.017 A 
ATOM     29  C   UNL     1       5.327   3.538  -2.151  0.00  0.00    +0.009 A 
ATOM     30  C   UNL     1       5.058   2.633  -1.121  0.00  0.00    +0.006 A 
BRANCH  28  31
ATOM     31  C   UNL     1       5.686   5.893  -2.956  0.00  0.00    -0.004 A 
ATOM     32  C   UNL     1       6.215   7.150  -2.563  0.00  0.00    +0.067 A 
ATOM     33  C   UNL     1       6.841   7.999  -3.501  0.00  0.00    +0.015 A 
ATOM     34  C   UNL     1       7.026   7.597  -4.818  0.00  0.00    +0.001 A 
ATOM     35  C   UNL     1       6.562   6.354  -5.219  0.00  0.00    +0.001 A 
ATOM     36  C   UNL     1       5.882   5.533  -4.311  0.00  0.00    +0.009 A 
BRANCH  32  37
ATOM     37  C   UNL     1       6.230   7.693  -1.181  0.00  0.00    +0.337 C 
ATOM     38  O   UNL     1       5.998   8.867  -0.933  0.00  0.00    -0.245 OA
BRANCH  37  39
ATOM     39  O   UNL     1       6.646   6.826  -0.232  0.00  0.00    -0.477 OA
ATOM     40  H   UNL     1       6.815   5.918  -0.551  0.00  0.00    +0.295 HD
ENDBRANCH  37  39
ENDBRANCH  32  37
ENDBRANCH  28  31
ENDBRANCH  24  25
ENDBRANCH   2  24
TORSDOF 8
