REMARK  Name = 
REMARK  9 active torsions:
REMARK  status: ('A' for Active; 'I' for Inactive)
REMARK    1  A    between atoms: C_6  and  N_8
REMARK    2  A    between atoms: N_8  and  C_9
REMARK    3  A    between atoms: N_8  and  C_10
REMARK    4  A    between atoms: C_11  and  O_12
REMARK    5  A    between atoms: C_13  and  C_14
REMARK    6  A    between atoms: C_19  and  O_20
REMARK    7  A    between atoms: C_21  and  O_22
REMARK    8  A    between atoms: C_28  and  O_30
REMARK    9  A    between atoms: C_35  and  O_36
REMARK                            x       y       z     vdW  Elec       q    Type
REMARK                         _______ _______ _______ _____ _____    ______ ____
ROOT
ATOM      1  C   UNL     1      -0.000  -0.000   0.000  0.00  0.00    +0.060 C 
ATOM      2  C   UNL     1      -0.000  -0.000   0.000  0.00  0.00    +0.154 C 
ATOM      3  C   UNL     1      -0.000  -0.000   0.000  0.00  0.00    +0.014 A 
ATOM      4  C   UNL     1      -0.000  -0.000   0.000  0.00  0.00    +0.048 A 
ATOM      5 CL   UNL     1      -0.000  -0.000   0.000  0.00  0.00    -0.083 Cl
ATOM      6  C   UNL     1      -0.000  -0.000   0.000  0.00  0.00    +0.024 A 
ATOM      7  C   UNL     1      -0.000  -0.000   0.000  0.00  0.00    +0.047 A 
ATOM      8  C   UNL     1      -0.000  -0.000   0.000  0.00  0.00    +0.128 A 
ATOM      9  C   UNL     1      -0.000  -0.000   0.000  0.00  0.00    +0.070 A 
ATOM     10  C   UNL     1      -0.000  -0.000   0.000  0.00  0.00    +0.197 C 
ATOM     11  O   UNL     1      -0.000  -0.000   0.000  0.00  0.00    -0.287 OA
ATOM     12  C   UNL     1      -0.000  -0.000   0.000  0.00  0.00    +0.046 C 
ATOM     13  C   UNL     1      -0.000  -0.000   0.000  0.00  0.00    +0.141 C 
ATOM     14  C   UNL     1      -0.000  -0.000   0.000  0.00  0.00    +0.190 C 
ATOM     15  C   UNL     1      -0.000  -0.000   0.000  0.00  0.00    +0.061 C 
ATOM     16  C   UNL     1      -0.000  -0.000   0.000  0.00  0.00    +0.129 C 
ATOM     17  C   UNL     1      -0.000  -0.000   0.000  0.00  0.00    +0.127 C 
ATOM     18  C   UNL     1      -0.000  -0.000   0.000  0.00  0.00    +0.121 C 
ATOM     19  C   UNL     1      -0.000  -0.000   0.000  0.00  0.00    +0.211 C 
ATOM     20  O   UNL     1      -0.000  -0.000   0.000  0.00  0.00    -0.288 OA
ATOM     21  C   UNL     1      -0.000  -0.000   0.000  0.00  0.00    +0.020 C 
ENDROOT
BRANCH  18  22
ATOM     22  C   UNL     1      -0.000  -0.000   0.000  0.00  0.00    +0.248 C 
ATOM     23  O   UNL     1      -0.000  -0.000   0.000  0.00  0.00    -0.270 OA
ATOM     24  N   UNL     1      -0.000  -0.000   0.000  0.00  0.00    -0.325 N 
ATOM     25  H   UNL     1      -0.000  -0.000   0.000  0.00  0.00    +0.145 HD
ATOM     26  H   UNL     1      -0.000  -0.000   0.000  0.00  0.00    +0.145 HD
ENDBRANCH  18  22
BRANCH  16  27
ATOM     27  N   UNL     1      -0.000  -0.000   0.000  0.00  0.00    -0.299 NA
ATOM     28  C   UNL     1      -0.000  -0.000   0.000  0.00  0.00    +0.105 C 
ATOM     29  C   UNL     1      -0.000  -0.000   0.000  0.00  0.00    +0.105 C 
ENDBRANCH  16  27
BRANCH   2  30
ATOM     30  O   UNL     1      -0.000  -0.000   0.000  0.00  0.00    -0.387 OA
ATOM     31  H   UNL     1       0.000   0.000   0.000  0.00  0.00    +0.210 HD
ENDBRANCH   2  30
BRANCH   8  32
ATOM     32  O   UNL     1       0.000  -0.000  -0.000  0.00  0.00    -0.506 OA
ATOM     33  H   UNL     1       0.000   0.000   0.000  0.00  0.00    +0.292 HD
ENDBRANCH   8  32
BRANCH  13  34
ATOM     34  O   UNL     1      -0.000  -0.000  -0.000  0.00  0.00    -0.507 OA
ATOM     35  H   UNL     1       0.000   0.000   0.000  0.00  0.00    +0.292 HD
ENDBRANCH  13  34
BRANCH  14  36
ATOM     36  O   UNL     1      -0.000  -0.000   0.000  0.00  0.00    -0.373 OA
ATOM     37  H   UNL     1       0.000   0.000   0.000  0.00  0.00    +0.211 HD
ENDBRANCH  14  36
BRANCH  17  38
ATOM     38  O   UNL     1      -0.000  -0.000   0.000  0.00  0.00    -0.509 OA
ATOM     39  H   UNL     1       0.000   0.000   0.000  0.00  0.00    +0.292 HD
ENDBRANCH  17  38
TORSDOF 7
