REMARK  Name = 
REMARK  5 active torsions:
REMARK  status: ('A' for Active; 'I' for Inactive)
REMARK    1  A    between atoms: C_1  and  C_2
REMARK    2  A    between atoms: C_5  and  N_10
REMARK    3  A    between atoms: N_6  and  C_7
REMARK    4  A    between atoms: C_7  and  C_8
REMARK    5  A    between atoms: C_8  and  O_9
REMARK                            x       y       z     vdW  Elec       q    Type
REMARK                         _______ _______ _______ _____ _____    ______ ____
ROOT
ATOM      1  C   UNL     1       1.022   0.256  -0.075  0.00  0.00    +0.086 C 
ATOM      2  C   UNL     1       2.506   0.145  -0.053  0.00  0.00    +0.112 A 
ATOM      3  N   UNL     1       3.212  -1.052  -0.058  0.00  0.00    -0.268 N 
ATOM      4  C   UNL     1       4.544  -0.713  -0.049  0.00  0.00    +0.368 A 
ATOM      5  C   UNL     1       4.593   0.658  -0.045  0.00  0.00    +0.217 A 
ATOM      6  N   UNL     1       3.329   1.176  -0.034  0.00  0.00    -0.234 NA
ENDROOT
BRANCH   4   7
ATOM      7  N   UNL     1       5.647  -1.610  -0.042  0.00  0.00    +0.100 N 
ATOM      8  O   UNL     1       5.409  -2.816   0.083  0.00  0.00    +0.043 OA
ATOM      9  O   UNL     1       6.771  -1.105  -0.143  0.00  0.00    -0.575 OA
ENDBRANCH   4   7
BRANCH   3  10
ATOM     10  C   UNL     1       2.604  -2.374  -0.127  0.00  0.00    +0.157 C 
BRANCH  10  11
ATOM     11  C   UNL     1       2.447  -3.041   1.237  0.00  0.00    +0.177 C 
BRANCH  11  12
ATOM     12  O   UNL     1       1.454  -2.382   2.018  0.00  0.00    -0.393 OA
ATOM     13  H   UNL     1       1.877  -1.626   2.465  0.00  0.00    +0.209 HD
ENDBRANCH  11  12
ENDBRANCH  10  11
ENDBRANCH   3  10
TORSDOF 4
