REMARK  Name = 
REMARK  7 active torsions:
REMARK  status: ('A' for Active; 'I' for Inactive)
REMARK    1  A    between atoms: C_1  and  C_2
REMARK    2  A    between atoms: C_10  and  O_11
REMARK    3  A    between atoms: C_14  and  C_15
REMARK    4  A    between atoms: N_18  and  C_19
REMARK    5  A    between atoms: C_19  and  C_20
REMARK    6  A    between atoms: C_21  and  C_22
REMARK    7  A    between atoms: C_21  and  C_23
REMARK                            x       y       z     vdW  Elec       q    Type
REMARK                         _______ _______ _______ _____ _____    ______ ____
ROOT
ATOM      1  C   UNL     1       1.607  -0.669  -0.605  0.00  0.00    +0.010 C 
ATOM      2  C   UNL     1       2.582  -0.049   0.393  0.00  0.00    +0.014 C 
ATOM      3  C   UNL     1       4.089   0.258   0.026  0.00  0.00    -0.002 C 
ATOM      4  C   UNL     1       4.258   1.617   0.765  0.00  0.00    +0.027 C 
ATOM      5  C   UNL     1       3.743   1.496   2.243  0.00  0.00    +0.086 C 
ATOM      6  N   UNL     1       3.373   0.138   2.677  0.00  0.00    -0.295 NA
ATOM      7  C   UNL     1       4.280   0.284  -1.491  0.00  0.00    +0.016 C 
ATOM      8  C   UNL     1       5.190  -0.688   0.622  0.00  0.00    -0.034 A 
ATOM      9  C   UNL     1       4.817  -1.855   1.316  0.00  0.00    -0.042 A 
ATOM     10  C   UNL     1       5.775  -2.643   1.976  0.00  0.00    +0.007 A 
ATOM     11  C   UNL     1       7.091  -2.203   2.083  0.00  0.00    +0.045 A 
ATOM     12  C   UNL     1       7.450  -1.000   1.490  0.00  0.00    +0.117 A 
ATOM     13  C   UNL     1       3.350  -2.110   1.548  0.00  0.00    +0.054 C 
ATOM     14  C   UNL     1       6.544  -0.283   0.714  0.00  0.00    +0.049 A 
ATOM     15  C   UNL     1       2.627  -0.746   1.748  0.00  0.00    +0.065 C 
ENDROOT
BRANCH  12  16
ATOM     16  O   UNL     1       8.686  -0.459   1.702  0.00  0.00    -0.507 OA
ATOM     17  H   UNL     1       9.087  -0.915   2.463  0.00  0.00    +0.292 HD
ENDBRANCH  12  16
BRANCH   6  18
ATOM     18  C   UNL     1       3.050  -0.022   4.077  0.00  0.00    +0.112 C 
BRANCH  18  19
ATOM     19  C   UNL     1       1.678   0.472   4.408  0.00  0.00    -0.013 C 
ATOM     20  C   UNL     1       1.049   0.296   5.575  0.00  0.00    -0.078 C 
ATOM     21  C   UNL     1      -0.359   0.767   5.789  0.00  0.00    +0.038 C 
ATOM     22  C   UNL     1       1.676  -0.380   6.779  0.00  0.00    +0.038 C 
ENDBRANCH  18  19
ENDBRANCH   6  18
TORSDOF 3
