REMARK  Name = 
REMARK  2 active torsions:
REMARK  status: ('A' for Active; 'I' for Inactive)
REMARK    1  A    between atoms: C_1  and  N_2
REMARK    2  A    between atoms: N_10  and  C_11
REMARK                            x       y       z     vdW  Elec       q    Type
REMARK                         _______ _______ _______ _____ _____    ______ ____
ROOT
ATOM      1  C   UNL     1       0.939   0.047   0.015  0.00  0.00    +0.155 C 
ATOM      2  N   UNL     1       2.387   0.046   0.018  0.00  0.00    -0.280 N 
ATOM      3  C   UNL     1       3.058  -1.180   0.021  0.00  0.00    +0.333 A 
ATOM      4  O   UNL     1       2.444  -2.251   0.021  0.00  0.00    -0.246 OA
ATOM      5  N   UNL     1       4.468  -1.145   0.025  0.00  0.00    -0.262 N 
ATOM      6  C   UNL     1       5.143  -2.428   0.031  0.00  0.00    +0.157 C 
ATOM      7  C   UNL     1       5.251   0.012   0.024  0.00  0.00    +0.282 A 
ATOM      8  O   UNL     1       6.477   0.035   0.027  0.00  0.00    -0.265 OA
ATOM      9  C   UNL     1       4.472   1.197   0.021  0.00  0.00    +0.149 A 
ATOM     10  N   UNL     1       4.852   2.506   0.020  0.00  0.00    -0.339 N 
ATOM     11  H   UNL     1       5.802   2.855   0.021  0.00  0.00    +0.167 HD
ATOM     12  C   UNL     1       3.699   3.248   0.017  0.00  0.00    +0.199 A 
ATOM     13  N   UNL     1       2.626   2.483   0.015  0.00  0.00    -0.218 NA
ATOM     14  C   UNL     1       3.113   1.211   0.018  0.00  0.00    +0.168 A 
ENDROOT
TORSDOF 0
