REMARK  Name = 
REMARK  11 active torsions:
REMARK  status: ('A' for Active; 'I' for Inactive)
REMARK    1  A    between atoms: C_5  and  C_6
REMARK    2  A    between atoms: C_6  and  O_7
REMARK    3  A    between atoms: O_7  and  C_8
REMARK    4  A    between atoms: C_8  and  C_9
REMARK    5  A    between atoms: CA_11  and  C_30
REMARK    6  A    between atoms: CA_15  and  N_17
REMARK    7  A    between atoms: C_18  and  C_20
REMARK    8  A    between atoms: C_20  and  C_24
REMARK    9  A    between atoms: N_21  and  O_22
REMARK   10  A    between atoms: O_22  and  C_23
REMARK   11  A    between atoms: C_30  and  O_31
REMARK                            x       y       z     vdW  Elec       q    Type
REMARK                         _______ _______ _______ _____ _____    ______ ____
ROOT
ATOM      1  C   UNL     1       1.776  -0.243  -0.671  0.00  0.00    +0.169 C 
ATOM      2  CA  UNL     1       2.690  -1.550  -0.614  0.00  0.00    +0.191 C 
ATOM      3  C   UNL     1       3.369  -0.826  -1.824  0.00  0.00    +0.244 C 
ATOM      4  O   UNL     1       4.270  -1.101  -2.577  0.00  0.00    -0.273 OA
ATOM      5  N   UNL     1       2.830   0.342  -1.452  0.00  0.00    -0.249 N 
ATOM      6  CA  UNL     1       3.073   1.647  -1.679  0.00  0.00    +0.125 C 
ATOM      7  C   UNL     1       2.645   2.603  -0.811  0.00  0.00    +0.006 C 
ATOM      8  C   UNL     1       1.786   2.359   0.403  0.00  0.00    +0.107 C 
ATOM      9  S   UNL     1       1.088   0.704   0.656  0.00  0.00    -0.131 S 
ENDROOT
BRANCH   2  10
ATOM     10  N   UNL     1       3.736  -2.061   0.369  0.00  0.00    -0.296 N 
ATOM     11  H   UNL     1       3.550  -2.951   0.824  0.00  0.00    +0.150 HD
ATOM     12  C   UNL     1       5.026  -1.655   0.721  0.00  0.00    +0.268 C 
ATOM     13  O   UNL     1       5.704  -2.397   1.456  0.00  0.00    -0.268 OA
BRANCH  12  14
ATOM     14  C   UNL     1       5.637  -0.289   0.403  0.00  0.00    +0.190 C 
ATOM     15  N   UNL     1       5.189   0.883   0.740  0.00  0.00    -0.078 NA
BRANCH  14  16
ATOM     16  C   UNL     1       7.041  -0.172  -0.034  0.00  0.00    +0.107 A 
ATOM     17  N   UNL     1       7.431   0.407  -1.248  0.00  0.00    -0.223 NA
ATOM     18  C   UNL     1       8.712   0.694  -1.218  0.00  0.00    +0.156 A 
ATOM     19  N   UNL     1       9.369   1.320  -2.208  0.00  0.00    -0.338 N 
ATOM     20  H   UNL     1       8.791   1.790  -2.895  0.00  0.00    +0.144 HD
ATOM     21  H   UNL     1      10.219   1.820  -1.970  0.00  0.00    +0.144 HD
ATOM     22  S   UNL     1       9.539   0.284   0.228  0.00  0.00    -0.060 S 
ATOM     23  C   UNL     1       8.075  -0.302   0.883  0.00  0.00    +0.078 A 
ENDBRANCH  14  16
BRANCH  15  24
ATOM     24  O   UNL     1       4.122   1.111   1.611  0.00  0.00    -0.396 OA
ATOM     25  C   UNL     1       3.572   0.040   2.338  0.00  0.00    +0.313 C 
ENDBRANCH  15  24
ENDBRANCH  12  14
ENDBRANCH   2  10
BRANCH   6  26
ATOM     26  C   UNL     1       3.857   2.082  -2.893  0.00  0.00    +0.351 C 
ATOM     27  OXT UNL     1       3.605   3.116  -3.491  0.00  0.00    -0.244 OA
BRANCH  26  28
ATOM     28  O   UNL     1       4.779   1.232  -3.368  0.00  0.00    -0.476 OA
ATOM     29  H   UNL     1       4.884   0.370  -2.912  0.00  0.00    +0.295 HD
ENDBRANCH  26  28
ENDBRANCH   6  26
BRANCH   7  30
ATOM     30  C   UNL     1       3.119   4.056  -0.867  0.00  0.00    +0.266 C 
BRANCH  30  31
ATOM     31  O   UNL     1       4.550   4.142  -1.010  0.00  0.00    -0.460 OA
BRANCH  31  32
ATOM     32  C   UNL     1       5.279   4.447   0.095  0.00  0.00    +0.304 C 
ATOM     33  O   UNL     1       4.835   4.565   1.229  0.00  0.00    -0.251 OA
ATOM     34  C   UNL     1       6.720   4.690  -0.265  0.00  0.00    +0.136 C 
ENDBRANCH  31  32
ENDBRANCH  30  31
ENDBRANCH   7  30
TORSDOF 9
