REMARK  Name = 
REMARK  8 active torsions:
REMARK  status: ('A' for Active; 'I' for Inactive)
REMARK    1  A    between atoms: N_4  and  C_5
REMARK    2  A    between atoms: C_7  and  C_8
REMARK    3  A    between atoms: C_8  and  S_9
REMARK    4  A    between atoms: S_9  and  C_10
REMARK    5  A    between atoms: C_10  and  C_11
REMARK    6  A    between atoms: C_11  and  C_12
REMARK    7  A    between atoms: N_14  and  S_15
REMARK    8  A    between atoms: S_15  and  N_16
REMARK                            x       y       z     vdW  Elec       q    Type
REMARK                         _______ _______ _______ _____ _____    ______ ____
ROOT
ATOM      1  C   UNL     1       7.810  -0.027  -2.047  0.00  0.00    +0.125 C 
ENDROOT
BRANCH   1   5
ATOM      2  C   UNL     1       4.760   1.702  -1.098  0.00  0.00    +0.272 A 
ATOM      3  S   UNL     1       4.920   1.060   0.502  0.00  0.00    -0.038 S 
ATOM      4  C   UNL     1       6.322   0.214   0.027  0.00  0.00    +0.074 A 
ATOM      5  C   UNL     1       6.638   0.501  -1.284  0.00  0.00    +0.062 A 
ATOM      6  N   UNL     1       5.742   1.357  -1.919  0.00  0.00    -0.211 NA
BRANCH   2  11
ATOM      7  N   UNL     1       2.048   3.176  -2.793  0.00  0.00    -0.289 N 
ATOM      8  H   UNL     1       1.738   3.760  -2.024  0.00  0.00    +0.255 HD
ATOM      9  H   UNL     1       1.873   3.548  -3.712  0.00  0.00    +0.255 HD
ATOM     10  C   UNL     1       3.205   2.515  -2.553  0.00  0.00    +0.384 C 
ATOM     11  N   UNL     1       3.664   2.462  -1.348  0.00  0.00    -0.045 NA
ATOM     12  N   UNL     1       3.677   1.931  -3.682  0.00  0.00    -0.289 N 
ATOM     13  H   UNL     1       4.631   1.590  -3.558  0.00  0.00    +0.255 HD
ATOM     14  H   UNL     1       3.585   2.470  -4.530  0.00  0.00    +0.255 HD
ENDBRANCH   2  11
ENDBRANCH   1   5
BRANCH   1  15
ATOM     15  S   UNL     1       9.371   0.535  -1.280  0.00  0.00    -0.154 S 
BRANCH  15  16
ATOM     16  C   UNL     1      10.587  -0.090  -2.490  0.00  0.00    +0.081 C 
BRANCH  16  17
ATOM     17  C   UNL     1      10.460   0.496  -3.891  0.00  0.00    +0.141 C 
BRANCH  17  18
ATOM     18  C   UNL     1      10.641   2.011  -3.918  0.00  0.00    +0.313 C 
ATOM     19  N   UNL     1      11.853   2.429  -4.072  0.00  0.00    +0.101 NA
ATOM     20  N   UNL     1       9.501   2.765  -3.763  0.00  0.00    -0.249 N 
ATOM     21  H   UNL     1       9.663   3.721  -3.433  0.00  0.00    +0.288 HD
ATOM     22  H   UNL     1       8.753   2.345  -3.218  0.00  0.00    +0.288 HD
BRANCH  19  23
ATOM     23  S   UNL     1      12.176   4.001  -4.194  0.00  0.00    +0.216 S 
ATOM     24  O   UNL     1      11.383   4.733  -3.230  0.00  0.00    -0.113 OA
ATOM     25  O   UNL     1      12.188   4.366  -5.591  0.00  0.00    -0.113 OA
BRANCH  23  26
ATOM     26  N   UNL     1      13.759   4.156  -3.675  0.00  0.00    -0.168 NA
ATOM     27  H   UNL     1      13.830   3.928  -2.687  0.00  0.00    +0.148 HD
ATOM     28  H   UNL     1      14.374   3.617  -4.278  0.00  0.00    +0.148 HD
ENDBRANCH  23  26
ENDBRANCH  19  23
ENDBRANCH  17  18
ENDBRANCH  16  17
ENDBRANCH  15  16
ENDBRANCH   1  15
TORSDOF 8
