REMARK  Name = 
REMARK  3 active torsions:
REMARK  status: ('A' for Active; 'I' for Inactive)
REMARK    1  A    between atoms: C_1  and  C_2
REMARK    2  A    between atoms: N_4  and  C_5
REMARK    3  A    between atoms: C_8  and  O_9
REMARK                            x       y       z     vdW  Elec       q    Type
REMARK                         _______ _______ _______ _____ _____    ______ ____
ROOT
ATOM      1  C   UNL     1       4.668  -1.114   0.603  0.00  0.00    +0.034 A 
ATOM      2  C   UNL     1       5.419   0.068   0.577  0.00  0.00    +0.027 A 
ATOM      3  C   UNL     1       6.810   0.027   0.720  0.00  0.00    +0.047 A 
ATOM      4  C   UNL     1       7.452  -1.196   0.870  0.00  0.00    +0.117 A 
ATOM      5  C   UNL     1       6.727  -2.381   0.860  0.00  0.00    +0.047 A 
ATOM      6  C   UNL     1       5.336  -2.336   0.728  0.00  0.00    +0.027 A 
ENDROOT
BRANCH   1   9
ATOM      7  C   UNL     1       0.927  -1.573   0.491  0.00  0.00    +0.109 C 
ATOM      8  C   UNL     1       2.344  -2.006   0.763  0.00  0.00    +0.214 C 
ATOM      9  N   UNL     1       3.264  -1.007   0.495  0.00  0.00    -0.286 N 
ATOM     10  H   UNL     1       2.898  -0.083   0.297  0.00  0.00    +0.155 HD
ATOM     11  O   UNL     1       2.583  -3.133   1.183  0.00  0.00    -0.276 OA
ENDBRANCH   1   9
BRANCH   4  12
ATOM     12  O   UNL     1       8.805  -1.196   1.021  0.00  0.00    -0.507 OA
ATOM     13  H   UNL     1       9.098  -2.113   1.163  0.00  0.00    +0.292 HD
ENDBRANCH   4  12
TORSDOF 2
