REMARK  Name = 
REMARK  8 active torsions:
REMARK  status: ('A' for Active; 'I' for Inactive)
REMARK    1  A    between atoms: C_1  and  N_2
REMARK    2  A    between atoms: N_2  and  C_3
REMARK    3  A    between atoms: N_2  and  C_4
REMARK    4  A    between atoms: N_2  and  C_5
REMARK    5  A    between atoms: C_5  and  C_6
REMARK    6  A    between atoms: C_6  and  O_8
REMARK    7  A    between atoms: C_6  and  C_9
REMARK    8  A    between atoms: C_9  and  C_10
REMARK                            x       y       z     vdW  Elec       q    Type
REMARK                         _______ _______ _______ _____ _____    ______ ____
ROOT
ATOM      1  C   UNL     1       4.223  -0.197   2.635  0.00  0.00    +0.165 C 
ENDROOT
BRANCH   1   2
ATOM      2  O   UNL     1       4.690   0.669   3.692  0.00  0.00    -0.386 OA
ATOM      3  H   UNL     1       4.296   0.336   4.520  0.00  0.00    +0.210 HD
ENDBRANCH   1   2
BRANCH   1   4
ATOM      4  C   UNL     1       5.018   0.095   1.331  0.00  0.00    +0.164 C 
BRANCH   4   6
ATOM      5  C   UNL     1       7.103   1.085   2.380  0.00  0.00    +0.192 C 
ATOM      6  N   UNL     1       6.574   0.053   1.402  0.00  0.00    +0.239 N 
ATOM      7  C   UNL     1       7.071  -1.333   1.769  0.00  0.00    +0.192 C 
ATOM      8  C   UNL     1       7.081   0.375   0.001  0.00  0.00    +0.192 C 
ENDBRANCH   4   6
ENDBRANCH   1   4
BRANCH   1   9
ATOM      9  C   UNL     1       4.155  -1.615   3.178  0.00  0.00    +0.088 C 
BRANCH   9  10
ATOM     10  C   UNL     1       3.866  -2.710   2.165  0.00  0.00    +0.044 C 
ATOM     11  O   UNL     1       3.646  -2.320   0.991  0.00  0.00    -0.550 OA
ATOM     12  O   UNL     1       3.961  -3.877   2.627  0.00  0.00    -0.550 OA
ENDBRANCH   9  10
ENDBRANCH   1   9
TORSDOF 5
