REMARK  Name = 
REMARK  5 active torsions:
REMARK  status: ('A' for Active; 'I' for Inactive)
REMARK    1  A    between atoms: N_1  and  CA_2
REMARK    2  A    between atoms: CA_2  and  CB_4
REMARK    3  A    between atoms: CA_2  and  C_6
REMARK    4  A    between atoms: CB_4  and  SG_5
REMARK    5  A    between atoms: C_6  and  O_7
REMARK                            x       y       z     vdW  Elec       q    Type
REMARK                         _______ _______ _______ _____ _____    ______ ____
ROOT
ATOM      1  CA  CYS A   1       2.475   0.068  -0.108  0.00  0.00    +0.170 C 
ENDROOT
BRANCH   1   2
ATOM      2  N   CYS A   1       0.979   0.091  -0.244  0.00  0.00    -0.318 NA
ATOM      3  H1  CYS A   1       0.714  -0.629  -0.925  0.00  0.00    +0.119 HD
ATOM      4  H2  CYS A   1       0.603  -0.291   0.635  0.00  0.00    +0.119 HD
ENDBRANCH   1   2
BRANCH   1   5
ATOM      5  C   CYS A   1       3.069   0.991  -1.181  0.00  0.00    +0.323 C 
ATOM      6  OXT CYS A   1       4.255   1.074  -1.460  0.00  0.00    -0.249 OA
BRANCH   5   7
ATOM      7  O   CYS A   1       2.105   1.732  -1.787  0.00  0.00    -0.480 OA
ATOM      8  H   CYS A   1       1.253   1.471  -1.352  0.00  0.00    +0.295 HD
ENDBRANCH   5   7
ENDBRANCH   1   5
BRANCH   1   9
ATOM      9  CB  CYS A   1       3.078  -1.333  -0.265  0.00  0.00    +0.095 C 
BRANCH   9  10
ATOM     10  SG  CYS A   1       2.412  -2.502   0.969  0.00  0.00    -0.176 S 
ATOM     11  HG  CYS A   1       3.043  -1.980   2.032  0.00  0.00    +0.102 HD
ENDBRANCH   9  10
ENDBRANCH   1   9
TORSDOF 5
