REMARK  Name = 
REMARK  11 active torsions:
REMARK  status: ('A' for Active; 'I' for Inactive)
REMARK    1  A    between atoms: C_1  and  C_2
REMARK    2  A    between atoms: C_2  and  C_3
REMARK    3  A    between atoms: C_3  and  N_4
REMARK    4  A    between atoms: C_3  and  C_8
REMARK    5  A    between atoms: N_4  and  C_5
REMARK    6  A    between atoms: C_5  and  C_6
REMARK    7  A    between atoms: C_5  and  C_7
REMARK    8  A    between atoms: C_8  and  O_9
REMARK    9  A    between atoms: C_8  and  C_10
REMARK   10  A    between atoms: C_12  and  O_13
REMARK   11  A    between atoms: C_14  and  O_15
REMARK                            x       y       z     vdW  Elec       q    Type
REMARK                         _______ _______ _______ _____ _____    ______ ____
ROOT
ATOM      1  C   UNL     1       4.455  -0.606  -1.300  0.00  0.00    +0.161 C 
ENDROOT
BRANCH   1   2
ATOM      2  C   UNL     1       4.943  -1.034  -2.677  0.00  0.00    -0.014 A 
ATOM      3  C   UNL     1       6.223  -0.637  -3.109  0.00  0.00    +0.010 A 
ATOM      4  C   UNL     1       6.727  -1.032  -4.357  0.00  0.00    +0.049 A 
ATOM      5  C   UNL     1       5.946  -1.839  -5.169  0.00  0.00    +0.158 A 
ATOM      6  C   UNL     1       4.682  -2.246  -4.761  0.00  0.00    +0.159 A 
ATOM      7  C   UNL     1       4.179  -1.856  -3.526  0.00  0.00    +0.055 A 
BRANCH   5   8
ATOM      8  O   UNL     1       6.434  -2.240  -6.379  0.00  0.00    -0.503 OA
ATOM      9  H   UNL     1       5.724  -2.805  -6.748  0.00  0.00    +0.292 HD
ENDBRANCH   5   8
BRANCH   6  10
ATOM     10  O   UNL     1       3.957  -3.035  -5.612  0.00  0.00    -0.503 OA
ATOM     11  H   UNL     1       3.068  -3.147  -5.236  0.00  0.00    +0.292 HD
ENDBRANCH   6  10
ENDBRANCH   1   2
BRANCH   1  12
ATOM     12  O   UNL     1       4.966  -1.555  -0.358  0.00  0.00    -0.386 OA
ATOM     13  H   UNL     1       4.712  -2.441  -0.678  0.00  0.00    +0.210 HD
ENDBRANCH   1  12
BRANCH   1  14
ATOM     14  C   UNL     1       2.895  -0.465  -1.127  0.00  0.00    +0.087 C 
BRANCH  14  16
ATOM     15  C   UNL     1       1.023  -0.179   0.629  0.00  0.00    +0.005 C 
ATOM     16  C   UNL     1       2.521  -0.265   0.362  0.00  0.00    +0.018 C 
ENDBRANCH  14  16
BRANCH  14  17
ATOM     17  N   UNL     1       2.249   0.464  -2.078  0.00  0.00    -0.308 NA
ATOM     18  H   UNL     1       1.236   0.445  -1.980  0.00  0.00    +0.123 HD
BRANCH  17  19
ATOM     19  C   UNL     1       2.737   1.847  -2.139  0.00  0.00    +0.048 C 
ATOM     20  C   UNL     1       2.259   2.721  -0.982  0.00  0.00    +0.023 C 
ATOM     21  C   UNL     1       2.223   2.466  -3.447  0.00  0.00    +0.023 C 
ENDBRANCH  17  19
ENDBRANCH  14  17
ENDBRANCH   1  14
TORSDOF 8
