REMARK  Name = 
REMARK  18 active torsions:
REMARK  status: ('A' for Active; 'I' for Inactive)
REMARK    1  A    between atoms: C_3  and  O_31
REMARK    2  A    between atoms: C_6  and  O_8
REMARK    3  A    between atoms: C_13  and  C_15
REMARK    4  A    between atoms: C_16  and  C_18
REMARK    5  A    between atoms: C_18  and  C_19
REMARK    6  A    between atoms: C_19  and  C_20
REMARK    7  A    between atoms: C_20  and  O_22
REMARK    8  A    between atoms: C_20  and  C_23
REMARK    9  A    between atoms: C_23  and  C_24
REMARK   10  A    between atoms: C_24  and  O_26
REMARK   11  A    between atoms: C_24  and  C_27
REMARK   12  A    between atoms: C_27  and  C_28
REMARK   13  A    between atoms: C_28  and  O_29
REMARK   14  A    between atoms: O_31  and  C_32
REMARK   15  A    between atoms: C_32  and  C_34
REMARK   16  A    between atoms: C_34  and  C_36
REMARK   17  A    between atoms: C_34  and  C_37
REMARK   18  A    between atoms: C_37  and  C_38
REMARK                            x       y       z     vdW  Elec       q    Type
REMARK                         _______ _______ _______ _____ _____    ______ ____
ROOT
ATOM      1  C   UNL     1       2.353  -0.054  -0.067  0.00  0.00    +0.063 C 
ATOM      2  C   UNL     1       2.493   0.299   1.459  0.00  0.00    +0.007 C 
ATOM      3  C   UNL     1       1.859  -0.791   2.392  0.00  0.00    +0.012 C 
ATOM      4  C   UNL     1       0.355  -0.641   2.645  0.00  0.00    +0.012 C 
ATOM      5  C   UNL     1       2.109  -2.191   1.929  0.00  0.00    -0.023 C 
ATOM      6  C   UNL     1       2.404  -2.519   0.667  0.00  0.00    -0.000 C 
ATOM      7  C   UNL     1       2.542  -1.544  -0.388  0.00  0.00    -0.042 C 
ATOM      8  C   UNL     1       2.821  -1.982  -1.628  0.00  0.00    +0.008 C 
ATOM      9  C   UNL     1       3.155  -1.073  -2.760  0.00  0.00    +0.141 C 
ATOM     10  C   UNL     1       3.885   0.150  -2.241  0.00  0.00    +0.080 C 
ATOM     11  C   UNL     1       3.155   0.857  -1.076  0.00  0.00    +0.187 C 
ENDROOT
BRANCH   9  12
ATOM     12  O   UNL     1       1.984  -0.695  -3.464  0.00  0.00    -0.388 OA
ATOM     13  H   UNL     1       1.217  -0.843  -2.885  0.00  0.00    +0.210 HD
ENDBRANCH   9  12
BRANCH   2  14
ATOM     14  C   UNL     1       1.998   1.732   1.857  0.00  0.00    +0.007 C 
BRANCH  14  15
ATOM     15  C   UNL     1       2.424   2.061   3.303  0.00  0.00    +0.032 C 
BRANCH  15  16
ATOM     16  C   UNL     1       1.949   3.381   3.924  0.00  0.00    +0.117 C 
BRANCH  16  17
ATOM     17  O   UNL     1       0.525   3.420   4.018  0.00  0.00    -0.392 OA
ATOM     18  H   UNL     1       0.156   3.242   3.135  0.00  0.00    +0.210 HD
ENDBRANCH  16  17
BRANCH  16  19
ATOM     19  C   UNL     1       2.517   3.459   5.360  0.00  0.00    +0.063 C 
BRANCH  19  20
ATOM     20  C   UNL     1       2.113   4.709   6.153  0.00  0.00    +0.128 C 
BRANCH  20  21
ATOM     21  O   UNL     1       0.687   4.782   6.302  0.00  0.00    -0.391 OA
ATOM     22  H   UNL     1       0.300   4.344   5.507  0.00  0.00    +0.210 HD
ENDBRANCH  20  21
BRANCH  20  23
ATOM     23  C   UNL     1       2.712   4.662   7.561  0.00  0.00    +0.151 C 
BRANCH  23  24
ATOM     24  C   UNL     1       2.435   5.907   8.369  0.00  0.00    +0.307 C 
ATOM     25  O   UNL     1       3.234   6.371   9.172  0.00  0.00    -0.251 OA
BRANCH  24  26
ATOM     26  O   UNL     1       1.197   6.420   8.206  0.00  0.00    -0.481 OA
ATOM     27  H   UNL     1       0.672   5.895   7.551  0.00  0.00    +0.295 HD
ENDBRANCH  24  26
ENDBRANCH  23  24
ENDBRANCH  20  23
ENDBRANCH  19  20
ENDBRANCH  16  19
ENDBRANCH  15  16
ENDBRANCH  14  15
ENDBRANCH   2  14
BRANCH  11  28
ATOM     28  O   UNL     1       4.030   1.851  -0.486  0.00  0.00    -0.460 OA
BRANCH  28  29
ATOM     29  C   UNL     1       5.210   1.480   0.078  0.00  0.00    +0.310 C 
ATOM     30  O   UNL     1       5.593   0.332   0.250  0.00  0.00    -0.251 OA
BRANCH  29  31
ATOM     31  C   UNL     1       6.020   2.712   0.431  0.00  0.00    +0.094 C 
ATOM     32  C   UNL     1       6.430   2.642   1.899  0.00  0.00    +0.019 C 
BRANCH  31  33
ATOM     33  C   UNL     1       7.250   2.821  -0.478  0.00  0.00    +0.011 C 
ATOM     34  C   UNL     1       6.888   3.086  -1.933  0.00  0.00    +0.004 C 
ENDBRANCH  31  33
ENDBRANCH  29  31
ENDBRANCH  28  29
ENDBRANCH  11  28
TORSDOF 15
