REMARK  Name = 
REMARK  5 active torsions:
REMARK  status: ('A' for Active; 'I' for Inactive)
REMARK    1  A    between atoms: N_1  and  S_2
REMARK    2  A    between atoms: S_2  and  C_5
REMARK    3  A    between atoms: C_10  and  C_11
REMARK    4  A    between atoms: C_11  and  C_12
REMARK    5  A    between atoms: C_23  and  C_24
REMARK                            x       y       z     vdW  Elec       q    Type
REMARK                         _______ _______ _______ _____ _____    ______ ____
ROOT
ATOM      1  C   UNL     1       3.371  -1.179   1.099  0.00  0.00    +0.119 A 
ATOM      2  C   UNL     1       2.971  -2.522   0.994  0.00  0.00    +0.083 A 
ATOM      3  C   UNL     1       3.338  -3.407   2.050  0.00  0.00    +0.039 A 
ATOM      4  C   UNL     1       4.112  -3.004   3.153  0.00  0.00    +0.056 A 
ATOM      5  N   UNL     1       4.321  -3.881   4.219  0.00  0.00    -0.326 N 
ATOM      6  H   UNL     1       4.285  -4.864   3.949  0.00  0.00    +0.148 HD
ATOM      7  C   UNL     1       5.404  -3.598   5.151  0.00  0.00    +0.164 C 
ATOM      8  N   UNL     1       5.218  -2.263   5.710  0.00  0.00    -0.170 NA
ATOM      9  H   UNL     1       5.906  -2.075   6.439  0.00  0.00    +0.150 HD
ATOM     10  S   UNL     1       5.409  -1.070   4.551  0.00  0.00    +0.062 S 
ATOM     11  O   UNL     1       6.807  -1.082   4.181  0.00  0.00    -0.153 OA
ATOM     12  O   UNL     1       4.773   0.121   5.064  0.00  0.00    -0.153 OA
ATOM     13  C   UNL     1       4.493  -1.668   3.187  0.00  0.00    +0.128 A 
ATOM     14  C   UNL     1       4.146  -0.760   2.186  0.00  0.00    +0.059 A 
ENDROOT
BRANCH   2  15
ATOM     15  C   UNL     1       2.174  -3.116  -0.147  0.00  0.00    +0.419 C 
ATOM     16  F   UNL     1       1.034  -3.718   0.299  0.00  0.00    -0.166 F 
ATOM     17  F   UNL     1       2.876  -4.103  -0.777  0.00  0.00    -0.166 F 
ATOM     18  F   UNL     1       1.768  -2.278  -1.131  0.00  0.00    -0.166 F 
ENDBRANCH   2  15
BRANCH   1  19
ATOM     19  S   UNL     1       2.865   0.089  -0.035  0.00  0.00    +0.057 S 
ATOM     20  O   UNL     1       3.183   1.379   0.532  0.00  0.00    -0.153 OA
ATOM     21  O   UNL     1       3.283  -0.287  -1.361  0.00  0.00    -0.153 OA
BRANCH  19  22
ATOM     22  N   UNL     1       1.195  -0.012   0.062  0.00  0.00    -0.203 NA
ATOM     23  H   UNL     1       0.821   0.823   0.518  0.00  0.00    +0.144 HD
ATOM     24  H   UNL     1       0.803  -0.182  -0.868  0.00  0.00    +0.144 HD
ENDBRANCH  19  22
ENDBRANCH   1  19
BRANCH   7  25
ATOM     25  C   UNL     1       5.400  -4.599   6.335  0.00  0.00    +0.075 C 
BRANCH  25  26
ATOM     26  C   UNL     1       5.597  -6.041   5.930  0.00  0.00    -0.044 A 
ATOM     27  C   UNL     1       4.631  -6.999   6.266  0.00  0.00    +0.004 A 
ATOM     28  C   UNL     1       4.756  -8.313   5.819  0.00  0.00    +0.000 A 
ATOM     29  C   UNL     1       5.849  -8.684   5.040  0.00  0.00    +0.000 A 
ATOM     30  C   UNL     1       6.843  -7.752   4.747  0.00  0.00    +0.000 A 
ATOM     31  C   UNL     1       6.727  -6.440   5.204  0.00  0.00    +0.004 A 
ENDBRANCH  25  26
ENDBRANCH   7  25
TORSDOF 5
