REMARK  Name = 
REMARK  10 active torsions:
REMARK  status: ('A' for Active; 'I' for Inactive)
REMARK    1  A    between atoms: C_1  and  C_2
REMARK    2  A    between atoms: C_2  and  N_3
REMARK    3  A    between atoms: N_3  and  C_4
REMARK    4  A    between atoms: C_4  and  C_5
REMARK    5  A    between atoms: C_6  and  C_8
REMARK    6  A    between atoms: C_8  and  C_21
REMARK    7  A    between atoms: C_9  and  C_10
REMARK    8  A    between atoms: C_12  and  N_18
REMARK    9  A    between atoms: C_13  and  O_14
REMARK   10  A    between atoms: C_15  and  O_16
REMARK                            x       y       z     vdW  Elec       q    Type
REMARK                         _______ _______ _______ _____ _____    ______ ____
ROOT
ATOM      1  C   UNL     1       4.796   4.337   3.547  0.00  0.00    -0.014 A 
ATOM      2  C   UNL     1       5.192   5.532   2.935  0.00  0.00    +0.057 A 
ATOM      3  C   UNL     1       5.760   6.547   3.701  0.00  0.00    +0.166 A 
ATOM      4  C   UNL     1       5.947   6.409   5.076  0.00  0.00    +0.237 A 
ATOM      5  C   UNL     1       5.562   5.213   5.689  0.00  0.00    +0.318 A 
ATOM      6  C   UNL     1       4.989   4.175   4.927  0.00  0.00    +0.096 A 
ENDROOT
BRANCH   5   7
ATOM      7  N   UNL     1       5.748   5.017   7.128  0.00  0.00    +0.084 N 
ATOM      8  O   UNL     1       6.226   5.962   7.774  0.00  0.00    +0.042 OA
ATOM      9  O   UNL     1       5.416   3.929   7.615  0.00  0.00    -0.576 OA
ENDBRANCH   5   7
BRANCH   1  11
ATOM     10  C   UNL     1       5.009   2.323   2.095  0.00  0.00    +0.114 C 
ATOM     11  C   UNL     1       4.244   3.236   2.738  0.00  0.00    +0.032 C 
BRANCH  10  13
ATOM     12  N   UNL     1       4.944   0.107   0.824  0.00  0.00    -0.297 N 
ATOM     13  C   UNL     1       4.303   1.285   1.247  0.00  0.00    +0.257 C 
ATOM     14  O   UNL     1       3.131   1.508   0.922  0.00  0.00    -0.269 OA
BRANCH  12  16
ATOM     15  C   UNL     1       3.261  -1.728   0.543  0.00  0.00    +0.024 C 
ATOM     16  C   UNL     1       4.207  -0.742  -0.128  0.00  0.00    +0.105 C 
ENDBRANCH  12  16
BRANCH  12  17
ATOM     17  C   UNL     1       6.296  -0.291   1.243  0.00  0.00    +0.105 C 
ATOM     18  C   UNL     1       6.842  -1.655   0.852  0.00  0.00    +0.024 C 
ENDBRANCH  12  17
ENDBRANCH  10  13
BRANCH  10  19
ATOM     19  C   UNL     1       6.423   2.430   2.173  0.00  0.00    +0.104 C 
ATOM     20  N   UNL     1       7.573   2.532   2.281  0.00  0.00    -0.191 NA
ENDBRANCH  10  19
ENDBRANCH   1  11
BRANCH   3  21
ATOM     21  O   UNL     1       6.145   7.701   3.077  0.00  0.00    -0.503 OA
ATOM     22  H   UNL     1       6.530   8.260   3.784  0.00  0.00    +0.292 HD
ENDBRANCH   3  21
BRANCH   4  23
ATOM     23  O   UNL     1       6.507   7.494   5.705  0.00  0.00    -0.499 OA
ATOM     24  H   UNL     1       6.585   7.312   6.667  0.00  0.00    +0.293 HD
ENDBRANCH   4  23
TORSDOF 8
