REMARK  Name = 
REMARK  2 active torsions:
REMARK  status: ('A' for Active; 'I' for Inactive)
REMARK    1  A    between atoms: N_1  and  C_2
REMARK    2  A    between atoms: N_9  and  C_10
REMARK                            x       y       z     vdW  Elec       q    Type
REMARK                         _______ _______ _______ _____ _____    ______ ____
ROOT
ATOM      1  C   UNL     1       2.505  -0.142   0.011  0.00  0.00    +0.030 A 
ATOM      2  C   UNL     1       3.261  -1.303   0.011  0.00  0.00    +0.003 A 
ATOM      3  C   UNL     1       2.830  -2.734   0.029  0.00  0.00    +0.146 C 
ATOM      4  N   UNL     1       4.095  -3.454  -0.050  0.00  0.00    -0.282 N 
ATOM      5  C   UNL     1       5.185  -2.604  -0.002  0.00  0.00    +0.248 C 
ATOM      6  O   UNL     1       6.365  -2.898   0.018  0.00  0.00    -0.270 OA
ATOM      7  C   UNL     1       4.657  -1.237   0.003  0.00  0.00    +0.043 A 
ATOM      8  C   UNL     1       5.359  -0.047   0.017  0.00  0.00    +0.013 A 
ATOM      9  C   UNL     1       4.613   1.126   0.062  0.00  0.00    +0.003 A 
ATOM     10  C   UNL     1       3.204   1.075   0.084  0.00  0.00    +0.023 A 
ENDROOT
BRANCH   4  11
ATOM     11  C   UNL     1       4.223  -4.900   0.064  0.00  0.00    +0.163 C 
ATOM     12  C   UNL     1       3.828  -5.462   1.438  0.00  0.00    +0.240 C 
ATOM     13  O   UNL     1       3.556  -4.780   2.422  0.00  0.00    -0.273 OA
ATOM     14  N   UNL     1       3.772  -6.838   1.500  0.00  0.00    -0.255 N 
ATOM     15  H   UNL     1       3.542  -7.224   2.406  0.00  0.00    +0.158 HD
ATOM     16  C   UNL     1       3.590  -7.694   0.442  0.00  0.00    +0.219 C 
ATOM     17  O   UNL     1       3.293  -8.871   0.626  0.00  0.00    -0.275 OA
ATOM     18  C   UNL     1       3.796  -7.123  -0.944  0.00  0.00    +0.098 C 
ATOM     19  C   UNL     1       3.426  -5.647  -1.001  0.00  0.00    +0.041 C 
ENDBRANCH   4  11
BRANCH   1  20
ATOM     20  N   UNL     1       1.119  -0.160   0.169  0.00  0.00    -0.358 N 
ATOM     21  H   UNL     1       0.648  -0.974  -0.210  0.00  0.00    +0.142 HD
ATOM     22  H   UNL     1       0.658   0.705  -0.097  0.00  0.00    +0.142 HD
ENDBRANCH   1  20
TORSDOF 2
