REMARK  Name = 
REMARK  0 active torsions:
REMARK  status: ('A' for Active; 'I' for Inactive)
REMARK                            x       y       z     vdW  Elec       q    Type
REMARK                         _______ _______ _______ _____ _____    ______ ____
ROOT
ATOM      1  F   UNL     1       1.061  -0.033   0.157  0.00  0.00    -0.198 F 
ATOM      2  C   UNL     1       2.398   0.005   0.022  0.00  0.00    +0.203 A 
ATOM      3  C   UNL     1       3.122  -1.284  -0.065  0.00  0.00    +0.289 A 
ATOM      4  O   UNL     1       2.549  -2.367  -0.030  0.00  0.00    -0.265 OA
ATOM      5  N   UNL     1       4.485  -1.178  -0.191  0.00  0.00    -0.273 N 
ATOM      6  H   UNL     1       5.011  -2.035  -0.255  0.00  0.00    +0.174 HD
ATOM      7  C   UNL     1       5.190  -0.006  -0.262  0.00  0.00    +0.327 A 
ATOM      8  O   UNL     1       6.409   0.021  -0.392  0.00  0.00    -0.247 OA
ATOM      9  N   UNL     1       4.444   1.142  -0.180  0.00  0.00    -0.312 N 
ATOM     10  H   UNL     1       4.963   2.012  -0.231  0.00  0.00    +0.170 HD
ATOM     11  C   UNL     1       3.081   1.149  -0.039  0.00  0.00    +0.131 A 
ENDROOT
TORSDOF 0
