REMARK  Name = 
REMARK  4 active torsions:
REMARK  status: ('A' for Active; 'I' for Inactive)
REMARK    1  A    between atoms: C_5  and  O_6
REMARK    2  A    between atoms: N_14  and  C_15
REMARK    3  A    between atoms: C_15  and  C_16
REMARK    4  A    between atoms: C_22  and  O_23
REMARK                            x       y       z     vdW  Elec       q    Type
REMARK                         _______ _______ _______ _____ _____    ______ ____
ROOT
ATOM      1  C   UNL     1      -0.000  -0.000  -0.000  0.00  0.00    +0.252 C 
ATOM      2  C   UNL     1      -0.000  -0.000   0.000  0.00  0.00    +0.175 C 
ATOM      3  O   UNL     1      -0.000  -0.000  -0.000  0.00  0.00    -0.293 OA
ATOM      4  C   UNL     1      -0.000  -0.000   0.000  0.00  0.00    +0.081 C 
ATOM      5  C   UNL     1      -0.000  -0.000   0.000  0.00  0.00    +0.045 C 
ATOM      6  C   UNL     1      -0.000  -0.000  -0.000  0.00  0.00    +0.096 C 
ATOM      7  C   UNL     1      -0.000  -0.000   0.000  0.00  0.00    +0.094 C 
ATOM      8  C   UNL     1      -0.000  -0.000  -0.000  0.00  0.00    +0.057 C 
ATOM      9  C   UNL     1      -0.000  -0.000  -0.000  0.00  0.00    -0.038 A 
ATOM     10  C   UNL     1      -0.000  -0.000  -0.000  0.00  0.00    +0.014 A 
ATOM     11  C   UNL     1      -0.000  -0.000  -0.000  0.00  0.00    +0.167 A 
ATOM     12  C   UNL     1      -0.000  -0.000  -0.000  0.00  0.00    +0.159 A 
ATOM     13  C   UNL     1      -0.000  -0.000  -0.000  0.00  0.00    +0.049 A 
ATOM     14  C   UNL     1      -0.000  -0.000  -0.000  0.00  0.00    +0.008 A 
ATOM     15  N   UNL     1      -0.000  -0.000  -0.000  0.00  0.00    -0.296 NA
ATOM     16  C   UNL     1      -0.000  -0.000  -0.000  0.00  0.00    +0.086 C 
ATOM     17  C   UNL     1      -0.000  -0.000  -0.000  0.00  0.00    +0.034 C 
ATOM     18  C   UNL     1      -0.000  -0.000  -0.000  0.00  0.00    +0.075 C 
ATOM     19  O   UNL     1      -0.000  -0.000   0.000  0.00  0.00    -0.476 OA
ENDROOT
BRANCH   6  20
ATOM     20  O   UNL     1      -0.000  -0.000  -0.000  0.00  0.00    -0.386 OA
ATOM     21  H   UNL     1       0.000   0.000   0.000  0.00  0.00    +0.210 HD
ENDBRANCH   6  20
BRANCH  12  22
ATOM     22  O   UNL     1      -0.000  -0.000   0.000  0.00  0.00    -0.503 OA
ATOM     23  H   UNL     1       0.000   0.000   0.000  0.00  0.00    +0.292 HD
ENDBRANCH  12  22
BRANCH  15  24
ATOM     24  C   UNL     1      -0.000  -0.000  -0.000  0.00  0.00    +0.088 C 
BRANCH  24  25
ATOM     25  C   UNL     1      -0.000  -0.000  -0.000  0.00  0.00    +0.003 C 
ATOM     26  C   UNL     1      -0.000  -0.000  -0.000  0.00  0.00    +0.005 C 
ATOM     27  C   UNL     1      -0.000  -0.000  -0.000  0.00  0.00    +0.005 C 
ENDBRANCH  24  25
ENDBRANCH  15  24
TORSDOF 4
