REMARK  Name = 
REMARK  5 active torsions:
REMARK  status: ('A' for Active; 'I' for Inactive)
REMARK    1  A    between atoms: C_1  and  C_2
REMARK    2  A    between atoms: C_5  and  C_6
REMARK    3  A    between atoms: C_6  and  O_7
REMARK    4  A    between atoms: C_8  and  C_9
REMARK    5  A    between atoms: C_11  and  O_12
REMARK                            x       y       z     vdW  Elec       q    Type
REMARK                         _______ _______ _______ _____ _____    ______ ____
ROOT
ATOM      1  C   UNL     1       0.966   0.025   0.110  0.00  0.00    +0.069 C 
ATOM      2  C   UNL     1       2.465  -0.032   0.101  0.00  0.00    +0.080 A 
ATOM      3  C   UNL     1       3.135  -1.253   0.063  0.00  0.00    +0.148 A 
ATOM      4  C   UNL     1       4.538  -1.251   0.048  0.00  0.00    +0.064 A 
ATOM      5  C   UNL     1       5.237  -0.034   0.083  0.00  0.00    +0.010 A 
ATOM      6  C   UNL     1       4.470   1.125   0.120  0.00  0.00    +0.117 A 
ATOM      7  N   UNL     1       3.121   1.153   0.129  0.00  0.00    -0.256 NA
ENDROOT
BRANCH   3   8
ATOM      8  O   UNL     1       2.391  -2.404   0.039  0.00  0.00    -0.504 OA
ATOM      9  H   UNL     1       3.008  -3.171   0.025  0.00  0.00    +0.292 HD
ENDBRANCH   3   8
BRANCH   4  10
ATOM     10  C   UNL     1       5.262  -2.543  -0.018  0.00  0.00    +0.262 C 
ATOM     11  O   UNL     1       4.646  -3.606  -0.035  0.00  0.00    -0.296 OA
ENDBRANCH   4  10
BRANCH   5  12
ATOM     12  C   UNL     1       6.729   0.084   0.075  0.00  0.00    +0.193 C 
BRANCH  12  13
ATOM     13  O   UNL     1       7.262  -0.573   1.214  0.00  0.00    -0.390 OA
ATOM     14  H   UNL     1       7.229   0.057   1.956  0.00  0.00    +0.210 HD
ENDBRANCH  12  13
ENDBRANCH   5  12
TORSDOF 4
