REMARK  Name = 
REMARK  6 active torsions:
REMARK  status: ('A' for Active; 'I' for Inactive)
REMARK    1  A    between atoms: C_2  and  C_4
REMARK    2  A    between atoms: C_4  and  C_5
REMARK    3  A    between atoms: C_5  and  C_6
REMARK    4  A    between atoms: C_6  and  N_7
REMARK    5  A    between atoms: N_7  and  C_8
REMARK    6  A    between atoms: C_8  and  C_9
REMARK                            x       y       z     vdW  Elec       q    Type
REMARK                         _______ _______ _______ _____ _____    ______ ____
ROOT
ATOM      1  C   UNL     1       7.917  -3.272  -0.019  0.00  0.00    +0.045 C 
ATOM      2  C   UNL     1       9.243  -2.987  -0.126  0.00  0.00    +0.046 C 
ATOM      3  C   UNL     1      10.296  -4.061  -0.359  0.00  0.00    +0.188 C 
ATOM      4  O   UNL     1      10.079  -5.202  -0.749  0.00  0.00    -0.287 OA
ATOM      5  C   UNL     1      11.716  -3.665  -0.144  0.00  0.00    +0.054 C 
ATOM      6  C   UNL     1      12.051  -2.386   0.059  0.00  0.00    +0.042 C 
ATOM      7  C   UNL     1      11.060  -1.353   0.082  0.00  0.00    +0.124 C 
ATOM      8  F   UNL     1      11.484  -0.078   0.213  0.00  0.00    -0.205 F 
ATOM      9  C   UNL     1       9.751  -1.617   0.008  0.00  0.00    +0.052 C 
ENDROOT
BRANCH   1  10
ATOM     10  C   UNL     1       7.443  -4.677   0.010  0.00  0.00    -0.003 A 
ATOM     11  C   UNL     1       7.061  -5.323  -1.175  0.00  0.00    +0.011 A 
ATOM     12  C   UNL     1       6.705  -6.676  -1.164  0.00  0.00    +0.020 A 
ATOM     13  C   UNL     1       6.716  -7.383   0.036  0.00  0.00    +0.041 A 
ATOM     14 CL   UNL     1       6.324  -9.059   0.046  0.00  0.00    -0.084 Cl
ATOM     15  C   UNL     1       7.053  -6.744   1.229  0.00  0.00    +0.020 A 
ATOM     16  C   UNL     1       7.414  -5.393   1.216  0.00  0.00    +0.011 A 
ENDBRANCH   1  10
BRANCH   1  17
ATOM     17  N   UNL     1       6.860  -2.373   0.122  0.00  0.00    -0.343 N 
ATOM     18  H   UNL     1       6.604  -2.248   1.101  0.00  0.00    +0.146 HD
BRANCH  17  19
ATOM     19  C   UNL     1       6.642  -1.190  -0.695  0.00  0.00    +0.102 C 
BRANCH  19  20
ATOM     20  C   UNL     1       5.192  -1.125  -1.161  0.00  0.00    +0.028 C 
BRANCH  20  21
ATOM     21  C   UNL     1       4.985   0.085  -2.071  0.00  0.00    +0.097 C 
BRANCH  21  25
ATOM     22  N   UNL     1       3.365   1.247  -3.429  0.00  0.00    -0.329 N 
ATOM     23  H   UNL     1       4.096   1.881  -3.717  0.00  0.00    +0.145 HD
ATOM     24  H   UNL     1       2.437   1.366  -3.816  0.00  0.00    +0.145 HD
ATOM     25  C   UNL     1       3.567   0.194  -2.585  0.00  0.00    +0.211 C 
ATOM     26  O   UNL     1       2.654  -0.562  -2.287  0.00  0.00    -0.276 OA
ENDBRANCH  21  25
ENDBRANCH  20  21
ENDBRANCH  19  20
ENDBRANCH  17  19
ENDBRANCH   1  17
TORSDOF 6
