REMARK  Name = 
REMARK  6 active torsions:
REMARK  status: ('A' for Active; 'I' for Inactive)
REMARK    1  A    between atoms: C_1  and  C_2
REMARK    2  A    between atoms: N_4  and  C_5
REMARK    3  A    between atoms: C_5  and  C_6
REMARK    4  A    between atoms: C_6  and  C_7
REMARK    5  A    between atoms: C_7  and  S_8
REMARK    6  A    between atoms: S_8  and  O_9
REMARK                            x       y       z     vdW  Elec       q    Type
REMARK                         _______ _______ _______ _____ _____    ______ ____
ROOT
ATOM      1  C   UNL     1       5.246  -1.918   1.763  0.00  0.00    +0.044 C 
ENDROOT
BRANCH   1   2
ATOM      2  C   UNL     1       4.734  -0.858   0.796  0.00  0.00    +0.106 C 
BRANCH   2   5
ATOM      3  C   UNL     1       1.088  -1.433  -0.019  0.00  0.00    +0.109 C 
ATOM      4  C   UNL     1       2.578  -1.620  -0.123  0.00  0.00    +0.210 C 
ATOM      5  N   UNL     1       3.289  -0.826   0.749  0.00  0.00    -0.315 N 
ATOM      6  H   UNL     1       2.788  -0.264   1.425  0.00  0.00    +0.149 HD
ATOM      7  O   UNL     1       3.096  -2.395  -0.917  0.00  0.00    -0.276 OA
ENDBRANCH   2   5
ENDBRANCH   1   2
BRANCH   1   8
ATOM      8  C   UNL     1       6.767  -1.952   1.754  0.00  0.00    +0.199 C 
BRANCH   8   9
ATOM      9  S   UNL     1       7.402  -3.145   2.916  0.00  0.00    +0.080 S 
ATOM     10  O   UNL     1       7.102  -4.484   2.471  0.00  0.00    -0.147 OA
ATOM     11  O   UNL     1       7.147  -2.688   4.264  0.00  0.00    -0.147 OA
BRANCH   9  12
ATOM     12  O   UNL     1       8.973  -2.870   2.658  0.00  0.00    -0.254 OA
ATOM     13  H   UNL     1       9.372  -2.571   3.504  0.00  0.00    +0.244 HD
ENDBRANCH   9  12
ENDBRANCH   8   9
ENDBRANCH   1   8
TORSDOF 5
