REMARK  Name = 
REMARK  8 active torsions:
REMARK  status: ('A' for Active; 'I' for Inactive)
REMARK    1  A    between atoms: C_1  and  N_2
REMARK    2  A    between atoms: N_2  and  C_3
REMARK    3  A    between atoms: N_2  and  C_4
REMARK    4  A    between atoms: C_8  and  O_10
REMARK    5  A    between atoms: C_17  and  O_18
REMARK    6  A    between atoms: C_25  and  O_26
REMARK    7  A    between atoms: C_27  and  O_28
REMARK    8  A    between atoms: C_31  and  C_32
REMARK                            x       y       z     vdW  Elec       q    Type
REMARK                         _______ _______ _______ _____ _____    ______ ____
ROOT
ATOM      1  C   UNL     1      -0.000  -0.000  -0.000  0.00  0.00    +0.133 C 
ATOM      2  C   UNL     1      -0.000  -0.000  -0.000  0.00  0.00    +0.170 C 
ATOM      3  O   UNL     1      -0.000  -0.000   0.000  0.00  0.00    -0.294 OA
ATOM      4  C   UNL     1      -0.000  -0.000  -0.000  0.00  0.00    +0.211 C 
ATOM      5  C   UNL     1      -0.000  -0.000  -0.000  0.00  0.00    +0.192 C 
ATOM      6  O   UNL     1      -0.000  -0.000   0.000  0.00  0.00    -0.293 OA
ATOM      7  C   UNL     1      -0.000  -0.000  -0.000  0.00  0.00    +0.188 C 
ATOM      8  C   UNL     1      -0.000  -0.000   0.000  0.00  0.00    +0.141 C 
ATOM      9  C   UNL     1      -0.000  -0.000  -0.000  0.00  0.00    +0.050 C 
ATOM     10  C   UNL     1      -0.000  -0.000  -0.000  0.00  0.00    +0.085 C 
ATOM     11  C   UNL     1      -0.000  -0.000  -0.000  0.00  0.00    -0.036 C 
ATOM     12  C   UNL     1      -0.000  -0.000  -0.000  0.00  0.00    -0.007 A 
ATOM     13  C   UNL     1      -0.000  -0.000   0.000  0.00  0.00    +0.009 A 
ATOM     14  C   UNL     1      -0.000  -0.000   0.000  0.00  0.00    +0.004 A 
ATOM     15  C   UNL     1      -0.000  -0.000  -0.000  0.00  0.00    +0.046 A 
ATOM     16  C   UNL     1      -0.000  -0.000   0.000  0.00  0.00    +0.128 A 
ATOM     17  C   UNL     1      -0.000  -0.000   0.000  0.00  0.00    +0.071 A 
ATOM     18  C   UNL     1      -0.000  -0.000   0.000  0.00  0.00    +0.013 C 
ATOM     19  C   UNL     1      -0.000  -0.000  -0.000  0.00  0.00    +0.135 C 
ATOM     20  C   UNL     1      -0.000  -0.000   0.000  0.00  0.00    +0.197 C 
ATOM     21  O   UNL     1      -0.000  -0.000   0.000  0.00  0.00    -0.287 OA
ATOM     22  C   UNL     1      -0.000  -0.000  -0.000  0.00  0.00    +0.089 C 
ENDROOT
BRANCH   4  23
ATOM     23  C   UNL     1      -0.000  -0.000   0.000  0.00  0.00    +0.228 C 
ATOM     24  O   UNL     1      -0.000  -0.000  -0.000  0.00  0.00    -0.275 OA
ATOM     25  N   UNL     1      -0.000  -0.000  -0.000  0.00  0.00    -0.328 N 
ATOM     26  H   UNL     1      -0.000  -0.000  -0.000  0.00  0.00    +0.145 HD
ATOM     27  H   UNL     1      -0.000  -0.000  -0.000  0.00  0.00    +0.145 HD
ENDBRANCH   4  23
BRANCH   1  29
ATOM     28  C   UNL     1       0.000   0.000  -0.000  0.00  0.00    +0.105 C 
ATOM     29  N   UNL     1      -0.000  -0.000  -0.000  0.00  0.00    -0.299 NA
ATOM     30  C   UNL     1      -0.000  -0.000  -0.000  0.00  0.00    +0.105 C 
ENDBRANCH   1  29
BRANCH   7  31
ATOM     31  O   UNL     1      -0.000  -0.000   0.000  0.00  0.00    -0.373 OA
ATOM     32  H   UNL     1       0.000   0.000   0.000  0.00  0.00    +0.211 HD
ENDBRANCH   7  31
BRANCH   8  33
ATOM     33  O   UNL     1      -0.000  -0.000   0.000  0.00  0.00    -0.507 OA
ATOM     34  H   UNL     1       0.000   0.000   0.000  0.00  0.00    +0.292 HD
ENDBRANCH   8  33
BRANCH  16  35
ATOM     35  O   UNL     1      -0.000  -0.000   0.000  0.00  0.00    -0.506 OA
ATOM     36  H   UNL     1       0.000   0.000   0.000  0.00  0.00    +0.292 HD
ENDBRANCH  16  35
BRANCH  19  37
ATOM     37  O   UNL     1      -0.000  -0.000  -0.000  0.00  0.00    -0.390 OA
ATOM     38  H   UNL     1       0.000   0.000   0.000  0.00  0.00    +0.210 HD
ENDBRANCH  19  37
TORSDOF 6
