REMARK  Name = 
REMARK  9 active torsions:
REMARK  status: ('A' for Active; 'I' for Inactive)
REMARK    1  A    between atoms: C_1  and  C_2
REMARK    2  A    between atoms: C_2  and  C_3
REMARK    3  A    between atoms: C_2  and  N_4
REMARK    4  A    between atoms: N_4  and  C_5
REMARK    5  A    between atoms: C_6  and  N_11
REMARK    6  A    between atoms: C_17  and  C_19
REMARK    7  A    between atoms: C_26  and  N_27
REMARK    8  A    between atoms: N_27  and  S_28
REMARK    9  A    between atoms: S_28  and  C_29
REMARK                            x       y       z     vdW  Elec       q    Type
REMARK                         _______ _______ _______ _____ _____    ______ ____
ROOT
ATOM      1  N   UNL     1       4.357  -2.460  -1.683  0.00  0.00    -0.311 N 
ATOM      2  C   UNL     1       4.950  -3.607  -0.981  0.00  0.00    +0.125 C 
ATOM      3  C   UNL     1       4.614  -4.913  -1.736  0.00  0.00    +0.127 C 
ATOM      4  N   UNL     1       3.161  -5.029  -1.944  0.00  0.00    -0.293 N 
ATOM      5  C   UNL     1       2.283  -6.034  -1.549  0.00  0.00    +0.263 C 
ATOM      6  O   UNL     1       1.080  -5.947  -1.804  0.00  0.00    -0.268 OA
ATOM      7  C   UNL     1       2.626  -3.893  -2.702  0.00  0.00    +0.127 C 
ATOM      8  C   UNL     1       2.934  -2.562  -2.001  0.00  0.00    +0.125 C 
ENDROOT
BRANCH   5   9
ATOM      9  C   UNL     1       2.775  -7.246  -0.928  0.00  0.00    +0.103 A 
ATOM     10  N   UNL     1       2.079  -8.432  -1.094  0.00  0.00    -0.351 N 
ATOM     11  H   UNL     1       1.195  -8.490  -1.584  0.00  0.00    +0.166 HD
ATOM     12  C   UNL     1       2.827  -9.503  -0.668  0.00  0.00    +0.047 A 
ATOM     13  C   UNL     1       2.605 -10.878  -0.784  0.00  0.00    +0.028 A 
ATOM     14  C   UNL     1       3.605 -11.734  -0.305  0.00  0.00    +0.026 A 
ATOM     15  C   UNL     1       4.764 -11.218   0.278  0.00  0.00    +0.048 A 
ATOM     16  C   UNL     1       4.931  -9.842   0.453  0.00  0.00    +0.034 A 
ATOM     17  C   UNL     1       3.952  -8.970  -0.046  0.00  0.00    +0.002 A 
ATOM     18  C   UNL     1       3.834  -7.556  -0.096  0.00  0.00    +0.041 A 
BRANCH  15  19
ATOM     19  N   UNL     1       5.802 -12.093   0.709  0.00  0.00    -0.221 N 
ATOM     20  H   UNL     1       5.991 -12.891   0.099  0.00  0.00    +0.173 HD
BRANCH  19  21
ATOM     21  S   UNL     1       5.802 -12.585   2.322  0.00  0.00    +0.040 S 
ATOM     22  O   UNL     1       6.588 -13.803   2.351  0.00  0.00    -0.155 OA
ATOM     23  O   UNL     1       4.459 -12.551   2.848  0.00  0.00    -0.155 OA
ATOM     24  C   UNL     1       6.772 -11.304   3.092  0.00  0.00    +0.218 C 
ENDBRANCH  19  21
ENDBRANCH  15  19
ENDBRANCH   5   9
BRANCH   1  30
ATOM     25  C   UNL     1       4.443  -0.021  -1.210  0.00  0.00    +0.068 A 
ATOM     26  C   UNL     1       5.235   1.132  -1.331  0.00  0.00    +0.028 A 
ATOM     27  C   UNL     1       6.558   1.055  -1.744  0.00  0.00    +0.022 A 
ATOM     28  C   UNL     1       7.072  -0.192  -2.012  0.00  0.00    +0.113 A 
ATOM     29  N   UNL     1       6.347  -1.328  -1.957  0.00  0.00    -0.238 NA
ATOM     30  C   UNL     1       5.035  -1.257  -1.603  0.00  0.00    +0.142 A 
BRANCH  25  31
ATOM     31  N   UNL     1       3.174   0.042  -0.623  0.00  0.00    -0.339 N 
ATOM     32  H   UNL     1       2.453  -0.396  -1.177  0.00  0.00    +0.146 HD
BRANCH  31  34
ATOM     33  C   UNL     1       1.231   0.890   0.544  0.00  0.00    +0.027 C 
ATOM     34  C   UNL     1       2.713   1.125   0.238  0.00  0.00    +0.064 C 
ATOM     35  C   UNL     1       3.504   1.133   1.547  0.00  0.00    +0.027 C 
ENDBRANCH  31  34
ENDBRANCH  25  31
ENDBRANCH   1  30
TORSDOF 6
