REMARK  Name = 
REMARK  15 active torsions:
REMARK  status: ('A' for Active; 'I' for Inactive)
REMARK    1  A    between atoms: O_1  and  C_2
REMARK    2  A    between atoms: C_2  and  C_4
REMARK    3  A    between atoms: C_4  and  N_5
REMARK    4  A    between atoms: N_5  and  C_6
REMARK    5  A    between atoms: N_5  and  C_17
REMARK    6  A    between atoms: C_6  and  C_7
REMARK    7  A    between atoms: C_7  and  N_8
REMARK    8  A    between atoms: N_8  and  C_9
REMARK    9  A    between atoms: N_8  and  C_13
REMARK   10  A    between atoms: C_9  and  C_10
REMARK   11  A    between atoms: C_10  and  O_11
REMARK   12  A    between atoms: C_13  and  C_14
REMARK   13  A    between atoms: C_14  and  O_15
REMARK   14  A    between atoms: C_17  and  C_18
REMARK   15  A    between atoms: C_18  and  O_19
REMARK                            x       y       z     vdW  Elec       q    Type
REMARK                         _______ _______ _______ _____ _____    ______ ____
ROOT
ATOM      1  C   UNL     1       4.811   0.228   1.197  0.00  0.00    +0.101 C 
ENDROOT
BRANCH   1   2
ATOM      2  N   UNL     1       4.471  -0.986   0.367  0.00  0.00    -0.281 NA
BRANCH   2   3
ATOM      3  C   UNL     1       5.096  -2.196   1.035  0.00  0.00    +0.206 C 
BRANCH   3   4
ATOM      4  C   UNL     1       4.468  -2.508   2.393  0.00  0.00    +0.319 C 
ATOM      5  O   UNL     1       5.048  -3.087   3.297  0.00  0.00    -0.250 OA
BRANCH   4   6
ATOM      6  O   UNL     1       3.176  -2.111   2.483  0.00  0.00    -0.480 OA
ATOM      7  H   UNL     1       2.919  -1.647   1.660  0.00  0.00    +0.295 HD
ENDBRANCH   4   6
ENDBRANCH   3   4
ENDBRANCH   2   3
BRANCH   2   8
ATOM      8  C   UNL     1       5.152  -0.815  -0.974  0.00  0.00    +0.206 C 
BRANCH   8   9
ATOM      9  C   UNL     1       4.900  -1.969  -1.937  0.00  0.00    +0.319 C 
ATOM     10  O   UNL     1       5.697  -2.331  -2.787  0.00  0.00    -0.250 OA
BRANCH   9  11
ATOM     11  O   UNL     1       3.671  -2.516  -1.796  0.00  0.00    -0.480 OA
ATOM     12  H   UNL     1       3.187  -2.065  -1.075  0.00  0.00    +0.295 HD
ENDBRANCH   9  11
ENDBRANCH   8   9
ENDBRANCH   2   8
ENDBRANCH   1   2
BRANCH   1  13
ATOM     13  C   UNL     1       4.228   1.567   0.652  0.00  0.00    +0.101 C 
BRANCH  13  14
ATOM     14  N   UNL     1       4.435   2.791   1.504  0.00  0.00    -0.281 NA
BRANCH  14  15
ATOM     15  C   UNL     1       3.906   3.980   0.719  0.00  0.00    +0.206 C 
BRANCH  15  16
ATOM     16  C   UNL     1       2.400   3.902   0.476  0.00  0.00    +0.319 C 
ATOM     17  O   UNL     1       1.840   4.354  -0.509  0.00  0.00    -0.250 OA
BRANCH  16  18
ATOM     18  O   UNL     1       1.735   3.295   1.487  0.00  0.00    -0.480 OA
ATOM     19  H   UNL     1       2.372   2.968   2.152  0.00  0.00    +0.295 HD
ENDBRANCH  16  18
ENDBRANCH  15  16
ENDBRANCH  14  15
BRANCH  14  20
ATOM     20  C   UNL     1       5.922   3.004   1.669  0.00  0.00    +0.206 C 
BRANCH  20  21
ATOM     21  C   UNL     1       6.251   4.188   2.573  0.00  0.00    +0.319 C 
ATOM     22  O   UNL     1       7.252   4.877   2.461  0.00  0.00    -0.250 OA
BRANCH  21  23
ATOM     23  O   UNL     1       5.341   4.359   3.560  0.00  0.00    -0.480 OA
ATOM     24  H   UNL     1       4.635   3.684   3.474  0.00  0.00    +0.295 HD
ENDBRANCH  21  23
ENDBRANCH  20  21
ENDBRANCH  14  20
ENDBRANCH  13  14
ENDBRANCH   1  13
TORSDOF 15
