REMARK  Name = 
REMARK  10 active torsions:
REMARK  status: ('A' for Active; 'I' for Inactive)
REMARK    1  A    between atoms: C_1  and  O_2
REMARK    2  A    between atoms: O_2  and  C_3
REMARK    3  A    between atoms: C_4  and  O_5
REMARK    4  A    between atoms: O_5  and  C_6
REMARK    5  A    between atoms: N_16  and  C_17
REMARK    6  A    between atoms: N_16  and  C_18
REMARK    7  A    between atoms: C_18  and  C_19
REMARK    8  A    between atoms: C_19  and  C_20
REMARK    9  A    between atoms: C_20  and  N_21
REMARK   10  A    between atoms: C_22  and  C_24
REMARK                            x       y       z     vdW  Elec       q    Type
REMARK                         _______ _______ _______ _____ _____    ______ ____
ROOT
ATOM      1  C   UNL     1       2.098  -1.099   1.758  0.00  0.00    +0.164 A 
ATOM      2  C   UNL     1       1.998  -2.454   1.408  0.00  0.00    +0.078 A 
ATOM      3  C   UNL     1       2.894  -3.408   1.853  0.00  0.00    +0.082 A 
ATOM      4  C   UNL     1       3.972  -3.009   2.629  0.00  0.00    +0.044 A 
ATOM      5  C   UNL     1       4.781  -4.060   3.067  0.00  0.00    +0.129 A 
ATOM      6  N   UNL     1       4.510  -5.351   2.811  0.00  0.00    -0.199 NA
ATOM      7  C   UNL     1       3.448  -5.627   2.042  0.00  0.00    +0.220 A 
ATOM      8  N   UNL     1       3.092  -6.933   1.806  0.00  0.00    -0.303 N 
ATOM      9  C   UNL     1       2.417  -7.270   0.569  0.00  0.00    +0.132 C 
ATOM     10  N   UNL     1       5.954  -3.825   3.796  0.00  0.00    -0.343 N 
ATOM     11  H   UNL     1       6.343  -4.731   4.044  0.00  0.00    +0.144 HD
ATOM     12  H   UNL     1       5.789  -3.244   4.609  0.00  0.00    +0.144 HD
ATOM     13  C   UNL     1       4.143  -1.632   2.917  0.00  0.00    +0.062 A 
ATOM     14  N   UNL     1       2.654  -4.678   1.536  0.00  0.00    -0.214 NA
ATOM     15  C   UNL     1       3.204  -0.676   2.501  0.00  0.00    +0.162 A 
ENDROOT
BRANCH   1  17
ATOM     16  C   UNL     1      -0.177  -0.714   1.235  0.00  0.00    +0.277 C 
ATOM     17  O   UNL     1       1.150  -0.194   1.353  0.00  0.00    -0.491 OA
ENDBRANCH   1  17
BRANCH  15  18
ATOM     18  O   UNL     1       3.520   0.584   2.937  0.00  0.00    -0.491 OA
ATOM     19  C   UNL     1       2.633   1.653   2.646  0.00  0.00    +0.277 C 
ENDBRANCH  15  18
BRANCH   8  20
ATOM     20  C   UNL     1       3.432  -7.983   2.752  0.00  0.00    +0.109 C 
BRANCH  20  21
ATOM     21  C   UNL     1       2.723  -7.815   4.104  0.00  0.00    +0.038 C 
BRANCH  21  22
ATOM     22  C   UNL     1       1.199  -7.806   3.990  0.00  0.00    +0.106 C 
BRANCH  22  23
ATOM     23  N   UNL     1       0.552  -7.693   5.286  0.00  0.00    -0.313 N 
ATOM     24  H   UNL     1       0.475  -6.782   5.731  0.00  0.00    +0.149 HD
ATOM     25  C   UNL     1       0.250  -8.788   6.067  0.00  0.00    +0.242 C 
ATOM     26  O   UNL     1       0.465  -9.946   5.713  0.00  0.00    -0.273 OA
BRANCH  25  27
ATOM     27  C   UNL     1      -0.470  -8.433   7.380  0.00  0.00    +0.204 C 
ATOM     28  O   UNL     1      -0.086  -7.157   7.921  0.00  0.00    -0.367 OA
ATOM     29  C   UNL     1       0.145  -7.312   9.330  0.00  0.00    +0.161 C 
ATOM     30  C   UNL     1      -0.405  -8.663   9.727  0.00  0.00    +0.031 C 
ATOM     31  C   UNL     1      -0.213  -9.465   8.466  0.00  0.00    +0.043 C 
ENDBRANCH  25  27
ENDBRANCH  22  23
ENDBRANCH  21  22
ENDBRANCH  20  21
ENDBRANCH   8  20
TORSDOF 7
