REMARK  Name = 
REMARK  6 active torsions:
REMARK  status: ('A' for Active; 'I' for Inactive)
REMARK    1  A    between atoms: N_1  and  C_2
REMARK    2  A    between atoms: C_2  and  C_3
REMARK    3  A    between atoms: C_3  and  C_4
REMARK    4  A    between atoms: C_3  and  C_8
REMARK    5  A    between atoms: C_4  and  C_5
REMARK    6  A    between atoms: C_5  and  O_6
REMARK                            x       y       z     vdW  Elec       q    Type
REMARK                         _______ _______ _______ _____ _____    ______ ____
ROOT
ATOM      1  C   UNL     1       3.007   1.131   0.573  0.00  0.00    +0.043 C 
ENDROOT
BRANCH   1   2
ATOM      2  C   UNL     1       4.548   1.121   0.565  0.00  0.00    -0.042 A 
ATOM      3  C   UNL     1       5.250   2.213   1.111  0.00  0.00    +0.005 A 
ATOM      4  C   UNL     1       6.648   2.223   1.176  0.00  0.00    +0.020 A 
ATOM      5  C   UNL     1       7.372   1.152   0.664  0.00  0.00    +0.041 A 
ATOM      6 CL   UNL     1       9.089   1.153   0.751  0.00  0.00    -0.084 Cl
ATOM      7  C   UNL     1       6.709   0.082   0.078  0.00  0.00    +0.020 A 
ATOM      8  C   UNL     1       5.309   0.064   0.033  0.00  0.00    +0.005 A 
ENDBRANCH   1   2
BRANCH   1   9
ATOM      9  C   UNL     1       2.395  -0.107  -0.134  0.00  0.00    +0.086 C 
BRANCH   9  10
ATOM     10  N   UNL     1       0.947   0.013  -0.335  0.00  0.00    -0.329 NA
ATOM     11  H   UNL     1       0.763   0.096  -1.342  0.00  0.00    +0.118 HD
ATOM     12  H   UNL     1       0.521  -0.897  -0.105  0.00  0.00    +0.118 HD
ENDBRANCH   9  10
ENDBRANCH   1   9
BRANCH   1  13
ATOM     13  C   UNL     1       2.490   1.269   2.023  0.00  0.00    +0.129 C 
BRANCH  13  14
ATOM     14  C   UNL     1       1.012   1.450   2.308  0.00  0.00    +0.305 C 
ATOM     15  O   UNL     1       0.549   1.332   3.435  0.00  0.00    -0.251 OA
BRANCH  14  16
ATOM     16  O   UNL     1       0.250   1.879   1.284  0.00  0.00    -0.481 OA
ATOM     17  H   UNL     1       0.527   1.425   0.451  0.00  0.00    +0.295 HD
ENDBRANCH  14  16
ENDBRANCH  13  14
ENDBRANCH   1  13
TORSDOF 6
