REMARK  Name = 
REMARK  19 active torsions:
REMARK  status: ('A' for Active; 'I' for Inactive)
REMARK    1  A    between atoms: C_1  and  O_2
REMARK    2  A    between atoms: O_2  and  C_3
REMARK    3  A    between atoms: C_3  and  C_4
REMARK    4  A    between atoms: C_5  and  C_6
REMARK    5  A    between atoms: C_13  and  C_14
REMARK    6  A    between atoms: C_15  and  C_16
REMARK    7  A    between atoms: C_16  and  O_18
REMARK    8  A    between atoms: C_16  and  C_19
REMARK    9  A    between atoms: C_19  and  C_20
REMARK   10  A    between atoms: C_20  and  O_22
REMARK   11  A    between atoms: C_20  and  C_23
REMARK   12  A    between atoms: C_23  and  C_24
REMARK   13  A    between atoms: C_24  and  O_25
REMARK   14  A    between atoms: C_27  and  C_28
REMARK   15  A    between atoms: C_28  and  C_29
REMARK   16  A    between atoms: C_28  and  C_30
REMARK   17  A    between atoms: C_32  and  C_33
REMARK   18  A    between atoms: C_33  and  C_34
REMARK   19  A    between atoms: C_33  and  C_35
REMARK                            x       y       z     vdW  Elec       q    Type
REMARK                         _______ _______ _______ _____ _____    ______ ____
ROOT
ATOM      1  C   UNL     1       4.331   0.602   1.344  0.00  0.00    +0.008 A 
ATOM      2  C   UNL     1       5.086  -0.602   1.389  0.00  0.00    +0.050 A 
ATOM      3  N   UNL     1       6.437  -0.595   1.410  0.00  0.00    -0.255 NA
ATOM      4  C   UNL     1       7.105   0.571   1.319  0.00  0.00    +0.052 A 
ATOM      5  C   UNL     1       6.456   1.822   1.242  0.00  0.00    +0.004 A 
ATOM      6  C   UNL     1       5.023   1.875   1.300  0.00  0.00    -0.002 A 
ENDROOT
BRANCH   6   7
ATOM      7  C   UNL     1       4.262   3.200   1.317  0.00  0.00    -0.017 A 
ATOM      8  C   UNL     1       4.563   4.266   0.444  0.00  0.00    +0.011 A 
ATOM      9  C   UNL     1       3.843   5.473   0.429  0.00  0.00    +0.039 A 
ATOM     10  C   UNL     1       2.740   5.614   1.249  0.00  0.00    +0.123 A 
ATOM     11  F   UNL     1       2.005   6.734   1.186  0.00  0.00    -0.205 F 
ATOM     12  C   UNL     1       2.394   4.608   2.121  0.00  0.00    +0.039 A 
ATOM     13  C   UNL     1       3.180   3.444   2.192  0.00  0.00    +0.011 A 
ENDBRANCH   6   7
BRANCH   2  14
ATOM     14  C   UNL     1       4.479  -2.002   1.298  0.00  0.00    +0.032 C 
ATOM     15  C   UNL     1       5.276  -3.084   2.043  0.00  0.00    +0.014 C 
ATOM     16  C   UNL     1       4.334  -2.400  -0.175  0.00  0.00    +0.014 C 
ENDBRANCH   2  14
BRANCH   4  17
ATOM     17  C   UNL     1       8.631   0.430   1.441  0.00  0.00    +0.032 C 
ATOM     18  C   UNL     1       9.171  -0.846   0.780  0.00  0.00    +0.014 C 
ATOM     19  C   UNL     1       9.042   0.451   2.916  0.00  0.00    +0.014 C 
ENDBRANCH   4  17
BRANCH   5  20
ATOM     20  C   UNL     1       7.323   3.012   1.097  0.00  0.00    +0.008 C 
ATOM     21  C   UNL     1       7.738   3.438  -0.112  0.00  0.00    +0.005 C 
BRANCH  21  22
ATOM     22  C   UNL     1       8.744   4.518  -0.417  0.00  0.00    +0.140 C 
BRANCH  22  23
ATOM     23  O   UNL     1       9.365   4.982   0.780  0.00  0.00    -0.388 OA
ATOM     24  H   UNL     1       8.651   5.304   1.360  0.00  0.00    +0.210 HD
ENDBRANCH  22  23
BRANCH  22  25
ATOM     25  C   UNL     1       9.830   3.980  -1.367  0.00  0.00    +0.067 C 
BRANCH  25  26
ATOM     26  C   UNL     1      10.973   4.972  -1.638  0.00  0.00    +0.128 C 
BRANCH  26  27
ATOM     27  O   UNL     1      11.654   5.313  -0.422  0.00  0.00    -0.391 OA
ATOM     28  H   UNL     1      10.975   5.303   0.294  0.00  0.00    +0.210 HD
ENDBRANCH  26  27
BRANCH  26  29
ATOM     29  C   UNL     1      12.017   4.350  -2.570  0.00  0.00    +0.151 C 
BRANCH  29  30
ATOM     30  C   UNL     1      13.140   5.294  -2.925  0.00  0.00    +0.307 C 
ATOM     31  O   UNL     1      13.684   5.297  -4.020  0.00  0.00    -0.251 OA
BRANCH  30  32
ATOM     32  O   UNL     1      13.565   6.077  -1.909  0.00  0.00    -0.481 OA
ATOM     33  H   UNL     1      13.035   5.918  -1.086  0.00  0.00    +0.295 HD
ENDBRANCH  30  32
ENDBRANCH  29  30
ENDBRANCH  26  29
ENDBRANCH  25  26
ENDBRANCH  22  25
ENDBRANCH  21  22
ENDBRANCH   5  20
BRANCH   1  34
ATOM     34  C   UNL     1       2.816   0.499   1.333  0.00  0.00    +0.197 C 
BRANCH  34  36
ATOM     35  C   UNL     1       0.856   1.150   0.224  0.00  0.00    +0.194 C 
ATOM     36  O   UNL     1       2.276   1.114   0.170  0.00  0.00    -0.378 OA
ENDBRANCH  34  36
ENDBRANCH   1  34
TORSDOF 14
