REMARK  Name = 
REMARK  10 active torsions:
REMARK  status: ('A' for Active; 'I' for Inactive)
REMARK    1  A    between atoms: C_1  and  C_2
REMARK    2  A    between atoms: C_2  and  C_3
REMARK    3  A    between atoms: C_2  and  C_4
REMARK    4  A    between atoms: C_2  and  N_5
REMARK    5  A    between atoms: N_5  and  C_6
REMARK    6  A    between atoms: C_6  and  C_7
REMARK    7  A    between atoms: C_7  and  O_8
REMARK    8  A    between atoms: C_7  and  C_9
REMARK    9  A    between atoms: C_9  and  O_10
REMARK   10  A    between atoms: O_10  and  C_11
REMARK                            x       y       z     vdW  Elec       q    Type
REMARK                         _______ _______ _______ _____ _____    ______ ____
ROOT
ATOM      1  O   UNL     1       6.967   2.021   3.826  0.00  0.00    -0.471 OA
ENDROOT
BRANCH   1   2
ATOM      2  C   UNL     1       8.288   2.347   3.826  0.00  0.00    +0.265 A 
ATOM      3  C   UNL     1       9.194   2.258   4.976  0.00  0.00    +0.194 A 
ATOM      4  N   UNL     1       8.904   1.723   6.212  0.00  0.00    -0.306 N 
ATOM      5  C   UNL     1       9.700   2.163   7.378  0.00  0.00    +0.135 C 
ATOM      6  C   UNL     1       9.739   1.063   8.448  0.00  0.00    +0.178 C 
ATOM      7  O   UNL     1       8.419   0.645   8.825  0.00  0.00    -0.377 OA
ATOM      8  C   UNL     1       7.722   0.139   7.678  0.00  0.00    +0.178 C 
ATOM      9  C   UNL     1       7.579   1.209   6.581  0.00  0.00    +0.135 C 
ATOM     10  N   UNL     1      10.414   2.739   4.689  0.00  0.00    -0.172 NA
ATOM     11  S   UNL     1      10.381   3.229   3.103  0.00  0.00    +0.121 S 
ATOM     12  N   UNL     1       8.804   2.876   2.711  0.00  0.00    -0.153 NA
ENDBRANCH   1   2
BRANCH   1  13
ATOM     13  C   UNL     1       6.407   1.782   2.533  0.00  0.00    +0.263 C 
BRANCH  13  14
ATOM     14  C   UNL     1       4.879   1.631   2.647  0.00  0.00    +0.166 C 
BRANCH  14  15
ATOM     15  O   UNL     1       4.330   1.320   1.356  0.00  0.00    -0.387 OA
ATOM     16  H   UNL     1       4.485   2.086   0.774  0.00  0.00    +0.210 HD
ENDBRANCH  14  15
BRANCH  14  17
ATOM     17  C   UNL     1       4.245   2.932   3.188  0.00  0.00    +0.116 C 
BRANCH  17  18
ATOM     18  N   UNL     1       2.786   2.823   3.312  0.00  0.00    -0.309 NA
ATOM     19  H   UNL     1       2.404   2.472   2.431  0.00  0.00    +0.123 HD
BRANCH  18  21
ATOM     20  C   UNL     1       2.309   5.215   2.748  0.00  0.00    +0.027 C 
ATOM     21  C   UNL     1       2.090   4.054   3.734  0.00  0.00    +0.011 C 
ATOM     22  C   UNL     1       0.582   3.736   3.771  0.00  0.00    +0.027 C 
ATOM     23  C   UNL     1       2.523   4.477   5.148  0.00  0.00    +0.027 C 
ENDBRANCH  18  21
ENDBRANCH  17  18
ENDBRANCH  14  17
ENDBRANCH  13  14
ENDBRANCH   1  13
TORSDOF 7
