REMARK  Name = 
REMARK  7 active torsions:
REMARK  status: ('A' for Active; 'I' for Inactive)
REMARK    1  A    between atoms: C_1  and  N_2
REMARK    2  A    between atoms: N_2  and  C_3
REMARK    3  A    between atoms: C_3  and  C_4
REMARK    4  A    between atoms: C_4  and  O_6
REMARK    5  A    between atoms: C_4  and  C_7
REMARK    6  A    between atoms: C_9  and  O_10
REMARK    7  A    between atoms: C_11  and  O_12
REMARK                            x       y       z     vdW  Elec       q    Type
REMARK                         _______ _______ _______ _____ _____    ______ ____
ROOT
ATOM      1  C   UNL     1       5.004   1.123  -2.699  0.00  0.00    -0.014 A 
ATOM      2  C   UNL     1       5.785   0.385  -3.610  0.00  0.00    +0.010 A 
ATOM      3  C   UNL     1       6.057   0.872  -4.894  0.00  0.00    +0.049 A 
ATOM      4  C   UNL     1       5.561   2.107  -5.275  0.00  0.00    +0.158 A 
ATOM      5  C   UNL     1       4.810   2.866  -4.392  0.00  0.00    +0.159 A 
ATOM      6  C   UNL     1       4.523   2.377  -3.122  0.00  0.00    +0.055 A 
ENDROOT
BRANCH   4   7
ATOM      7  O   UNL     1       5.809   2.578  -6.532  0.00  0.00    -0.503 OA
ATOM      8  H   UNL     1       5.349   3.440  -6.560  0.00  0.00    +0.292 HD
ENDBRANCH   4   7
BRANCH   5   9
ATOM      9  O   UNL     1       4.353   4.086  -4.807  0.00  0.00    -0.503 OA
ATOM     10  H   UNL     1       3.953   4.531  -4.041  0.00  0.00    +0.292 HD
ENDBRANCH   5   9
BRANCH   1  11
ATOM     11  C   UNL     1       4.600   0.565  -1.339  0.00  0.00    +0.158 C 
BRANCH  11  12
ATOM     12  O   UNL     1       5.219  -0.708  -1.099  0.00  0.00    -0.386 OA
ATOM     13  H   UNL     1       4.689  -1.367  -1.580  0.00  0.00    +0.210 HD
ENDBRANCH  11  12
BRANCH  11  14
ATOM     14  C   UNL     1       4.924   1.460  -0.106  0.00  0.00    +0.116 C 
BRANCH  14  16
ATOM     15  C   UNL     1       2.844   2.746   0.019  0.00  0.00    +0.101 C 
ATOM     16  N   UNL     1       4.301   2.793  -0.025  0.00  0.00    -0.316 NA
ATOM     17  H   UNL     1       4.648   3.260   0.813  0.00  0.00    +0.122 HD
ENDBRANCH  14  16
ENDBRANCH  11  14
ENDBRANCH   1  11
TORSDOF 6
