REMARK  Name = 
REMARK  22 active torsions:
REMARK  status: ('A' for Active; 'I' for Inactive)
REMARK    1  A    between atoms: N_1  and  C_2
REMARK    2  A    between atoms: C_2  and  C_3
REMARK    3  A    between atoms: C_6  and  O_8
REMARK    4  A    between atoms: O_8  and  C_9
REMARK    5  A    between atoms: C_11  and  C_13
REMARK    6  A    between atoms: C_13  and  O_14
REMARK    7  A    between atoms: C_16  and  O_18
REMARK    8  A    between atoms: O_18  and  C_19
REMARK    9  A    between atoms: C_21  and  O_23
REMARK   10  A    between atoms: C_24  and  N_26
REMARK   11  A    between atoms: C_28  and  N_30
REMARK   12  A    between atoms: C_31  and  O_33
REMARK   13  A    between atoms: O_33  and  C_34
REMARK   14  A    between atoms: C_37  and  C_39
REMARK   15  A    between atoms: C_39  and  N_40
REMARK   16  A    between atoms: C_41  and  O_43
REMARK   17  A    between atoms: C_44  and  O_46
REMARK   18  A    between atoms: C_47  and  N_49
REMARK   19  A    between atoms: C_50  and  O_52
REMARK   20  A    between atoms: C_53  and  N_55
REMARK   21  A    between atoms: C_56  and  O_58
REMARK   22  A    between atoms: C_59  and  O_61
REMARK                            x       y       z     vdW  Elec       q    Type
REMARK                         _______ _______ _______ _____ _____    ______ ____
ROOT
ATOM      1  C   UNL     1       7.057  -1.382   7.818  0.00  0.00    +0.182 C 
ATOM      2  C   UNL     1       8.376  -1.477   8.628  0.00  0.00    +0.169 C 
ATOM      3  C   UNL     1       9.629  -1.447   7.717  0.00  0.00    +0.084 C 
ATOM      4  C   UNL     1       9.524  -2.529   6.650  0.00  0.00    +0.042 C 
ATOM      5  C   UNL     1       8.387  -2.223   5.685  0.00  0.00    +0.084 C 
ATOM      6  C   UNL     1       7.046  -1.970   6.386  0.00  0.00    +0.163 C 
ENDROOT
BRANCH   3   7
ATOM      7  N   UNL     1      10.865  -1.673   8.497  0.00  0.00    -0.325 NA
ATOM      8  H   UNL     1      10.879  -2.627   8.852  0.00  0.00    +0.119 HD
ATOM      9  H   UNL     1      11.669  -1.600   7.873  0.00  0.00    +0.119 HD
ENDBRANCH   3   7
BRANCH   5  10
ATOM     10  N   UNL     1       8.261  -3.368   4.752  0.00  0.00    -0.325 NA
ATOM     11  H   UNL     1       8.067  -4.225   5.280  0.00  0.00    +0.119 HD
ATOM     12  H   UNL     1       7.449  -3.234   4.151  0.00  0.00    +0.119 HD
ENDBRANCH   5  10
BRANCH   6  13
ATOM     13  O   UNL     1       6.234  -1.118   5.555  0.00  0.00    -0.388 OA
ATOM     14  H   UNL     1       5.835  -1.667   4.861  0.00  0.00    +0.210 HD
ENDBRANCH   6  13
BRANCH   2  15
ATOM     15  O   UNL     1       8.500  -0.396   9.584  0.00  0.00    -0.342 OA
BRANCH  15  16
ATOM     16  C   UNL     1       7.444  -0.303  10.548  0.00  0.00    +0.270 C 
ATOM     17  C   UNL     1       7.695   0.903  11.493  0.00  0.00    +0.139 C 
ATOM     18  C   UNL     1       8.933   0.616  12.360  0.00  0.00    +0.167 C 
ATOM     19  C   UNL     1       8.750  -0.716  13.104  0.00  0.00    +0.175 C 
ATOM     20  C   UNL     1       8.440  -1.835  12.099  0.00  0.00    +0.166 C 
ATOM     21  O   UNL     1       7.300  -1.517  11.289  0.00  0.00    -0.343 OA
BRANCH  17  22
ATOM     22  N   UNL     1       7.830   2.194  10.777  0.00  0.00    -0.321 NA
ATOM     23  H   UNL     1       8.180   2.875  11.458  0.00  0.00    +0.119 HD
ATOM     24  H   UNL     1       8.575   2.094  10.085  0.00  0.00    +0.119 HD
ENDBRANCH  17  22
BRANCH  19  25
ATOM     25  O   UNL     1       9.927  -0.993  13.874  0.00  0.00    -0.387 OA
ATOM     26  H   UNL     1      10.626  -1.302  13.270  0.00  0.00    +0.210 HD
ENDBRANCH  19  25
BRANCH  18  27
ATOM     27  O   UNL     1       9.124   1.678  13.310  0.00  0.00    -0.387 OA
ATOM     28  H   UNL     1       9.733   1.326  13.987  0.00  0.00    +0.210 HD
ENDBRANCH  18  27
BRANCH  20  29
ATOM     29  C   UNL     1       8.193  -3.207  12.766  0.00  0.00    +0.112 C 
BRANCH  29  30
ATOM     30  N   UNL     1       6.966  -3.286  13.566  0.00  0.00    -0.328 NA
ATOM     31  H   UNL     1       6.916  -4.206  14.007  0.00  0.00    +0.118 HD
ATOM     32  H   UNL     1       7.029  -2.627  14.346  0.00  0.00    +0.118 HD
ENDBRANCH  29  30
ENDBRANCH  20  29
ENDBRANCH  15  16
ENDBRANCH   2  15
BRANCH   1  33
ATOM     33  O   UNL     1       5.907  -1.873   8.573  0.00  0.00    -0.340 OA
BRANCH  33  36
ATOM     34  C   UNL     1       3.729  -4.284   8.977  0.00  0.00    +0.186 C 
ATOM     35  C   UNL     1       4.737  -3.578   9.908  0.00  0.00    +0.202 C 
ATOM     36  C   UNL     1       5.930  -3.250   8.990  0.00  0.00    +0.282 C 
ATOM     37  O   UNL     1       5.807  -4.122   7.867  0.00  0.00    -0.341 OA
ATOM     38  C   UNL     1       4.402  -4.261   7.603  0.00  0.00    +0.178 C 
BRANCH  35  39
ATOM     39  O   UNL     1       5.161  -4.414  10.999  0.00  0.00    -0.384 OA
ATOM     40  H   UNL     1       5.700  -3.856  11.600  0.00  0.00    +0.210 HD
ENDBRANCH  35  39
BRANCH  38  41
ATOM     41  C   UNL     1       3.866  -3.188   6.648  0.00  0.00    +0.190 C 
BRANCH  41  42
ATOM     42  O   UNL     1       2.502  -3.410   6.316  0.00  0.00    -0.392 OA
ATOM     43  H   UNL     1       2.463  -4.190   5.735  0.00  0.00    +0.210 HD
ENDBRANCH  41  42
ENDBRANCH  38  41
BRANCH  34  44
ATOM     44  O   UNL     1       3.569  -5.680   9.202  0.00  0.00    -0.341 OA
BRANCH  44  49
ATOM     45  C   UNL     1       0.795  -6.060  11.532  0.00  0.00    +0.166 C 
ATOM     46  C   UNL     1       0.622  -7.591  11.449  0.00  0.00    +0.175 C 
ATOM     47  C   UNL     1       2.004  -8.261  11.356  0.00  0.00    +0.167 C 
ATOM     48  C   UNL     1       2.845  -7.646  10.232  0.00  0.00    +0.139 C 
ATOM     49  C   UNL     1       2.845  -6.091  10.347  0.00  0.00    +0.270 C 
ATOM     50  O   UNL     1       1.513  -5.576  10.372  0.00  0.00    -0.343 OA
BRANCH  48  51
ATOM     51  N   UNL     1       2.351  -8.082   8.888  0.00  0.00    -0.321 NA
ATOM     52  H   UNL     1       1.425  -7.650   8.769  0.00  0.00    +0.119 HD
ATOM     53  H   UNL     1       2.925  -7.562   8.212  0.00  0.00    +0.119 HD
ENDBRANCH  48  51
BRANCH  47  54
ATOM     54  O   UNL     1       2.682  -8.193  12.620  0.00  0.00    -0.387 OA
ATOM     55  H   UNL     1       3.129  -7.338  12.723  0.00  0.00    +0.210 HD
ENDBRANCH  47  54
BRANCH  46  56
ATOM     56  O   UNL     1      -0.197  -7.921  10.318  0.00  0.00    -0.387 OA
ATOM     57  H   UNL     1      -0.028  -8.853  10.085  0.00  0.00    +0.210 HD
ENDBRANCH  46  56
BRANCH  45  58
ATOM     58  C   UNL     1      -0.575  -5.364  11.623  0.00  0.00    +0.112 C 
BRANCH  58  59
ATOM     59  N   UNL     1      -0.433  -3.935  11.931  0.00  0.00    -0.328 NA
ATOM     60  H   UNL     1       0.082  -3.503  11.160  0.00  0.00    +0.118 HD
ATOM     61  H   UNL     1      -1.357  -3.506  11.926  0.00  0.00    +0.118 HD
ENDBRANCH  58  59
ENDBRANCH  45  58
ENDBRANCH  44  49
ENDBRANCH  34  44
ENDBRANCH  33  36
ENDBRANCH   1  33
TORSDOF 22
