REMARK  Name = 
REMARK  10 active torsions:
REMARK  status: ('A' for Active; 'I' for Inactive)
REMARK    1  A    between atoms: N_1  and  C_2
REMARK    2  A    between atoms: C_2  and  C_3
REMARK    3  A    between atoms: C_3  and  C_4
REMARK    4  A    between atoms: C_4  and  O_5
REMARK    5  A    between atoms: C_4  and  P_6
REMARK    6  A    between atoms: C_4  and  P_10
REMARK    7  A    between atoms: P_6  and  O_7
REMARK    8  A    between atoms: P_6  and  O_8
REMARK    9  A    between atoms: P_10  and  O_11
REMARK   10  A    between atoms: P_10  and  O_12
REMARK                            x       y       z     vdW  Elec       q    Type
REMARK                         _______ _______ _______ _____ _____    ______ ____
ROOT
ATOM      1  C   UNL     1       4.487  -0.799   1.204  0.00  0.00    +0.268 C 
ENDROOT
BRANCH   1   2
ATOM      2  P   UNL     1       5.097  -1.849   2.573  0.00  0.00    +0.371 P 
ATOM      3  O   UNL     1       5.614  -2.737   3.731  0.00  0.00    -0.255 OA
BRANCH   2   4
ATOM      4  O   UNL     1       6.592  -1.922   1.858  0.00  0.00    -0.322 OA
ATOM      5  H   UNL     1       7.009  -2.694   2.315  0.00  0.00    +0.220 HD
ENDBRANCH   2   4
BRANCH   2   6
ATOM      6  O   UNL     1       4.524  -3.156   1.724  0.00  0.00    -0.322 OA
ATOM      7  H   UNL     1       4.634  -3.024   0.752  0.00  0.00    +0.220 HD
ENDBRANCH   2   6
ENDBRANCH   1   2
BRANCH   1   8
ATOM      8  P   UNL     1       5.378   0.805   1.156  0.00  0.00    +0.371 P 
ATOM      9  O   UNL     1       5.048   1.820   2.191  0.00  0.00    -0.255 OA
BRANCH   8  10
ATOM     10  O   UNL     1       5.189   1.288  -0.373  0.00  0.00    -0.322 OA
ATOM     11  H   UNL     1       5.661   2.139  -0.502  0.00  0.00    +0.220 HD
ENDBRANCH   8  10
BRANCH   8  12
ATOM     12  O   UNL     1       6.940   0.437   1.070  0.00  0.00    -0.322 OA
ATOM     13  H   UNL     1       7.133  -0.527   1.205  0.00  0.00    +0.220 HD
ENDBRANCH   8  12
ENDBRANCH   1   8
BRANCH   1  14
ATOM     14  O   UNL     1       4.772  -1.485  -0.072  0.00  0.00    -0.367 OA
ATOM     15  H   UNL     1       4.987  -0.768  -0.710  0.00  0.00    +0.212 HD
ENDBRANCH   1  14
BRANCH   1  16
ATOM     16  C   UNL     1       2.953  -0.690   1.330  0.00  0.00    +0.075 C 
BRANCH  16  17
ATOM     17  C   UNL     1       2.208  -0.022   0.182  0.00  0.00    +0.081 C 
BRANCH  17  18
ATOM     18  N   UNL     1       2.434   1.409   0.155  0.00  0.00    -0.330 NA
ATOM     19  H   UNL     1       3.307   1.618  -0.338  0.00  0.00    +0.118 HD
ATOM     20  H   UNL     1       1.703   1.853  -0.405  0.00  0.00    +0.118 HD
ENDBRANCH  17  18
ENDBRANCH  16  17
ENDBRANCH   1  16
TORSDOF 10
