REMARK  Name = 
REMARK  5 active torsions:
REMARK  status: ('A' for Active; 'I' for Inactive)
REMARK    1  A    between atoms: N_1  and  C_2
REMARK    2  A    between atoms: N_6  and  C1*_7
REMARK    3  A    between atoms: C3*_10  and  O3*_12
REMARK    4  A    between atoms: C4*_13  and  C5*_15
REMARK    5  A    between atoms: C5*_15  and  O5*_16
REMARK                            x       y       z     vdW  Elec       q    Type
REMARK                         _______ _______ _______ _____ _____    ______ ____
ROOT
ATOM      1  C   UNL     1       2.379  -0.128  -0.178  0.00  0.00    +0.149 A 
ATOM      2  N   UNL     1       3.036   1.009  -0.491  0.00  0.00    -0.201 NA
ATOM      3  C   UNL     1       4.379   0.951  -0.587  0.00  0.00    +0.226 A 
ATOM      4 CL   UNL     1       5.154   2.429  -0.967  0.00  0.00    -0.041 Cl
ATOM      5  N   UNL     1       5.203  -0.103  -0.420  0.00  0.00    -0.198 NA
ATOM      6  C   UNL     1       4.497  -1.207  -0.128  0.00  0.00    +0.169 A 
ATOM      7  N   UNL     1       4.975  -2.467   0.124  0.00  0.00    -0.288 N 
ATOM      8  C   UNL     1       3.891  -3.274   0.349  0.00  0.00    +0.203 A 
ATOM      9  N   UNL     1       2.756  -2.607   0.291  0.00  0.00    -0.231 NA
ATOM     10  C   UNL     1       3.121  -1.310   0.002  0.00  0.00    +0.147 A 
ENDROOT
BRANCH   7  11
ATOM     11  C1* UNL     1       6.376  -2.835   0.136  0.00  0.00    +0.225 C 
ATOM     12  O4* UNL     1       6.521  -4.241   0.437  0.00  0.00    -0.348 OA
ATOM     13  C4* UNL     1       7.770  -4.411   1.161  0.00  0.00    +0.175 C 
ATOM     14  C3* UNL     1       8.374  -3.021   1.358  0.00  0.00    +0.150 C 
ATOM     15  C2* UNL     1       7.189  -2.105   1.196  0.00  0.00    +0.088 C 
BRANCH  14  16
ATOM     16  O3* UNL     1       9.304  -2.752   0.307  0.00  0.00    -0.389 OA
ATOM     17  H3* UNL     1       9.733  -1.898   0.499  0.00  0.00    +0.210 HD
ENDBRANCH  14  16
BRANCH  13  18
ATOM     18  C5* UNL     1       7.444  -5.108   2.484  0.00  0.00    +0.190 C 
BRANCH  18  19
ATOM     19  O5* UNL     1       6.955  -6.425   2.233  0.00  0.00    -0.392 OA
ATOM     20  H5* UNL     1       6.398  -6.369   1.434  0.00  0.00    +0.210 HD
ENDBRANCH  18  19
ENDBRANCH  13  18
ENDBRANCH   7  11
BRANCH   1  21
ATOM     21  N   UNL     1       0.997  -0.076  -0.057  0.00  0.00    -0.341 N 
ATOM     22  H   UNL     1       0.588   0.715  -0.536  0.00  0.00    +0.144 HD
ATOM     23  H   UNL     1       0.540  -0.977  -0.152  0.00  0.00    +0.144 HD
ENDBRANCH   1  21
TORSDOF 5
