REMARK  Name = 
REMARK  5 active torsions:
REMARK  status: ('A' for Active; 'I' for Inactive)
REMARK    1  A    between atoms: C_1  and  C_2
REMARK    2  A    between atoms: C_2  and  C_4
REMARK    3  A    between atoms: C_2  and  C_9
REMARK    4  A    between atoms: C_10  and  C_11
REMARK    5  A    between atoms: C_12  and  C_13
REMARK                            x       y       z     vdW  Elec       q    Type
REMARK                         _______ _______ _______ _____ _____    ______ ____
ROOT
ATOM      1  C   UNL     1       3.571   1.203   0.023  0.00  0.00    +0.019 C 
ATOM      2  C   UNL     1       2.652  -0.024  -0.030  0.00  0.00    +0.066 C 
ENDROOT
BRANCH   2   3
ATOM      3  C   UNL     1       2.898  -1.081   1.050  0.00  0.00    -0.036 A 
ATOM      4  C   UNL     1       3.312  -0.683   2.338  0.00  0.00    +0.004 A 
ATOM      5  C   UNL     1       3.600  -1.615   3.330  0.00  0.00    +0.001 A 
ATOM      6  C   UNL     1       3.532  -2.971   3.042  0.00  0.00    +0.003 A 
ATOM      7  C   UNL     1       3.136  -3.415   1.771  0.00  0.00    -0.047 A 
ATOM      8  C   UNL     1       3.148  -4.902   1.530  0.00  0.00    +0.044 C 
ATOM      9  C   UNL     1       2.736  -2.471   0.791  0.00  0.00    -0.044 A 
ATOM     10  C   UNL     1       2.179  -2.964  -0.524  0.00  0.00    +0.044 C 
ENDBRANCH   2   3
BRANCH   2  11
ATOM     11  C   UNL     1       1.204   0.374   0.043  0.00  0.00    +0.066 A 
ATOM     12  N   UNL     1       0.530   0.683  -1.124  0.00  0.00    -0.240 NA
ATOM     13  C   UNL     1      -0.683   1.025  -0.758  0.00  0.00    +0.196 A 
ATOM     14  N   UNL     1      -0.834   0.952   0.595  0.00  0.00    -0.351 N 
ATOM     15  H   UNL     1      -1.677   1.162   1.112  0.00  0.00    +0.166 HD
ATOM     16  C   UNL     1       0.361   0.554   1.125  0.00  0.00    +0.107 A 
ENDBRANCH   2  11
TORSDOF 2
