REMARK  Name = 
REMARK  8 active torsions:
REMARK  status: ('A' for Active; 'I' for Inactive)
REMARK    1  A    between atoms: C_4  and  C_6
REMARK    2  A    between atoms: C_7  and  O_8
REMARK    3  A    between atoms: C_7  and  C_9
REMARK    4  A    between atoms: C_9  and  C_11
REMARK    5  A    between atoms: C_11  and  O_12
REMARK    6  A    between atoms: C_13  and  C_14
REMARK    7  A    between atoms: C_16  and  O_18
REMARK    8  A    between atoms: C_33  and  C_34
REMARK                            x       y       z     vdW  Elec       q    Type
REMARK                         _______ _______ _______ _____ _____    ______ ____
ROOT
ATOM      1  C   UNL     1      -0.000  -0.000  -0.000  0.00  0.00    +0.005 C 
ATOM      2  C   UNL     1      -0.000  -0.000   0.000  0.00  0.00    +0.037 C 
ATOM      3  C   UNL     1      -0.000  -0.000   0.000  0.00  0.00    +0.048 C 
ATOM      4  C   UNL     1      -0.000  -0.000   0.000  0.00  0.00    +0.194 C 
ATOM      5  F   UNL     1      -0.000  -0.000  -0.000  0.00  0.00    -0.241 F 
ATOM      6  C   UNL     1      -0.000  -0.000   0.000  0.00  0.00    -0.020 C 
ATOM      7  C   UNL     1      -0.000  -0.000   0.000  0.00  0.00    +0.047 C 
ATOM      8  C   UNL     1      -0.000  -0.000  -0.000  0.00  0.00    +0.023 C 
ATOM      9  C   UNL     1      -0.000  -0.000  -0.000  0.00  0.00    -0.009 C 
ATOM     10  C   UNL     1      -0.000  -0.000  -0.000  0.00  0.00    +0.047 C 
ATOM     11  C   UNL     1      -0.000  -0.000  -0.000  0.00  0.00    +0.179 C 
ATOM     12  O   UNL     1      -0.000  -0.000   0.000  0.00  0.00    -0.288 OA
ATOM     13  C   UNL     1      -0.000  -0.000   0.000  0.00  0.00    +0.054 C 
ATOM     14  C   UNL     1      -0.000  -0.000   0.000  0.00  0.00    +0.153 C 
ATOM     15  F   UNL     1      -0.000  -0.000  -0.000  0.00  0.00    -0.238 F 
ATOM     16  C   UNL     1      -0.000  -0.000  -0.000  0.00  0.00    +0.154 C 
ATOM     17  C   UNL     1      -0.000  -0.000   0.000  0.00  0.00    +0.044 C 
ATOM     18  C   UNL     1      -0.000  -0.000   0.000  0.00  0.00    +0.010 C 
ATOM     19  C   UNL     1      -0.000  -0.000   0.000  0.00  0.00    +0.015 C 
ATOM     20  C   UNL     1      -0.000  -0.000  -0.000  0.00  0.00    +0.134 C 
ATOM     21  C   UNL     1      -0.000  -0.000  -0.000  0.00  0.00    +0.026 C 
ATOM     22  C   UNL     1      -0.000  -0.000   0.000  0.00  0.00    +0.011 C 
ATOM     23  C   UNL     1      -0.000  -0.000  -0.000  0.00  0.00    +0.011 C 
ENDROOT
BRANCH  16  24
ATOM     24  O   UNL     1      -0.000  -0.000   0.000  0.00  0.00    -0.389 OA
ATOM     25  H   UNL     1       0.000   0.000   0.000  0.00  0.00    +0.210 HD
ENDBRANCH  16  24
BRANCH  20  26
ATOM     26  C   UNL     1      -0.000  -0.000   0.000  0.00  0.00    +0.190 C 
ATOM     27  O   UNL     1      -0.000  -0.000  -0.000  0.00  0.00    -0.292 OA
BRANCH  26  28
ATOM     28  C   UNL     1      -0.000  -0.000  -0.000  0.00  0.00    +0.233 C 
BRANCH  28  29
ATOM     29  O   UNL     1      -0.000  -0.000   0.000  0.00  0.00    -0.387 OA
ATOM     30  H   UNL     1      -0.000  -0.000   0.000  0.00  0.00    +0.210 HD
ENDBRANCH  28  29
ENDBRANCH  26  28
ENDBRANCH  20  26
BRANCH  20  31
ATOM     31  O   UNL     1      -0.000  -0.000  -0.000  0.00  0.00    -0.380 OA
ATOM     32  H   UNL     1       0.000   0.000   0.000  0.00  0.00    +0.211 HD
ENDBRANCH  20  31
TORSDOF 5
