REMARK  Name = 
REMARK  6 active torsions:
REMARK  status: ('A' for Active; 'I' for Inactive)
REMARK    1  A    between atoms: N_1  and  C_2
REMARK    2  A    between atoms: C_2  and  C_3
REMARK    3  A    between atoms: C_3  and  C_5
REMARK    4  A    between atoms: C_5  and  C_6
REMARK    5  A    between atoms: C_6  and  C_7
REMARK    6  A    between atoms: C_7  and  O_8
REMARK                            x       y       z     vdW  Elec       q    Type
REMARK                         _______ _______ _______ _____ _____    ______ ____
ROOT
ATOM      1  C   UNL     1       2.946   0.853   1.046  0.00  0.00    +0.147 C 
ATOM      2  O   UNL     1       2.271  -0.002   1.629  0.00  0.00    -0.296 OA
ENDROOT
BRANCH   1   3
ATOM      3  C   UNL     1       2.328   1.977   0.222  0.00  0.00    +0.152 C 
BRANCH   3   4
ATOM      4  N   UNL     1       1.097   1.514  -0.417  0.00  0.00    -0.324 NA
ATOM      5  H   UNL     1       0.525   1.032   0.282  0.00  0.00    +0.119 HD
ATOM      6  H   UNL     1       0.552   2.311  -0.739  0.00  0.00    +0.119 HD
ENDBRANCH   3   4
ENDBRANCH   1   3
BRANCH   1   7
ATOM      7  C   UNL     1       4.431   0.888   1.306  0.00  0.00    +0.087 C 
BRANCH   7   8
ATOM      8  C   UNL     1       4.729   1.706   2.548  0.00  0.00    +0.128 C 
BRANCH   8   9
ATOM      9  C   UNL     1       4.311   1.163   3.898  0.00  0.00    +0.305 C 
ATOM     10  O   UNL     1       4.659   1.720   4.932  0.00  0.00    -0.251 OA
BRANCH   9  11
ATOM     11  O   UNL     1       3.531   0.072   3.933  0.00  0.00    -0.481 OA
ATOM     12  H   UNL     1       3.126  -0.258   3.097  0.00  0.00    +0.295 HD
ENDBRANCH   9  11
ENDBRANCH   8   9
ENDBRANCH   7   8
ENDBRANCH   1   7
TORSDOF 6
