REMARK  Name = 
REMARK  8 active torsions:
REMARK  status: ('A' for Active; 'I' for Inactive)
REMARK    1  A    between atoms: C_1  and  C_2
REMARK    2  A    between atoms: C_2  and  C_3
REMARK    3  A    between atoms: C_3  and  C_4
REMARK    4  A    between atoms: C_4  and  N_5
REMARK    5  A    between atoms: C_10  and  C_11
REMARK    6  A    between atoms: N_13  and  C_14
REMARK    7  A    between atoms: C_15  and  C_16
REMARK    8  A    between atoms: C_20  and  C_21
REMARK                            x       y       z     vdW  Elec       q    Type
REMARK                         _______ _______ _______ _____ _____    ______ ____
ROOT
ATOM      1  C   UNL     1       5.675   4.986   0.696  0.00  0.00    +0.234 C 
ATOM      2  N   UNL     1       5.510   5.294   2.040  0.00  0.00    -0.284 N 
ATOM      3  H   UNL     1       5.419   4.468   2.619  0.00  0.00    +0.155 HD
ATOM      4  O   UNL     1       6.313   5.690  -0.091  0.00  0.00    -0.274 OA
ENDROOT
BRANCH   2   5
ATOM      5  C   UNL     1       6.059   6.475   2.611  0.00  0.00    +0.039 A 
ATOM      6  C   UNL     1       6.862   6.357   3.769  0.00  0.00    -0.029 A 
ATOM      7  C   UNL     1       7.257   5.019   4.334  0.00  0.00    +0.045 C 
ATOM      8  C   UNL     1       7.416   7.511   4.354  0.00  0.00    +0.005 A 
ATOM      9  C   UNL     1       7.188   8.768   3.809  0.00  0.00    +0.001 A 
ATOM     10  C   UNL     1       6.398   8.890   2.672  0.00  0.00    +0.005 A 
ATOM     11  C   UNL     1       5.812   7.760   2.069  0.00  0.00    -0.029 A 
ATOM     12  C   UNL     1       4.948   8.033   0.864  0.00  0.00    +0.045 C 
ENDBRANCH   2   5
BRANCH   1  14
ATOM     13  N   UNL     1       5.202   2.514   1.108  0.00  0.00    -0.291 NA
ATOM     14  C   UNL     1       4.937   3.700   0.222  0.00  0.00    +0.143 C 
ATOM     15  C   UNL     1       5.292   3.432  -1.254  0.00  0.00    +0.028 C 
ATOM     16  C   UNL     1       6.724   2.917  -1.418  0.00  0.00    +0.003 C 
ATOM     17  C   UNL     1       7.065   1.798  -0.439  0.00  0.00    +0.015 C 
ATOM     18  C   UNL     1       6.621   2.122   0.990  0.00  0.00    +0.085 C 
BRANCH  13  19
ATOM     19  C   UNL     1       4.286   1.401   0.726  0.00  0.00    +0.085 C 
BRANCH  19  20
ATOM     20  C   UNL     1       4.385   0.101   1.542  0.00  0.00    +0.015 C 
BRANCH  20  22
ATOM     21  C   UNL     1       4.059  -1.025   3.769  0.00  0.00    +0.004 C 
ATOM     22  C   UNL     1       3.989   0.287   3.002  0.00  0.00    -0.002 C 
ENDBRANCH  20  22
ENDBRANCH  19  20
ENDBRANCH  13  19
ENDBRANCH   1  14
TORSDOF 5
