REMARK  Name = 
REMARK  4 active torsions:
REMARK  status: ('A' for Active; 'I' for Inactive)
REMARK    1  A    between atoms: N_2  and  C_4
REMARK    2  A    between atoms: C_5  and  C_14
REMARK    3  A    between atoms: C_8  and  C_10
REMARK    4  A    between atoms: C_14  and  C_16
REMARK                            x       y       z     vdW  Elec       q    Type
REMARK                         _______ _______ _______ _____ _____    ______ ____
ROOT
ATOM      1  C   UNL     1       3.302   1.334   0.268  0.00  0.00    +0.284 A 
ATOM      2  C   UNL     1       4.688   1.350   0.040  0.00  0.00    +0.097 A 
ATOM      3  C   UNL     1       5.341   2.569  -0.185  0.00  0.00    +0.061 A 
ATOM      4  C   UNL     1       4.576   3.749  -0.193  0.00  0.00    +0.013 A 
ATOM      5  C   UNL     1       3.190   3.725   0.049  0.00  0.00    +0.019 A 
ATOM      6  C   UNL     1       2.537   2.512   0.296  0.00  0.00    +0.096 A 
ENDROOT
BRANCH   3   7
ATOM      7  C   UNL     1       6.837   2.589  -0.409  0.00  0.00    +0.418 C 
ATOM      8  F   UNL     1       7.208   1.820  -1.469  0.00  0.00    -0.166 F 
ATOM      9  F   UNL     1       7.525   2.109   0.663  0.00  0.00    -0.166 F 
ATOM     10  F   UNL     1       7.335   3.832  -0.651  0.00  0.00    -0.166 F 
ENDBRANCH   3   7
BRANCH   1  12
ATOM     11  O   UNL     1       1.753  -0.221  -0.402  0.00  0.00    -0.576 OA
ATOM     12  N   UNL     1       2.667   0.034   0.398  0.00  0.00    +0.080 N 
ATOM     13  O   UNL     1       3.143  -0.749   1.232  0.00  0.00    +0.041 OA
ENDBRANCH   1  12
BRANCH   6  14
ATOM     14  C   UNL     1       1.126   2.478   0.774  0.00  0.00    +0.187 C 
ATOM     15  O   UNL     1       0.865   1.642   1.634  0.00  0.00    -0.291 OA
BRANCH  14  16
ATOM     16  C   UNL     1       0.083   3.461   0.289  0.00  0.00    +0.192 C 
ATOM     17  C   UNL     1      -1.147   3.400   1.166  0.00  0.00    +0.151 C 
ATOM     18  O   UNL     1      -1.372   4.251   2.025  0.00  0.00    -0.296 OA
ATOM     19  C   UNL     1      -2.087   2.247   0.916  0.00  0.00    +0.076 C 
ATOM     20  C   UNL     1      -2.611   2.411  -0.497  0.00  0.00    +0.015 C 
ATOM     21  C   UNL     1      -1.478   2.391  -1.521  0.00  0.00    +0.076 C 
ATOM     22  C   UNL     1      -0.291   3.276  -1.162  0.00  0.00    +0.151 C 
ATOM     23  O   UNL     1       0.438   3.730  -2.049  0.00  0.00    -0.296 OA
ENDBRANCH  14  16
ENDBRANCH   6  14
TORSDOF 4
