REMARK  Name = 
REMARK  1 active torsions:
REMARK  status: ('A' for Active; 'I' for Inactive)
REMARK    1  A    between atoms: C_9  and  C_10
REMARK                            x       y       z     vdW  Elec       q    Type
REMARK                         _______ _______ _______ _____ _____    ______ ____
ROOT
ATOM      1  N   UNL     1      -1.613   1.062   0.001  0.00  0.00    -0.337 N 
ATOM      2  H   UNL     1      -1.995   1.996   0.002  0.00  0.00    +0.167 HD
ATOM      3  C   UNL     1      -2.366  -0.082   0.002  0.00  0.00    +0.158 A 
ATOM      4  N   UNL     1      -1.606  -1.158   0.000  0.00  0.00    -0.226 NA
ATOM      5  C   UNL     1      -0.316  -0.687  -0.001  0.00  0.00    +0.090 A 
ATOM      6  C   UNL     1       0.894  -1.395  -0.003  0.00  0.00    +0.030 A 
ATOM      7  C   UNL     1       2.095  -0.673  -0.003  0.00  0.00    +0.002 A 
ATOM      8  C   UNL     1       2.089   0.724  -0.003  0.00  0.00    +0.002 A 
ATOM      9  C   UNL     1       0.891   1.449  -0.002  0.00  0.00    +0.028 A 
ATOM     10  C   UNL     1      -0.290   0.705  -0.001  0.00  0.00    +0.067 A 
ENDROOT
BRANCH   3  11
ATOM     11  C   UNL     1      -3.854  -0.073   0.006  0.00  0.00    +0.113 A 
ATOM     12  N   UNL     1      -4.569   1.114   0.009  0.00  0.00    -0.244 NA
ATOM     13  C   UNL     1      -5.854   0.833   0.013  0.00  0.00    +0.156 A 
ATOM     14  S   UNL     1      -6.273  -0.832   0.013  0.00  0.00    -0.083 S 
ATOM     15  C   UNL     1      -4.606  -1.229   0.007  0.00  0.00    +0.078 A 
ENDBRANCH   3  11
TORSDOF 1
