REMARK  Name = 
REMARK  6 active torsions:
REMARK  status: ('A' for Active; 'I' for Inactive)
REMARK    1  A    between atoms: C_2  and  C_4
REMARK    2  A    between atoms: N_6  and  C1*_9
REMARK    3  A    between atoms: C4*_12  and  C5*_14
REMARK    4  A    between atoms: C5*_14  and  O5*_15
REMARK    5  A    between atoms: C3*_16  and  O3*_18
REMARK    6  A    between atoms: C2*_19  and  O2*_21
REMARK                            x       y       z     vdW  Elec       q    Type
REMARK                         _______ _______ _______ _____ _____    ______ ____
ROOT
ATOM      1  C1* UNL     1       5.296  -0.437   4.221  0.00  0.00    +0.270 C 
ATOM      2  C2* UNL     1       4.897  -1.510   5.237  0.00  0.00    +0.196 C 
ATOM      3  C3* UNL     1       4.800  -0.772   6.574  0.00  0.00    +0.178 C 
ATOM      4  C4* UNL     1       5.208   0.672   6.280  0.00  0.00    +0.177 C 
ATOM      5  O4* UNL     1       5.111   0.849   4.852  0.00  0.00    -0.344 OA
ENDROOT
BRANCH   1   9
ATOM      6  C   UNL     1       8.662  -1.065   3.497  0.00  0.00    +0.236 A 
ATOM      7  N   UNL     1       8.470  -0.024   2.599  0.00  0.00    -0.211 NA
ATOM      8  C   UNL     1       7.211   0.300   2.776  0.00  0.00    +0.223 A 
ATOM      9  N   UNL     1       6.657  -0.502   3.723  0.00  0.00    -0.220 N 
ATOM     10  N   UNL     1       7.570  -1.358   4.226  0.00  0.00    -0.142 NA
BRANCH   6  14
ATOM     11  N   UNL     1      10.946  -1.270   2.830  0.00  0.00    -0.323 N 
ATOM     12  H   UNL     1      10.757  -0.480   2.227  0.00  0.00    +0.145 HD
ATOM     13  H   UNL     1      11.862  -1.693   2.867  0.00  0.00    +0.145 HD
ATOM     14  C   UNL     1       9.954  -1.770   3.632  0.00  0.00    +0.281 C 
ATOM     15  O   UNL     1      10.167  -2.720   4.382  0.00  0.00    -0.267 OA
ENDBRANCH   6  14
ENDBRANCH   1   9
BRANCH   2  16
ATOM     16  O2* UNL     1       3.619  -2.063   4.861  0.00  0.00    -0.385 OA
ATOM     17  H2* UNL     1       3.038  -1.947   5.641  0.00  0.00    +0.210 HD
ENDBRANCH   2  16
BRANCH   3  18
ATOM     18  O3* UNL     1       3.441  -0.858   7.047  0.00  0.00    -0.386 OA
ATOM     19  H3* UNL     1       2.964  -0.044   6.792  0.00  0.00    +0.210 HD
ENDBRANCH   3  18
BRANCH   4  20
ATOM     20  C5* UNL     1       6.627   1.015   6.749  0.00  0.00    +0.190 C 
BRANCH  20  21
ATOM     21  O5* UNL     1       6.927   2.370   6.416  0.00  0.00    -0.392 OA
ATOM     22  H5* UNL     1       6.843   2.448   5.448  0.00  0.00    +0.210 HD
ENDBRANCH  20  21
ENDBRANCH   4  20
TORSDOF 6
