REMARK  Name = 
REMARK  2 active torsions:
REMARK  status: ('A' for Active; 'I' for Inactive)
REMARK    1  A    between atoms: C_1  and  C_2
REMARK    2  A    between atoms: C_9  and  C_13
REMARK                            x       y       z     vdW  Elec       q    Type
REMARK                         _______ _______ _______ _____ _____    ______ ____
ROOT
ATOM      1  C   UNL     1       0.851  -0.064  -0.056  0.00  0.00    +0.047 C 
ATOM      2  C   UNL     1       2.343   0.027   0.013  0.00  0.00    -0.008 A 
ATOM      3  C   UNL     1       3.124  -1.256   0.109  0.00  0.00    +0.143 A 
ATOM      4  N   UNL     1       4.501  -1.147   0.278  0.00  0.00    -0.267 N 
ATOM      5  C   UNL     1       5.281  -2.285   0.482  0.00  0.00    +0.269 A 
ATOM      6  C   UNL     1       4.593  -3.590   0.286  0.00  0.00    +0.105 A 
ATOM      7  C   UNL     1       3.266  -3.531   0.099  0.00  0.00    +0.130 A 
ATOM      8  O   UNL     1       6.459  -2.235   0.841  0.00  0.00    -0.266 OA
ATOM      9  C   UNL     1       5.123   0.097   0.299  0.00  0.00    +0.096 A 
ATOM     10  C   UNL     1       4.437   1.233   0.147  0.00  0.00    +0.019 A 
ATOM     11  N   UNL     1       2.505  -2.396   0.039  0.00  0.00    -0.236 NA
ATOM     12  C   UNL     1       3.008   1.194   0.012  0.00  0.00    +0.008 A 
ENDROOT
BRANCH   6  13
ATOM     13  C   UNL     1       5.336  -4.808   0.312  0.00  0.00    +0.211 A 
ATOM     14  N   UNL     1       6.660  -4.835  -0.058  0.00  0.00    -0.108 NA
ATOM     15  N   UNL     1       7.062  -6.094   0.030  0.00  0.00    -0.049 NA
ATOM     16  N   UNL     1       5.980  -6.764   0.434  0.00  0.00    -0.176 N 
ATOM     17  H   UNL     1       6.007  -7.766   0.601  0.00  0.00    +0.214 HD
ATOM     18  N   UNL     1       4.863  -6.037   0.597  0.00  0.00    -0.133 NA
ENDBRANCH   6  13
TORSDOF 1
