REMARK  Name = 
REMARK  8 active torsions:
REMARK  status: ('A' for Active; 'I' for Inactive)
REMARK    1  A    between atoms: N_1  and  CA_2
REMARK    2  A    between atoms: CA_2  and  C_4
REMARK    3  A    between atoms: CA_2  and  C_22
REMARK    4  A    between atoms: C_4  and  C_5
REMARK    5  A    between atoms: C_9  and  O_10
REMARK    6  A    between atoms: O_10  and  C_11
REMARK    7  A    between atoms: C_15  and  O_16
REMARK    8  A    between atoms: C_22  and  O_23
REMARK                            x       y       z     vdW  Elec       q    Type
REMARK                         _______ _______ _______ _____ _____    ______ ____
ROOT
ATOM      1  C   UNL     1       2.658   2.168  -1.200  0.00  0.00    -0.043 A 
ATOM      2  C   UNL     1       3.132   3.483  -1.251  0.00  0.00    +0.021 A 
ATOM      3  C   UNL     1       2.958   4.277  -2.400  0.00  0.00    +0.057 A 
ATOM      4  I   UNL     1       4.071   6.074  -2.387  0.00  0.00    -0.040 I 
ATOM      5  C   UNL     1       2.212   3.795  -3.489  0.00  0.00    +0.155 A 
ATOM      6  C   UNL     1       1.756   2.462  -3.433  0.00  0.00    +0.057 A 
ATOM      7  I   UNL     1       0.783   1.548  -5.066  0.00  0.00    -0.040 I 
ATOM      8  C   UNL     1       1.980   1.656  -2.307  0.00  0.00    +0.021 A 
ENDROOT
BRANCH   1   9
ATOM      9  C   UNL     1       2.928   1.304   0.012  0.00  0.00    +0.065 C 
BRANCH   9  10
ATOM     10  CA  UNL     1       4.376   0.785   0.078  0.00  0.00    +0.165 C 
BRANCH  10  11
ATOM     11  N   UNL     1       4.737  -0.129  -1.046  0.00  0.00    -0.318 NA
ATOM     12  H1  UNL     1       3.957  -0.776  -1.206  0.00  0.00    +0.119 HD
ATOM     13  H2  UNL     1       4.768   0.431  -1.906  0.00  0.00    +0.119 HD
ENDBRANCH  10  11
BRANCH  10  14
ATOM     14  C   UNL     1       4.614   0.029   1.396  0.00  0.00    +0.322 C 
ATOM     15  OXT UNL     1       4.143   0.321   2.482  0.00  0.00    -0.249 OA
BRANCH  14  16
ATOM     16  O   UNL     1       5.453  -1.023   1.210  0.00  0.00    -0.480 OA
ATOM     17  H   UNL     1       5.664  -1.039   0.245  0.00  0.00    +0.295 HD
ENDBRANCH  14  16
ENDBRANCH  10  14
ENDBRANCH   9  10
ENDBRANCH   1   9
BRANCH   5  18
ATOM     18  O   UNL     1       2.026   4.437  -4.691  0.00  0.00    -0.454 OA
BRANCH  18  19
ATOM     19  C   UNL     1       1.581   5.734  -4.778  0.00  0.00    +0.130 A 
ATOM     20  C   UNL     1       1.915   6.368  -5.981  0.00  0.00    +0.050 A 
ATOM     21  C   UNL     1       1.645   7.722  -6.169  0.00  0.00    +0.050 A 
ATOM     22  C   UNL     1       1.040   8.445  -5.149  0.00  0.00    +0.130 A 
ATOM     23  C   UNL     1       0.638   7.807  -3.970  0.00  0.00    +0.058 A 
ATOM     24  I   UNL     1      -0.230   8.881  -2.408  0.00  0.00    -0.040 I 
ATOM     25  C   UNL     1       0.871   6.432  -3.801  0.00  0.00    +0.064 A 
BRANCH  22  26
ATOM     26  O   UNL     1       0.891   9.787  -5.358  0.00  0.00    -0.506 OA
ATOM     27  H   UNL     1       0.550  10.177  -4.533  0.00  0.00    +0.292 HD
ENDBRANCH  22  26
ENDBRANCH  18  19
ENDBRANCH   5  18
TORSDOF 8
