REMARK  Name = 
REMARK  9 active torsions:
REMARK  status: ('A' for Active; 'I' for Inactive)
REMARK    1  A    between atoms: C_1  and  C_2
REMARK    2  A    between atoms: C_2  and  C_3
REMARK    3  A    between atoms: C_2  and  C_4
REMARK    4  A    between atoms: C_4  and  C_5
REMARK    5  A    between atoms: C_5  and  C_7
REMARK    6  A    between atoms: C_5  and  C_9
REMARK    7  A    between atoms: C_7  and  N_8
REMARK    8  A    between atoms: C_9  and  C_10
REMARK    9  A    between atoms: C_10  and  O_11
REMARK                            x       y       z     vdW  Elec       q    Type
REMARK                         _______ _______ _______ _____ _____    ______ ____
ROOT
ATOM      1  C   UNL     1       4.393  -0.946  -1.593  0.00  0.00    +0.013 C 
ENDROOT
BRANCH   1   2
ATOM      2  C   UNL     1       5.207   0.362  -1.391  0.00  0.00    +0.008 C 
BRANCH   2   4
ATOM      3  C   UNL     1       3.985   1.706  -3.201  0.00  0.00    +0.007 C 
ATOM      4  C   UNL     1       5.336   1.310  -2.602  0.00  0.00    -0.017 C 
ATOM      5  C   UNL     1       6.078   2.591  -2.196  0.00  0.00    +0.007 C 
ENDBRANCH   2   4
ENDBRANCH   1   2
BRANCH   1   6
ATOM      6  C   UNL     1       5.029  -1.976  -2.547  0.00  0.00    +0.125 C 
BRANCH   6   7
ATOM      7  C   UNL     1       5.133  -1.571  -4.003  0.00  0.00    +0.305 C 
ATOM      8  O   UNL     1       4.215  -1.124  -4.664  0.00  0.00    -0.251 OA
BRANCH   7   9
ATOM      9  O   UNL     1       6.354  -1.804  -4.533  0.00  0.00    -0.481 OA
ATOM     10  H   UNL     1       6.989  -2.225  -3.918  0.00  0.00    +0.295 HD
ENDBRANCH   7   9
ENDBRANCH   6   7
ENDBRANCH   1   6
BRANCH   1  11
ATOM     11  C   UNL     1       4.206  -1.604  -0.199  0.00  0.00    +0.081 C 
BRANCH  11  12
ATOM     12  N   UNL     1       3.235  -2.691  -0.246  0.00  0.00    -0.330 NA
ATOM     13  H   UNL     1       2.980  -2.957   0.705  0.00  0.00    +0.118 HD
ATOM     14  H   UNL     1       2.372  -2.360  -0.680  0.00  0.00    +0.118 HD
ENDBRANCH  11  12
ENDBRANCH   1  11
TORSDOF 7
