REMARK  Name = 
REMARK  6 active torsions:
REMARK  status: ('A' for Active; 'I' for Inactive)
REMARK    1  A    between atoms: C_1  and  C_2
REMARK    2  A    between atoms: C_2  and  N_3
REMARK    3  A    between atoms: C_5  and  C_6
REMARK    4  A    between atoms: C_6  and  O_7
REMARK    5  A    between atoms: C_15  and  N_18
REMARK    6  A    between atoms: N_21  and  C_22
REMARK                            x       y       z     vdW  Elec       q    Type
REMARK                         _______ _______ _______ _____ _____    ______ ____
ROOT
ATOM      1  N   UNL     1       3.098  -0.615   1.356  0.00  0.00    -0.346 N 
ATOM      2  C   UNL     1       2.910  -2.005   1.541  0.00  0.00    +0.055 A 
ATOM      3  C   UNL     1       3.257  -2.600   2.765  0.00  0.00    +0.049 A 
ATOM      4  C   UNL     1       3.055  -3.963   2.992  0.00  0.00    +0.054 A 
ATOM      5  C   UNL     1       2.468  -4.748   2.001  0.00  0.00    +0.145 A 
ATOM      6  C   UNL     1       2.096  -4.222   0.752  0.00  0.00    +0.067 A 
ATOM      7  F   UNL     1       2.233  -6.033   2.307  0.00  0.00    -0.204 F 
ATOM      8  C   UNL     1       3.824  -1.764   3.849  0.00  0.00    +0.203 A 
ATOM      9  O   UNL     1       4.180  -2.249   4.921  0.00  0.00    -0.286 OA
ATOM     10  C   UNL     1       3.933  -0.310   3.624  0.00  0.00    +0.122 A 
ATOM     11  C   UNL     1       2.374  -2.852   0.555  0.00  0.00    +0.052 A 
ATOM     12  C   UNL     1       3.566   0.146   2.418  0.00  0.00    +0.105 A 
ENDROOT
BRANCH   6  13
ATOM     13  N   UNL     1       1.522  -4.961  -0.270  0.00  0.00    -0.325 N 
ATOM     14  C   UNL     1       1.595  -6.430  -0.336  0.00  0.00    +0.120 C 
ATOM     15  C   UNL     1       1.879  -6.868  -1.799  0.00  0.00    +0.103 C 
ATOM     16  N   UNL     1       0.990  -6.297  -2.840  0.00  0.00    -0.302 NA
ATOM     17  C   UNL     1      -0.331  -6.918  -2.812  0.00  0.00    +0.105 C 
ATOM     18  C   UNL     1       0.904  -4.831  -2.654  0.00  0.00    +0.103 C 
ATOM     19  C   UNL     1       0.553  -4.380  -1.217  0.00  0.00    +0.120 C 
ENDBRANCH   6  13
BRANCH   1  21
ATOM     20  C   UNL     1       1.117   0.279   0.171  0.00  0.00    +0.027 C 
ATOM     21  C   UNL     1       2.621   0.036   0.119  0.00  0.00    +0.118 C 
ENDBRANCH   1  21
BRANCH  10  22
ATOM     22  C   UNL     1       4.395   0.649   4.648  0.00  0.00    +0.342 C 
ATOM     23  O   UNL     1       4.455   1.856   4.458  0.00  0.00    -0.245 OA
BRANCH  22  24
ATOM     24  O   UNL     1       4.733   0.087   5.827  0.00  0.00    -0.477 OA
ATOM     25  H   UNL     1       4.644  -0.898   5.844  0.00  0.00    +0.295 HD
ENDBRANCH  22  24
ENDBRANCH  10  22
TORSDOF 4
