REMARK  Name = 
REMARK  7 active torsions:
REMARK  status: ('A' for Active; 'I' for Inactive)
REMARK    1  A    between atoms: C_1  and  C_2
REMARK    2  A    between atoms: C_2  and  O_3
REMARK    3  A    between atoms: O_3  and  C_4
REMARK    4  A    between atoms: N_6  and  C_7
REMARK    5  A    between atoms: C_19  and  C_21
REMARK    6  A    between atoms: C_21  and  C_22
REMARK    7  A    between atoms: C_22  and  N_23
REMARK                            x       y       z     vdW  Elec       q    Type
REMARK                         _______ _______ _______ _____ _____    ______ ____
ROOT
ATOM      1  C   UNL     1       6.070   1.898   2.629  0.00  0.00    +0.038 A 
ATOM      2  C   UNL     1       6.551   3.161   2.869  0.00  0.00    +0.024 A 
ATOM      3  C   UNL     1       7.901   3.307   3.157  0.00  0.00    +0.019 A 
ATOM      4  C   UNL     1       8.750   2.186   3.304  0.00  0.00    +0.035 A 
ATOM      5  S   UNL     1      10.406   2.614   3.704  0.00  0.00    -0.086 S 
ATOM      6  C   UNL     1      11.182   1.034   3.672  0.00  0.00    +0.035 A 
ATOM      7  C   UNL     1      10.510  -0.202   3.626  0.00  0.00    +0.055 A 
ATOM      8  N   UNL     1       9.040  -0.340   3.508  0.00  0.00    -0.238 N 
ATOM      9  C   UNL     1       8.304  -1.560   3.753  0.00  0.00    +0.225 C 
ATOM     10  O   UNL     1       7.177  -1.847   3.344  0.00  0.00    -0.275 OA
ATOM     11  C   UNL     1      11.379  -1.318   3.640  0.00  0.00    +0.025 A 
ATOM     12  C   UNL     1      12.774  -1.240   3.795  0.00  0.00    +0.002 A 
ATOM     13  C   UNL     1      13.390  -0.010   3.835  0.00  0.00    +0.001 A 
ATOM     14  C   UNL     1      12.596   1.119   3.749  0.00  0.00    +0.017 A 
ATOM     15  C   UNL     1       8.266   0.875   3.178  0.00  0.00    +0.057 A 
ATOM     16  C   UNL     1       6.921   0.793   2.768  0.00  0.00    +0.048 A 
ENDROOT
BRANCH   1  18
ATOM     17  C   UNL     1       4.205   0.697   1.563  0.00  0.00    +0.405 C 
ATOM     18  N   UNL     1       4.716   1.729   2.301  0.00  0.00    -0.251 N 
ATOM     19  H   UNL     1       4.068   2.485   2.467  0.00  0.00    +0.158 HD
ATOM     20  O   UNL     1       4.840  -0.130   0.922  0.00  0.00    -0.226 OA
BRANCH  17  21
ATOM     21  O   UNL     1       2.854   0.809   1.539  0.00  0.00    -0.450 OA
BRANCH  21  23
ATOM     22  C   UNL     1       2.120   1.038  -0.692  0.00  0.00    +0.048 C 
ATOM     23  C   UNL     1       2.224   0.082   0.478  0.00  0.00    +0.230 C 
ENDBRANCH  21  23
ENDBRANCH  17  21
ENDBRANCH   1  18
BRANCH   9  24
ATOM     24  C   UNL     1       8.973  -2.633   4.584  0.00  0.00    +0.112 C 
BRANCH  24  25
ATOM     25  C   UNL     1       8.063  -3.636   5.309  0.00  0.00    +0.094 C 
BRANCH  25  26
ATOM     26  N   UNL     1       8.914  -4.580   6.072  0.00  0.00    -0.298 NA
ATOM     27  C   UNL     1       9.863  -5.347   5.237  0.00  0.00    +0.112 C 
ATOM     28  C   UNL     1       9.155  -6.364   4.335  0.00  0.00    +0.175 C 
ATOM     29  O   UNL     1       8.521  -7.353   5.156  0.00  0.00    -0.377 OA
ATOM     30  C   UNL     1       7.570  -6.756   6.044  0.00  0.00    +0.175 C 
ATOM     31  C   UNL     1       8.132  -5.563   6.852  0.00  0.00    +0.112 C 
ENDBRANCH  25  26
ENDBRANCH  24  25
ENDBRANCH   9  24
TORSDOF 6
