REMARK  Name = 
REMARK  32 active torsions:
REMARK  status: ('A' for Active; 'I' for Inactive)
REMARK    1  A    between atoms: C_1  and  C_2
REMARK    2  A    between atoms: C_2  and  C_3
REMARK    3  A    between atoms: C_8  and  C_10
REMARK    4  A    between atoms: C_11  and  O_13
REMARK    5  A    between atoms: O_13  and  C_14
REMARK    6  A    between atoms: C_17  and  C_18
REMARK    7  A    between atoms: C_17  and  O_19
REMARK    8  A    between atoms: O_19  and  C_20
REMARK    9  A    between atoms: C_21  and  O_23
REMARK   10  A    between atoms: C_24  and  C_26
REMARK   11  A    between atoms: C_28  and  C_30
REMARK   12  A    between atoms: C_31  and  O_33
REMARK   13  A    between atoms: O_33  and  C_34
REMARK   14  A    between atoms: C_37  and  C_39
REMARK   15  A    between atoms: C_41  and  N_46
REMARK   16  A    between atoms: C_43  and  O_45
REMARK   17  A    between atoms: N_46  and  C_47
REMARK   18  A    between atoms: N_46  and  C_48
REMARK   19  A    between atoms: C_49  and  C_50
REMARK   20  A    between atoms: C_49  and  O_51
REMARK   21  A    between atoms: C_53  and  C_55
REMARK   22  A    between atoms: N_57  and  O_58
REMARK   23  A    between atoms: O_58  and  C_59
REMARK   24  A    between atoms: C_59  and  O_60
REMARK   25  A    between atoms: O_60  and  C_61
REMARK   26  A    between atoms: C_61  and  C_62
REMARK   27  A    between atoms: C_62  and  O_63
REMARK   28  A    between atoms: O_63  and  C_64
REMARK   29  A    between atoms: C_65  and  C_67
REMARK   30  A    between atoms: C_68  and  O_70
REMARK   31  A    between atoms: C_71  and  C_72
REMARK   32  A    between atoms: C_71  and  O_73
REMARK                            x       y       z     vdW  Elec       q    Type
REMARK                         _______ _______ _______ _____ _____    ______ ____
ROOT
ATOM      1  C   UNL     1       1.650 -11.076  -2.176  0.00  0.00    +0.210 C 
ATOM      2  C   UNL     1       0.129 -11.652  -2.302  0.00  0.00    +0.126 C 
ATOM      3  C   UNL     1      -0.012 -12.958  -1.496  0.00  0.00    +0.048 C 
ATOM      4  C   UNL     1      -0.556 -11.935  -3.682  0.00  0.00    +0.158 C 
ATOM      5  C   UNL     1      -2.027 -11.310  -3.914  0.00  0.00    +0.065 C 
ATOM      6  C   UNL     1      -3.080 -11.975  -3.032  0.00  0.00    +0.016 C 
ATOM      7  C   UNL     1      -2.131  -9.738  -3.946  0.00  0.00    +0.066 C 
ATOM      8  N   UNL     1      -1.523  -9.140  -4.939  0.00  0.00    -0.091 NA
ATOM      9  C   UNL     1      -3.041  -8.845  -2.698  0.00  0.00    +0.037 C 
ATOM     10  C   UNL     1      -4.572  -9.114  -2.872  0.00  0.00    +0.014 C 
ATOM     11  C   UNL     1      -3.071  -7.224  -2.195  0.00  0.00    +0.046 C 
ATOM     12  C   UNL     1      -2.307  -6.612  -0.958  0.00  0.00    +0.090 C 
ATOM     13  C   UNL     1      -3.227  -5.458  -0.397  0.00  0.00    +0.044 C 
ATOM     14  C   UNL     1      -0.851  -5.902  -1.061  0.00  0.00    +0.158 C 
ATOM     15  C   UNL     1       0.162  -6.054   0.235  0.00  0.00    +0.047 C 
ATOM     16  C   UNL     1      -0.463  -6.200   1.657  0.00  0.00    +0.013 C 
ATOM     17  C   UNL     1       1.570  -6.888   0.204  0.00  0.00    +0.140 C 
ATOM     18  C   UNL     1       1.484  -8.488   0.285  0.00  0.00    +0.124 C 
ATOM     19  C   UNL     1       0.085  -8.968   0.065  0.00  0.00    +0.022 C 
ATOM     20  C   UNL     1       2.476  -9.492  -0.329  0.00  0.00    +0.313 C 
ATOM     21  O   UNL     1       3.686  -9.445  -0.063  0.00  0.00    -0.250 OA
ATOM     22  O   UNL     1       1.908 -10.685  -0.749  0.00  0.00    -0.458 OA
ENDROOT
BRANCH   1  24
ATOM     23  C   UNL     1       3.554  -9.618  -3.174  0.00  0.00    +0.007 C 
ATOM     24  C   UNL     1       2.048  -9.915  -3.097  0.00  0.00    +0.044 C 
ENDBRANCH   1  24
BRANCH  12  25
ATOM     25  O   UNL     1      -2.381  -7.646   0.020  0.00  0.00    -0.386 OA
ATOM     26  H   UNL     1      -2.667  -7.286   0.876  0.00  0.00    +0.210 HD
ENDBRANCH  12  25
BRANCH   4  27
ATOM     27  O   UNL     1       0.349 -11.749  -4.768  0.00  0.00    -0.388 OA
ATOM     28  H   UNL     1       0.087 -10.925  -5.220  0.00  0.00    +0.210 HD
ENDBRANCH   4  27
BRANCH   2  29
ATOM     29  O   UNL     1      -0.757 -10.737  -1.684  0.00  0.00    -0.383 OA
ATOM     30  H   UNL     1      -0.601  -9.893  -2.141  0.00  0.00    +0.210 HD
ENDBRANCH   2  29
BRANCH  14  31
ATOM     31  O   UNL     1      -0.067  -5.901  -2.244  0.00  0.00    -0.342 OA
BRANCH  31  32
ATOM     32  C   UNL     1      -0.434  -5.531  -3.604  0.00  0.00    +0.281 C 
ATOM     33  C   UNL     1      -0.979  -6.734  -4.386  0.00  0.00    +0.187 C 
ATOM     34  C   UNL     1      -1.740  -6.518  -5.844  0.00  0.00    +0.092 C 
ATOM     35  C   UNL     1      -2.200  -5.072  -5.966  0.00  0.00    +0.053 C 
ATOM     36  C   UNL     1      -1.032  -4.247  -5.411  0.00  0.00    +0.120 C 
ATOM     37  C   UNL     1      -1.019  -2.847  -6.000  0.00  0.00    +0.038 C 
ATOM     38  O   UNL     1      -1.077  -4.304  -3.967  0.00  0.00    -0.346 OA
BRANCH  34  39
ATOM     39  N   UNL     1      -2.841  -7.448  -6.315  0.00  0.00    -0.303 NA
ATOM     40  C   UNL     1      -3.119  -7.667  -7.734  0.00  0.00    +0.105 C 
ATOM     41  C   UNL     1      -4.129  -7.383  -5.644  0.00  0.00    +0.105 C 
ENDBRANCH  34  39
BRANCH  33  42
ATOM     42  O   UNL     1       0.191  -7.592  -4.268  0.00  0.00    -0.385 OA
ATOM     43  H   UNL     1       0.031  -8.411  -4.735  0.00  0.00    +0.210 HD
ENDBRANCH  33  42
ENDBRANCH  31  32
ENDBRANCH  14  31
BRANCH  17  44
ATOM     44  O   UNL     1       2.704  -6.238  -0.475  0.00  0.00    -0.347 OA
BRANCH  44  45
ATOM     45  C   UNL     1       2.935  -4.821  -0.135  0.00  0.00    +0.254 C 
ATOM     46  O   UNL     1       4.085  -4.158  -0.725  0.00  0.00    -0.346 OA
ATOM     47  C   UNL     1       5.169  -3.626   0.077  0.00  0.00    +0.149 C 
ATOM     48  C   UNL     1       5.555  -2.215  -0.408  0.00  0.00    +0.041 C 
ATOM     49  C   UNL     1       4.996  -3.505   1.616  0.00  0.00    +0.175 C 
ATOM     50  C   UNL     1       4.130  -4.641   2.129  0.00  0.00    +0.099 C 
ATOM     51  C   UNL     1       3.828  -4.478   3.627  0.00  0.00    +0.044 C 
ATOM     52  C   UNL     1       2.829  -4.504   1.353  0.00  0.00    +0.098 C 
BRANCH  50  53
ATOM     53  O   UNL     1       4.968  -5.780   1.912  0.00  0.00    -0.374 OA
ATOM     54  C   UNL     1       4.497  -7.078   2.175  0.00  0.00    +0.194 C 
ENDBRANCH  50  53
BRANCH  49  55
ATOM     55  O   UNL     1       6.284  -3.544   2.254  0.00  0.00    -0.386 OA
ATOM     56  H   UNL     1       6.521  -4.497   2.252  0.00  0.00    +0.210 HD
ENDBRANCH  49  55
ENDBRANCH  44  45
ENDBRANCH  17  44
BRANCH   8  57
ATOM     57  O   UNL     1      -0.856  -9.914  -5.944  0.00  0.00    -0.365 OA
BRANCH  57  58
ATOM     58  C   UNL     1      -0.101  -9.103  -6.898  0.00  0.00    +0.426 C 
BRANCH  58  59
ATOM     59  O   UNL     1       1.202  -9.602  -7.197  0.00  0.00    -0.340 OA
BRANCH  59  60
ATOM     60  C   UNL     1       1.261 -10.290  -8.442  0.00  0.00    +0.192 C 
BRANCH  60  61
ATOM     61  C   UNL     1       2.699 -10.320  -8.939  0.00  0.00    +0.187 C 
BRANCH  61  62
ATOM     62  O   UNL     1       2.812 -11.307  -9.970  0.00  0.00    -0.381 OA
ATOM     63  C   UNL     1       4.162 -11.461 -10.403  0.00  0.00    +0.194 C 
ENDBRANCH  61  62
ENDBRANCH  60  61
ENDBRANCH  59  60
ENDBRANCH  58  59
ENDBRANCH  57  58
ENDBRANCH   8  57
TORSDOF 18
