REMARK  Name = 
REMARK  4 active torsions:
REMARK  status: ('A' for Active; 'I' for Inactive)
REMARK    1  A    between atoms: C_1  and  C_2
REMARK    2  A    between atoms: C_2  and  C_3
REMARK    3  A    between atoms: C_7  and  C_9
REMARK    4  A    between atoms: C_9  and  N_10
REMARK                            x       y       z     vdW  Elec       q    Type
REMARK                         _______ _______ _______ _____ _____    ______ ____
ROOT
ATOM      1  C   UNL     1       2.925  -0.830  -1.188  0.00  0.00    +0.042 A 
ATOM      2  C   UNL     1       2.786  -2.214  -1.196  0.00  0.00    +0.033 A 
ATOM      3  C   UNL     1       3.052  -2.911  -2.378  0.00  0.00    +0.006 A 
ATOM      4  C   UNL     1       3.452  -2.199  -3.509  0.00  0.00    +0.030 A 
ATOM      5  C   UNL     1       3.570  -0.825  -3.408  0.00  0.00    +0.111 A 
ATOM      6  N   UNL     1       3.317  -0.132  -2.279  0.00  0.00    -0.260 NA
ENDROOT
BRANCH   1   8
ATOM      7  C   UNL     1       1.062   0.255   0.065  0.00  0.00    +0.010 C 
ATOM      8  C   UNL     1       2.556  -0.033   0.034  0.00  0.00    +0.052 C 
ENDBRANCH   1   8
BRANCH   3   9
ATOM      9  C   UNL     1       2.870  -4.388  -2.426  0.00  0.00    +0.077 C 
ATOM     10  S   UNL     1       2.346  -5.257  -3.755  0.00  0.00    -0.035 S 
BRANCH   9  11
ATOM     11  N   UNL     1       3.155  -5.084  -1.278  0.00  0.00    -0.352 N 
ATOM     12  H   UNL     1       3.066  -6.095  -1.296  0.00  0.00    +0.143 HD
ATOM     13  H   UNL     1       3.580  -4.672  -0.459  0.00  0.00    +0.143 HD
ENDBRANCH   9  11
ENDBRANCH   3   9
TORSDOF 3
