REMARK  Name = 
REMARK  6 active torsions:
REMARK  status: ('A' for Active; 'I' for Inactive)
REMARK    1  A    between atoms: O_1  and  C_2
REMARK    2  A    between atoms: C_2  and  C_3
REMARK    3  A    between atoms: C_2  and  C_10
REMARK    4  A    between atoms: C_2  and  C_16
REMARK    5  A    between atoms: C_3  and  C_4
REMARK    6  A    between atoms: C_4  and  N_5
REMARK                            x       y       z     vdW  Elec       q    Type
REMARK                         _______ _______ _______ _____ _____    ______ ____
ROOT
ATOM      1  C   UNL     1       2.389  -0.053   0.207  0.00  0.00    +0.095 C 
ENDROOT
BRANCH   1   2
ATOM      2  C   UNL     1       2.946   0.125   1.636  0.00  0.00    -0.016 A 
ATOM      3  C   UNL     1       4.330   0.099   1.893  0.00  0.00    +0.006 A 
ATOM      4  C   UNL     1       4.829   0.265   3.191  0.00  0.00    +0.000 A 
ATOM      5  C   UNL     1       3.959   0.460   4.260  0.00  0.00    +0.000 A 
ATOM      6  C   UNL     1       2.588   0.484   4.033  0.00  0.00    +0.000 A 
ATOM      7  C   UNL     1       2.089   0.315   2.737  0.00  0.00    +0.006 A 
ENDBRANCH   1   2
BRANCH   1   8
ATOM      8  C   UNL     1       2.897   1.096  -0.762  0.00  0.00    +0.025 C 
ATOM      9  C   UNL     1       2.637   2.538  -0.265  0.00  0.00    +0.007 C 
ATOM     10  C   UNL     1       1.208   3.028  -0.479  0.00  0.00    +0.000 C 
ATOM     11  C   UNL     1       0.785   2.913  -1.938  0.00  0.00    +0.000 C 
ATOM     12  C   UNL     1       0.989   1.506  -2.481  0.00  0.00    +0.000 C 
ATOM     13  C   UNL     1       2.409   1.000  -2.233  0.00  0.00    +0.007 C 
ENDBRANCH   1   8
BRANCH   1  14
ATOM     14  O   UNL     1       0.960  -0.021   0.270  0.00  0.00    -0.384 OA
ATOM     15  H   UNL     1       0.617  -0.483  -0.510  0.00  0.00    +0.211 HD
ENDBRANCH   1  14
BRANCH   1  16
ATOM     16  C   UNL     1       2.816  -1.439  -0.364  0.00  0.00    +0.055 C 
BRANCH  16  17
ATOM     17  C   UNL     1       2.381  -2.662   0.461  0.00  0.00    +0.087 C 
BRANCH  17  18
ATOM     18  N   UNL     1       2.770  -3.921  -0.201  0.00  0.00    -0.302 NA
ATOM     19  C   UNL     1       2.318  -5.096   0.556  0.00  0.00    +0.084 C 
ATOM     20  C   UNL     1       3.335  -6.196   0.265  0.00  0.00    +0.017 C 
ATOM     21  C   UNL     1       4.365  -5.557  -0.648  0.00  0.00    +0.017 C 
ATOM     22  C   UNL     1       4.217  -4.075  -0.370  0.00  0.00    +0.084 C 
ENDBRANCH  17  18
ENDBRANCH  16  17
ENDBRANCH   1  16
TORSDOF 6
