REMARK  Name = 
REMARK  9 active torsions:
REMARK  status: ('A' for Active; 'I' for Inactive)
REMARK    1  A    between atoms: C_1  and  C_2
REMARK    2  A    between atoms: C_2  and  N_3
REMARK    3  A    between atoms: C_7  and  C_8
REMARK    4  A    between atoms: C_8  and  N_9
REMARK    5  A    between atoms: C_10  and  C_12
REMARK    6  A    between atoms: C_13  and  O_14
REMARK    7  A    between atoms: O_14  and  C_15
REMARK    8  A    between atoms: C_18  and  S_20
REMARK    9  A    between atoms: S_20  and  N_21
REMARK                            x       y       z     vdW  Elec       q    Type
REMARK                         _______ _______ _______ _____ _____    ______ ____
ROOT
ATOM      1  C   UNL     1      -0.334  -0.838  -4.375  0.00  0.00    +0.080 A 
ATOM      2  C   UNL     1       0.121   0.465  -4.101  0.00  0.00    +0.045 A 
ATOM      3  C   UNL     1      -0.516   1.565  -4.687  0.00  0.00    +0.106 A 
ATOM      4  C   UNL     1      -1.583   1.386  -5.567  0.00  0.00    +0.032 A 
ATOM      5  C   UNL     1      -2.032   0.096  -5.850  0.00  0.00    +0.048 A 
ATOM      6  C   UNL     1      -1.411  -1.020  -5.269  0.00  0.00    +0.132 A 
ENDROOT
BRANCH   1   9
ATOM      7  N   UNL     1       0.906  -1.837  -2.514  0.00  0.00    -0.310 N 
ATOM      8  H   UNL     1       0.802  -0.966  -2.016  0.00  0.00    +0.149 HD
ATOM      9  C   UNL     1       0.378  -2.014  -3.779  0.00  0.00    +0.248 C 
ATOM     10  O   UNL     1       0.500  -3.061  -4.406  0.00  0.00    -0.270 OA
BRANCH   7  11
ATOM     11  C   UNL     1       1.657  -2.876  -1.828  0.00  0.00    +0.123 C 
BRANCH  11  13
ATOM     12  N   UNL     1       0.985  -2.256   0.534  0.00  0.00    -0.298 NA
ATOM     13  C   UNL     1       1.013  -3.330  -0.497  0.00  0.00    +0.074 C 
ATOM     14  C   UNL     1       1.850  -4.465   0.121  0.00  0.00    +0.022 C 
ATOM     15  C   UNL     1       2.360  -3.915   1.438  0.00  0.00    +0.017 C 
ATOM     16  C   UNL     1       1.301  -2.905   1.816  0.00  0.00    +0.085 C 
BRANCH  12  18
ATOM     17  C   UNL     1      -0.283  -0.377   1.556  0.00  0.00    +0.020 C 
ATOM     18  C   UNL     1      -0.307  -1.558   0.590  0.00  0.00    +0.081 C 
ENDBRANCH  12  18
ENDBRANCH  11  13
ENDBRANCH   7  11
ENDBRANCH   1   9
BRANCH   3  19
ATOM     19  S   UNL     1       0.073   3.204  -4.372  0.00  0.00    +0.056 S 
ATOM     20  O   UNL     1      -0.258   4.049  -5.495  0.00  0.00    -0.153 OA
ATOM     21  O   UNL     1       1.401   3.126  -3.815  0.00  0.00    -0.153 OA
BRANCH  19  22
ATOM     22  N   UNL     1      -0.924   3.691  -3.112  0.00  0.00    -0.204 NA
ATOM     23  H   UNL     1      -1.492   4.486  -3.409  0.00  0.00    +0.144 HD
ATOM     24  H   UNL     1      -0.362   3.882  -2.282  0.00  0.00    +0.144 HD
ENDBRANCH  19  22
ENDBRANCH   3  19
BRANCH   6  25
ATOM     25  O   UNL     1      -1.886  -2.289  -5.478  0.00  0.00    -0.494 OA
ATOM     26  C   UNL     1      -2.350  -2.563  -6.798  0.00  0.00    +0.277 C 
ENDBRANCH   6  25
TORSDOF 7
