REMARK  Name = 
REMARK  7 active torsions:
REMARK  status: ('A' for Active; 'I' for Inactive)
REMARK    1  A    between atoms: C_1  and  O_2
REMARK    2  A    between atoms: O_2  and  C_3
REMARK    3  A    between atoms: C_3  and  C_5
REMARK    4  A    between atoms: C_5  and  C_6
REMARK    5  A    between atoms: C_6  and  C_7
REMARK    6  A    between atoms: C_7  and  C_9
REMARK    7  A    between atoms: C_9  and  N_10
REMARK                            x       y       z     vdW  Elec       q    Type
REMARK                         _______ _______ _______ _____ _____    ______ ____
ROOT
ATOM      1  C   UNL     1       5.211  -1.380  -2.350  0.00  0.00    +0.087 C 
ENDROOT
BRANCH   1   2
ATOM      2  C   UNL     1       6.723  -1.310  -2.350  0.00  0.00    +0.147 C 
ATOM      3  O   UNL     1       7.354  -0.721  -1.469  0.00  0.00    -0.296 OA
BRANCH   2   4
ATOM      4  C   UNL     1       7.419  -1.945  -3.555  0.00  0.00    +0.152 C 
BRANCH   4   5
ATOM      5  N   UNL     1       8.727  -2.476  -3.164  0.00  0.00    -0.324 NA
ATOM      6  H   UNL     1       9.300  -2.622  -3.993  0.00  0.00    +0.119 HD
ATOM      7  H   UNL     1       9.203  -1.769  -2.598  0.00  0.00    +0.119 HD
ENDBRANCH   4   5
ENDBRANCH   2   4
ENDBRANCH   1   2
BRANCH   1   8
ATOM      8  C   UNL     1       4.597  -0.675  -1.146  0.00  0.00    +0.128 C 
BRANCH   8   9
ATOM      9  C   UNL     1       3.093  -0.751  -1.189  0.00  0.00    +0.307 C 
ATOM     10  O   UNL     1       2.442  -1.297  -2.070  0.00  0.00    -0.251 OA
BRANCH   9  12
ATOM     11  C   UNL     1       1.140  -0.132  -0.057  0.00  0.00    +0.280 C 
ATOM     12  O   UNL     1       2.567  -0.117  -0.105  0.00  0.00    -0.468 OA
ENDBRANCH   9  12
ENDBRANCH   8   9
ENDBRANCH   1   8
TORSDOF 6
