REMARK  Name = 
REMARK  12 active torsions:
REMARK  status: ('A' for Active; 'I' for Inactive)
REMARK    1  A    between atoms: C_10  and  C_11
REMARK    2  A    between atoms: C_10  and  C_12
REMARK    3  A    between atoms: C_16  and  C_21
REMARK    4  A    between atoms: C_18  and  O_19
REMARK    5  A    between atoms: C_21  and  C_22
REMARK    6  A    between atoms: C_21  and  C_23
REMARK    7  A    between atoms: C_21  and  C_24
REMARK    8  A    between atoms: C_24  and  C_25
REMARK    9  A    between atoms: C_25  and  C_26
REMARK   10  A    between atoms: C_26  and  C_27
REMARK   11  A    between atoms: C_27  and  C_28
REMARK   12  A    between atoms: C_28  and  C_29
REMARK                            x       y       z     vdW  Elec       q    Type
REMARK                         _______ _______ _______ _____ _____    ______ ____
ROOT
ATOM      1  C   UNL     1       2.091   0.167   0.056  0.00  0.00    +0.040 C 
ATOM      2  C   UNL     1       2.543   0.133  -1.397  0.00  0.00    +0.040 A 
ATOM      3  C   UNL     1       2.875  -1.092  -1.992  0.00  0.00    +0.128 A 
ATOM      4  C   UNL     1       3.364  -1.158  -3.306  0.00  0.00    +0.050 A 
ATOM      5  C   UNL     1       3.499  -0.014  -4.104  0.00  0.00    -0.035 A 
ATOM      6  C   UNL     1       3.095   1.202  -3.531  0.00  0.00    +0.050 A 
ATOM      7  O   UNL     1       2.769  -2.315  -1.378  0.00  0.00    -0.486 OA
ATOM      8  C   UNL     1       2.096  -2.356  -0.105  0.00  0.00    +0.108 C 
ATOM      9  C   UNL     1       0.577  -2.439  -0.351  0.00  0.00    +0.055 C 
ATOM     10  C   UNL     1       2.532  -3.687   0.534  0.00  0.00    +0.055 C 
ATOM     11  C   UNL     1       2.619   1.267  -2.215  0.00  0.00    +0.124 A 
ATOM     12  C   UNL     1       2.559  -1.144   0.745  0.00  0.00    +0.041 C 
ATOM     13  C   UNL     1       2.149  -1.206   2.226  0.00  0.00    +0.015 C 
ATOM     14  C   UNL     1       2.653   0.002   2.999  0.00  0.00    +0.075 C 
ATOM     15  C   UNL     1       2.183   1.252   2.313  0.00  0.00    +0.134 C 
ATOM     16  O   UNL     1       1.590   2.139   2.922  0.00  0.00    -0.297 OA
ATOM     17  C   UNL     1       2.564   1.391   0.860  0.00  0.00    +0.083 C 
ENDROOT
BRANCH   5  18
ATOM     18  C   UNL     1       4.027  -0.054  -5.557  0.00  0.00    -0.010 C 
ATOM     19  C   UNL     1       2.912   0.465  -6.495  0.00  0.00    +0.016 C 
ATOM     20  C   UNL     1       4.378  -1.489  -6.018  0.00  0.00    +0.016 C 
BRANCH  18  21
ATOM     21  C   UNL     1       5.303   0.848  -5.662  0.00  0.00    +0.011 C 
BRANCH  21  22
ATOM     22  C   UNL     1       5.928   0.938  -7.062  0.00  0.00    +0.001 C 
BRANCH  22  23
ATOM     23  C   UNL     1       7.161   1.845  -7.096  0.00  0.00    +0.000 C 
BRANCH  23  24
ATOM     24  C   UNL     1       7.737   1.891  -8.514  0.00  0.00    -0.000 C 
BRANCH  24  25
ATOM     25  C   UNL     1       8.980   2.773  -8.600  0.00  0.00    -0.003 C 
ATOM     26  C   UNL     1       9.535   2.795 -10.016  0.00  0.00    +0.004 C 
ENDBRANCH  24  25
ENDBRANCH  23  24
ENDBRANCH  22  23
ENDBRANCH  21  22
ENDBRANCH  18  21
ENDBRANCH   5  18
BRANCH  11  27
ATOM     27  O   UNL     1       2.201   2.478  -1.741  0.00  0.00    -0.506 OA
ATOM     28  H   UNL     1       2.314   3.153  -2.429  0.00  0.00    +0.292 HD
ENDBRANCH  11  27
TORSDOF 7
