REMARK  Name = 
REMARK  9 active torsions:
REMARK  status: ('A' for Active; 'I' for Inactive)
REMARK    1  A    between atoms: C_1  and  C_2
REMARK    2  A    between atoms: C_2  and  C_3
REMARK    3  A    between atoms: C_3  and  C_4
REMARK    4  A    between atoms: N_6  and  C_7
REMARK    5  A    between atoms: C_7  and  C_8
REMARK    6  A    between atoms: C_9  and  C_25
REMARK    7  A    between atoms: C_18  and  C_22
REMARK    8  A    between atoms: C_22  and  O_23
REMARK    9  A    between atoms: C_25  and  O_26
REMARK                            x       y       z     vdW  Elec       q    Type
REMARK                         _______ _______ _______ _____ _____    ______ ____
ROOT
ATOM      1  C   UNL     1       4.531  -0.617   1.227  0.00  0.00    +0.020 A 
ATOM      2  C   UNL     1       5.330  -1.688   0.682  0.00  0.00    +0.145 A 
ATOM      3  O   UNL     1       4.667  -2.766   0.115  0.00  0.00    -0.448 OA
ATOM      4  C   UNL     1       5.394  -3.822  -0.405  0.00  0.00    +0.215 A 
ATOM      5  C   UNL     1       6.730  -3.890  -0.423  0.00  0.00    +0.105 A 
ATOM      6  C   UNL     1       7.493  -2.776   0.142  0.00  0.00    +0.193 A 
ATOM      7  O   UNL     1       8.715  -2.791   0.146  0.00  0.00    -0.287 OA
ATOM      8  C   UNL     1       6.717  -1.659   0.703  0.00  0.00    +0.065 A 
ATOM      9  C   UNL     1       7.363  -0.562   1.240  0.00  0.00    +0.029 A 
ATOM     10  C   UNL     1       6.618   0.509   1.768  0.00  0.00    +0.046 A 
ATOM     11  C   UNL     1       7.429   1.626   2.272  0.00  0.00    +0.190 A 
ATOM     12  O   UNL     1       8.653   1.622   2.257  0.00  0.00    -0.287 OA
ATOM     13  C   UNL     1       6.738   2.784   2.815  0.00  0.00    +0.084 A 
ATOM     14  C   UNL     1       5.405   2.777   2.922  0.00  0.00    +0.131 A 
ATOM     15  N   UNL     1       4.570   1.731   2.429  0.00  0.00    -0.335 N 
ATOM     16  C   UNL     1       5.189   0.542   1.810  0.00  0.00    +0.060 A 
ENDROOT
BRANCH   4  17
ATOM     17  C   UNL     1       4.641  -4.969  -0.984  0.00  0.00    +0.373 C 
ATOM     18  O   UNL     1       5.154  -5.963  -1.467  0.00  0.00    -0.242 OA
BRANCH  17  19
ATOM     19  O   UNL     1       3.304  -4.787  -0.913  0.00  0.00    -0.475 OA
ATOM     20  H   UNL     1       3.056  -3.937  -0.501  0.00  0.00    +0.296 HD
ENDBRANCH  17  19
ENDBRANCH   4  17
BRANCH  14  21
ATOM     21  C   UNL     1       4.935   4.098   3.512  0.00  0.00    +0.354 C 
ATOM     22  O   UNL     1       3.986   4.737   3.102  0.00  0.00    -0.243 OA
BRANCH  21  23
ATOM     23  O   UNL     1       5.694   4.582   4.529  0.00  0.00    -0.476 OA
ATOM     24  H   UNL     1       6.450   4.051   4.837  0.00  0.00    +0.295 HD
ENDBRANCH  21  23
ENDBRANCH  14  21
BRANCH  15  25
ATOM     25  C   UNL     1       3.103   1.636   2.558  0.00  0.00    +0.119 C 
ATOM     26  C   UNL     1       2.216   2.724   3.111  0.00  0.00    +0.027 C 
ENDBRANCH  15  25
BRANCH   1  27
ATOM     27  C   UNL     1       3.032  -0.864   1.029  0.00  0.00    +0.041 C 
BRANCH  27  29
ATOM     28  C   UNL     1       1.043  -0.635  -0.505  0.00  0.00    +0.004 C 
ATOM     29  C   UNL     1       2.535  -0.385  -0.342  0.00  0.00    +0.001 C 
ENDBRANCH  27  29
ENDBRANCH   1  27
TORSDOF 7
