REMARK  Name = 
REMARK  2 active torsions:
REMARK  status: ('A' for Active; 'I' for Inactive)
REMARK    1  A    between atoms: C_7  and  C_8
REMARK    2  A    between atoms: C_20  and  O_21
REMARK                            x       y       z     vdW  Elec       q    Type
REMARK                         _______ _______ _______ _____ _____    ______ ____
ROOT
ATOM      1  C   UNL     1      -0.000  -0.094   0.000  0.00  0.00    +0.006 C 
ATOM      2  C   UNL     1      -0.000  -0.094   0.000  0.00  0.00    +0.001 C 
ATOM      3  C   UNL     1      -0.000  -0.094   0.000  0.00  0.00    +0.023 C 
ATOM      4  C   UNL     1      -0.000  -0.094   0.000  0.00  0.00    -0.041 A 
ATOM      5  C   UNL     1       0.000  -0.094  -0.000  0.00  0.00    +0.008 A 
ATOM      6  C   UNL     1      -0.000   2.074  -0.000  0.00  0.00    +0.046 A 
ATOM      7  C   UNL     1      -0.000  -0.094   0.000  0.00  0.00    +0.117 A 
ATOM      8  C   UNL     1      -0.000  -0.094   0.000  0.00  0.00    +0.049 A 
ATOM      9  C   UNL     1      -0.000  -0.094   0.000  0.00  0.00    -0.040 A 
ATOM     10  C   UNL     1      -0.000  -0.094   0.000  0.00  0.00    +0.036 C 
ATOM     11  C   UNL     1      -0.000  -0.094   0.000  0.00  0.00    +0.009 C 
ATOM     12  C   UNL     1      -0.000  -0.094   0.000  0.00  0.00    +0.015 C 
ATOM     13  C   UNL     1      -0.000  -0.094   0.000  0.00  0.00    +0.009 C 
ATOM     14  C   UNL     1      -0.000  -0.094   0.000  0.00  0.00    +0.029 C 
ATOM     15  C   UNL     1      -0.000  -0.094   0.000  0.00  0.00    +0.019 C 
ATOM     16  C   UNL     1      -0.000  -0.094   0.000  0.00  0.00    +0.139 C 
ATOM     17  O   UNL     1      -0.000  -0.094   0.000  0.00  0.00    -0.297 OA
ATOM     18  C   UNL     1      -0.000  -0.094   0.000  0.00  0.00    +0.075 C 
ATOM     19  C   UNL     1      -0.000  -0.094   0.000  0.00  0.00    +0.012 C 
ENDROOT
BRANCH   7  20
ATOM     20  O   UNL     1      -0.000  -0.094   0.000  0.00  0.00    -0.507 OA
ATOM     21  H   UNL     1       0.000   0.000   0.000  0.00  0.00    +0.292 HD
ENDBRANCH   7  20
TORSDOF 1
