REMARK  Name = 
REMARK  43 active torsions:
REMARK  status: ('A' for Active; 'I' for Inactive)
REMARK    1  A    between atoms: C_1  and  C_2
REMARK    2  A    between atoms: C_2  and  C_3
REMARK    3  A    between atoms: C_3  and  C_5
REMARK    4  A    between atoms: C_3  and  C_6
REMARK    5  A    between atoms: C_6  and  N_8
REMARK    6  A    between atoms: C_6  and  C_9
REMARK    7  A    between atoms: C_11  and  C_15
REMARK    8  A    between atoms: N_17  and  C_18
REMARK    9  A    between atoms: C_18  and  C_20
REMARK   10  A    between atoms: C_18  and  C_24
REMARK   11  A    between atoms: C_20  and  C_21
REMARK   12  A    between atoms: C_21  and  C_22
REMARK   13  A    between atoms: C_21  and  C_23
REMARK   14  A    between atoms: N_26  and  C_27
REMARK   15  A    between atoms: C_27  and  C_29
REMARK   16  A    between atoms: C_27  and  C_34
REMARK   17  A    between atoms: C_29  and  C_30
REMARK   18  A    between atoms: C_30  and  C_31
REMARK   19  A    between atoms: C_31  and  O_32
REMARK   20  A    between atoms: N_36  and  C_37
REMARK   21  A    between atoms: C_37  and  C_39
REMARK   22  A    between atoms: C_37  and  C_44
REMARK   23  A    between atoms: C_39  and  C_41
REMARK   24  A    between atoms: C_39  and  C_42
REMARK   25  A    between atoms: C_42  and  C_43
REMARK   26  A    between atoms: N_46  and  C_47
REMARK   27  A    between atoms: C_56  and  C_58
REMARK   28  A    between atoms: C_58  and  C_59
REMARK   29  A    between atoms: C_65  and  C_67
REMARK   30  A    between atoms: C_67  and  C_68
REMARK   31  A    between atoms: C_68  and  O_69
REMARK   32  A    between atoms: C_74  and  C_76
REMARK   33  A    between atoms: C_76  and  C_77
REMARK   34  A    between atoms: C_85  and  C_87
REMARK   35  A    between atoms: C_87  and  C_88
REMARK   36  A    between atoms: C_97  and  C_111
REMARK   37  A    between atoms: C_102  and  C_104
REMARK   38  A    between atoms: C_104  and  C_105
REMARK   39  A    between atoms: C_105  and  C_106
REMARK   40  A    between atoms: C_106  and  N_107
REMARK   41  A    between atoms: C_111  and  C_113
REMARK   42  A    between atoms: C_111  and  C_114
REMARK   43  A    between atoms: C_114  and  C_115
REMARK                            x       y       z     vdW  Elec       q    Type
REMARK                         _______ _______ _______ _____ _____    ______ ____
ROOT
ATOM      1  C   UNL     1      23.178  20.201  -3.814  0.00  0.00    +0.159 C 
ATOM      2  C   UNL     1      25.128  21.925  -3.592  0.00  0.00    +0.234 C 
ATOM      3  O   UNL     1      24.236  22.861  -3.581  0.00  0.00    -0.274 OA
ATOM      4  N   UNL     1      27.008  23.329  -3.323  0.00  0.00    -0.302 N 
ATOM      5  H   UNL     1      27.015  23.268  -2.307  0.00  0.00    +0.150 HD
ATOM      6  C   UNL     1      28.877  24.981  -3.110  0.00  0.00    +0.159 C 
ATOM      7  C   UNL     1      30.096  26.887  -2.457  0.00  0.00    +0.234 C 
ATOM      8  O   UNL     1      30.903  26.812  -1.325  0.00  0.00    -0.274 OA
ATOM      9  N   UNL     1      31.064  28.730  -2.576  0.00  0.00    -0.302 N 
ATOM     10  H   UNL     1      31.811  28.778  -3.275  0.00  0.00    +0.150 HD
ATOM     11  C   UNL     1      32.268  30.487  -2.041  0.00  0.00    +0.162 C 
ATOM     12  C   UNL     1      31.202  31.410  -1.654  0.00  0.00    +0.234 C 
ATOM     13  O   UNL     1      30.782  32.512  -1.947  0.00  0.00    -0.274 OA
ATOM     14  N   UNL     1      30.656  30.432  -0.948  0.00  0.00    -0.302 N 
ATOM     15  H   UNL     1      31.190  29.541  -0.893  0.00  0.00    +0.150 HD
ATOM     16  C   UNL     1      29.391  30.232  -1.512  0.00  0.00    +0.163 C 
ATOM     17  C   UNL     1      29.078  28.811  -1.232  0.00  0.00    +0.234 C 
ATOM     18  O   UNL     1      29.728  28.267  -0.345  0.00  0.00    -0.274 OA
ATOM     19  N   UNL     1      28.055  28.142  -1.782  0.00  0.00    -0.302 N 
ATOM     20  H   UNL     1      27.347  28.676  -2.268  0.00  0.00    +0.150 HD
ATOM     21  C   UNL     1      27.733  26.816  -1.224  0.00  0.00    +0.165 C 
ATOM     22  C   UNL     1      26.355  26.537  -1.730  0.00  0.00    +0.234 C 
ATOM     23  O   UNL     1      25.845  27.123  -2.683  0.00  0.00    -0.274 OA
ATOM     24  N   UNL     1      25.819  25.466  -1.131  0.00  0.00    -0.302 N 
ATOM     25  H   UNL     1      26.426  24.891  -0.570  0.00  0.00    +0.150 HD
ATOM     26  C   UNL     1      24.640  24.759  -1.516  0.00  0.00    +0.169 C 
ATOM     27  C   UNL     1      24.849  23.249  -1.143  0.00  0.00    +0.234 C 
ATOM     28  O   UNL     1      25.903  22.684  -0.909  0.00  0.00    -0.274 OA
ATOM     29  N   UNL     1      23.702  22.553  -1.157  0.00  0.00    -0.302 N 
ATOM     30  H   UNL     1      22.967  23.053  -1.674  0.00  0.00    +0.150 HD
ATOM     31  C   UNL     1      23.434  21.126  -1.064  0.00  0.00    +0.168 C 
ATOM     32  C   UNL     1      22.024  21.262  -1.497  0.00  0.00    +0.234 C 
ATOM     33  O   UNL     1      21.758  22.223  -2.235  0.00  0.00    -0.274 OA
ATOM     34  N   UNL     1      21.234  20.184  -1.190  0.00  0.00    -0.314 N 
ATOM     35  H   UNL     1      21.821  19.415  -0.899  0.00  0.00    +0.149 HD
ATOM     36  C   UNL     1      19.924  19.508  -2.069  0.00  0.00    +0.104 C 
ATOM     37  C   UNL     1      20.626  18.030  -1.318  0.00  0.00    +0.019 C 
ATOM     38  C   UNL     1      19.774  18.645  -2.538  0.00  0.00    +0.004 C 
ATOM     39  C   UNL     1      21.774  18.776  -2.978  0.00  0.00    +0.032 C 
ENDROOT
BRANCH   1  41
ATOM     40  C   UNL     1      19.754  17.208  -4.505  0.00  0.00    +0.234 C 
ATOM     41  N   UNL     1      21.267  18.754  -4.307  0.00  0.00    -0.302 N 
ATOM     42  H   UNL     1      20.374  19.245  -4.579  0.00  0.00    +0.150 HD
ATOM     43  O   UNL     1      20.129  15.978  -4.046  0.00  0.00    -0.274 OA
BRANCH  40  44
ATOM     44  C   UNL     1      17.633  15.926  -4.296  0.00  0.00    +0.162 C 
BRANCH  44  46
ATOM     45  C   UNL     1      15.506  12.532  -3.460  0.00  0.00    +0.234 C 
ATOM     46  N   UNL     1      16.703  14.007  -4.001  0.00  0.00    -0.302 N 
ATOM     47  H   UNL     1      15.593  13.827  -4.590  0.00  0.00    +0.150 HD
ATOM     48  O   UNL     1      14.318  12.267  -4.004  0.00  0.00    -0.274 OA
BRANCH  45  49
ATOM     49  C   UNL     1      15.334  10.946  -2.252  0.00  0.00    +0.159 C 
BRANCH  49  51
ATOM     50  C   UNL     1      15.378  12.326  -0.340  0.00  0.00    +0.234 C 
ATOM     51  N   UNL     1      15.157  11.088  -0.799  0.00  0.00    -0.302 N 
ATOM     52  H   UNL     1      14.933  10.312  -0.175  0.00  0.00    +0.150 HD
ATOM     53  O   UNL     1      15.626  13.175  -1.171  0.00  0.00    -0.274 OA
BRANCH  50  54
ATOM     54  C   UNL     1      15.387  12.647   1.135  0.00  0.00    +0.159 C 
BRANCH  54  56
ATOM     55  C   UNL     1      17.040  14.463   0.952  0.00  0.00    +0.239 C 
ATOM     56  N   UNL     1      15.780  14.014   1.322  0.00  0.00    -0.302 N 
ATOM     57  H   UNL     1      15.123  14.610   1.792  0.00  0.00    +0.150 HD
ATOM     58  O   UNL     1      17.817  13.851   0.225  0.00  0.00    -0.273 OA
BRANCH  55  62
ATOM     59  C   UNL     1      17.965  17.242   0.319  0.00  0.00    +0.087 C 
ATOM     60  S   UNL     1      16.331  17.386  -0.140  0.00  0.00    -0.106 S 
ATOM     61  C   UNL     1      16.171  16.752   1.476  0.00  0.00    +0.112 C 
ATOM     62  C   UNL     1      17.346  15.778   1.637  0.00  0.00    +0.202 C 
ATOM     63  N   UNL     1      18.516  16.361   1.070  0.00  0.00    -0.266 NA
BRANCH  59  64
ATOM     64  C   UNL     1      18.824  18.065  -0.368  0.00  0.00    +0.109 C 
BRANCH  64  65
ATOM     65  N   UNL     1      18.622  16.945  -1.824  0.00  0.00    -0.322 NA
ATOM     66  H   UNL     1      18.946  17.245  -2.717  0.00  0.00    +0.119 HD
ATOM     67  H   UNL     1      18.356  16.025  -2.112  0.00  0.00    +0.119 HD
ENDBRANCH  64  65
BRANCH  64  68
ATOM     68  C   UNL     1      18.700  20.004  -0.381  0.00  0.00    +0.009 C 
ATOM     69  C   UNL     1      19.289  20.279   0.945  0.00  0.00    +0.009 C 
BRANCH  68  71
ATOM     70  C   UNL     1      19.109  22.723  -1.506  0.00  0.00    +0.004 C 
ATOM     71  C   UNL     1      19.396  21.370  -1.704  0.00  0.00    +0.002 C 
ENDBRANCH  68  71
ENDBRANCH  64  68
ENDBRANCH  59  64
ENDBRANCH  55  62
ENDBRANCH  54  56
BRANCH  54  72
ATOM     72  C   UNL     1      14.032  12.372   1.811  0.00  0.00    +0.034 C 
BRANCH  72  73
ATOM     73  C   UNL     1      13.634  10.894   1.751  0.00  0.00    -0.015 C 
ATOM     74  C   UNL     1      12.445  10.549   2.605  0.00  0.00    +0.007 C 
ATOM     75  C   UNL     1      14.793  10.020   2.226  0.00  0.00    +0.007 C 
ENDBRANCH  72  73
ENDBRANCH  54  72
ENDBRANCH  50  54
ENDBRANCH  49  51
BRANCH  49  76
ATOM     76  C   UNL     1      16.377   9.908  -2.597  0.00  0.00    +0.043 C 
BRANCH  76  77
ATOM     77  C   UNL     1      16.871   8.870  -1.581  0.00  0.00    +0.123 C 
BRANCH  77  78
ATOM     78  C   UNL     1      18.138   8.232  -2.111  0.00  0.00    +0.305 C 
ATOM     79  O   UNL     1      18.261   7.027  -2.274  0.00  0.00    -0.251 OA
BRANCH  78  80
ATOM     80  O   UNL     1      19.146   9.090  -2.379  0.00  0.00    -0.481 OA
ATOM     81  H   UNL     1      18.993  10.043  -2.223  0.00  0.00    +0.295 HD
ENDBRANCH  78  80
ENDBRANCH  77  78
ENDBRANCH  76  77
ENDBRANCH  49  76
ENDBRANCH  45  49
ENDBRANCH  44  46
BRANCH  44  82
ATOM     82  C   UNL     1      15.456  15.871  -4.215  0.00  0.00    +0.015 C 
ATOM     83  C   UNL     1      14.720  14.998  -2.854  0.00  0.00    +0.010 C 
BRANCH  82  84
ATOM     84  C   UNL     1      13.416  15.974  -4.422  0.00  0.00    +0.002 C 
ATOM     85  C   UNL     1      12.754  16.803  -5.513  0.00  0.00    +0.004 C 
ENDBRANCH  82  84
ENDBRANCH  44  82
ENDBRANCH  40  44
ENDBRANCH   1  41
BRANCH  11  86
ATOM     86  C   UNL     1      33.066  32.494  -1.791  0.00  0.00    +0.015 C 
ATOM     87  C   UNL     1      32.766  33.790  -0.356  0.00  0.00    +0.010 C 
BRANCH  86  88
ATOM     88  C   UNL     1      34.745  33.486  -1.744  0.00  0.00    +0.002 C 
ATOM     89  C   UNL     1      35.722  33.566  -2.922  0.00  0.00    +0.004 C 
ENDBRANCH  86  88
ENDBRANCH  11  86
BRANCH   6  90
ATOM     90  C   UNL     1      31.066  26.027  -3.104  0.00  0.00    +0.033 C 
BRANCH  90  91
ATOM     91  C   UNL     1      32.959  27.358  -2.530  0.00  0.00    +0.017 C 
BRANCH  91  92
ATOM     92  C   UNL     1      34.863  28.570  -2.242  0.00  0.00    +0.078 C 
BRANCH  92  93
ATOM     93  N   UNL     1      36.202  29.753  -1.268  0.00  0.00    -0.330 NA
ATOM     94  H   UNL     1      37.378  30.007  -1.612  0.00  0.00    +0.118 HD
ATOM     95  H   UNL     1      36.413  30.915  -1.000  0.00  0.00    +0.118 HD
ENDBRANCH  92  93
ENDBRANCH  91  92
ENDBRANCH  90  91
ENDBRANCH   6  90
BRANCH  16  96
ATOM     96  C   UNL     1      28.610  31.024  -0.548  0.00  0.00    +0.067 C 
BRANCH  96  97
ATOM     97  C   UNL     1      28.866  30.490   0.873  0.00  0.00    -0.045 A 
ATOM     98  C   UNL     1      28.038  29.482   1.341  0.00  0.00    +0.004 A 
ATOM     99  C   UNL     1      28.342  28.827   2.527  0.00  0.00    +0.000 A 
ATOM    100  C   UNL     1      29.582  28.988   3.128  0.00  0.00    +0.000 A 
ATOM    101  C   UNL     1      30.424  29.988   2.677  0.00  0.00    +0.000 A 
ATOM    102  C   UNL     1      30.029  30.797   1.613  0.00  0.00    +0.004 A 
ENDBRANCH  96  97
ENDBRANCH  16  96
BRANCH  31 103
ATOM    103  C   UNL     1      23.369  20.724   0.346  0.00  0.00    +0.127 C 
BRANCH 103 104
ATOM    104  C   UNL     1      24.767  20.503   0.759  0.00  0.00    +0.213 C 
ATOM    105  O   UNL     1      25.500  19.678   0.228  0.00  0.00    -0.276 OA
ATOM    106  N   UNL     1      25.162  21.297   1.783  0.00  0.00    -0.329 N 
ATOM    107  H   UNL     1      26.126  21.229   2.057  0.00  0.00    +0.145 HD
ATOM    108  H   UNL     1      24.599  22.043   2.167  0.00  0.00    +0.145 HD
ENDBRANCH 103 104
ENDBRANCH  31 103
BRANCH  26 109
ATOM    109  C   UNL     1      23.617  25.225  -0.528  0.00  0.00    +0.152 C 
BRANCH 109 110
ATOM    110  C   UNL     1      22.794  26.432  -0.713  0.00  0.00    +0.307 C 
ATOM    111  O   UNL     1      21.906  26.657   0.104  0.00  0.00    -0.251 OA
BRANCH 110 112
ATOM    112  O   UNL     1      23.194  27.334  -1.618  0.00  0.00    -0.481 OA
ATOM    113  H   UNL     1      24.015  27.140  -2.127  0.00  0.00    +0.295 HD
ENDBRANCH 110 112
ENDBRANCH 109 110
ENDBRANCH  26 109
BRANCH  21 114
ATOM    114  C   UNL     1      28.291  26.273   0.126  0.00  0.00    +0.088 C 
BRANCH 114 115
ATOM    115  C   UNL     1      28.271  24.825   0.531  0.00  0.00    +0.061 A 
ATOM    116  N   UNL     1      28.136  23.689  -0.220  0.00  0.00    -0.241 NA
ATOM    117  C   UNL     1      28.212  22.691   0.660  0.00  0.00    +0.196 A 
ATOM    118  N   UNL     1      28.593  23.151   1.890  0.00  0.00    -0.351 N 
ATOM    119  H   UNL     1      28.867  22.612   2.703  0.00  0.00    +0.166 HD
ATOM    120  C   UNL     1      28.333  24.477   1.855  0.00  0.00    +0.107 A 
ENDBRANCH 114 115
ENDBRANCH  21 114
TORSDOF 35
