REMARK  Name = 
REMARK  4 active torsions:
REMARK  status: ('A' for Active; 'I' for Inactive)
REMARK    1  A    between atoms: C_1  and  C_2
REMARK    2  A    between atoms: N_6  and  S_7
REMARK    3  A    between atoms: S_7  and  C_10
REMARK    4  A    between atoms: C_13  and  N_14
REMARK                            x       y       z     vdW  Elec       q    Type
REMARK                         _______ _______ _______ _____ _____    ______ ____
ROOT
ATOM      1  S   UNL     1       5.226  -3.640   0.082  0.00  0.00    +0.074 S 
ATOM      2  O   UNL     1       4.502  -3.843  -1.155  0.00  0.00    -0.150 OA
ATOM      3  O   UNL     1       4.595  -3.938   1.351  0.00  0.00    -0.150 OA
ENDROOT
BRANCH   1   8
ATOM      4  C   UNL     1       5.711   0.184   4.768  0.00  0.00    +0.075 C 
ATOM      5  C   UNL     1       6.013  -0.493   3.484  0.00  0.00    +0.101 A 
ATOM      6  S   UNL     1       4.831  -0.593   2.237  0.00  0.00    -0.035 S 
ATOM      7  C   UNL     1       5.958  -1.530   1.362  0.00  0.00    +0.201 A 
ATOM      8  N   UNL     1       5.708  -2.021   0.062  0.00  0.00    -0.192 N 
ATOM      9  H   UNL     1       4.998  -1.508  -0.452  0.00  0.00    +0.176 HD
ATOM     10  N   UNL     1       7.124  -1.684   1.946  0.00  0.00    -0.125 NA
ATOM     11  N   UNL     1       7.162  -1.064   3.181  0.00  0.00    -0.145 NA
ENDBRANCH   1   8
BRANCH   1  12
ATOM     12  C   UNL     1       6.748  -4.526  -0.044  0.00  0.00    +0.109 A 
ATOM     13  C   UNL     1       7.574  -4.302  -1.146  0.00  0.00    +0.030 A 
ATOM     14  C   UNL     1       8.799  -4.965  -1.228  0.00  0.00    +0.024 A 
ATOM     15  C   UNL     1       9.218  -5.822  -0.204  0.00  0.00    +0.025 A 
ATOM     16  C   UNL     1       8.334  -6.108   0.842  0.00  0.00    +0.024 A 
ATOM     17  C   UNL     1       7.108  -5.448   0.941  0.00  0.00    +0.030 A 
BRANCH  15  18
ATOM     18  N   UNL     1      10.404  -6.552  -0.343  0.00  0.00    -0.358 N 
ATOM     19  H   UNL     1      11.104  -6.076  -0.905  0.00  0.00    +0.142 HD
ATOM     20  H   UNL     1      10.786  -6.871   0.543  0.00  0.00    +0.142 HD
ENDBRANCH  15  18
ENDBRANCH   1  12
TORSDOF 3
