REMARK  Name = 
REMARK  17 active torsions:
REMARK  status: ('A' for Active; 'I' for Inactive)
REMARK    1  A    between atoms: C_1  and  C_2
REMARK    2  A    between atoms: C_2  and  C_3
REMARK    3  A    between atoms: C_2  and  N_4
REMARK    4  A    between atoms: N_4  and  C_5
REMARK    5  A    between atoms: C_5  and  C_6
REMARK    6  A    between atoms: C_6  and  O_7
REMARK    7  A    between atoms: C_6  and  C_8
REMARK    8  A    between atoms: C_8  and  O_9
REMARK    9  A    between atoms: O_9  and  C_10
REMARK   10  A    between atoms: C_13  and  C_14
REMARK   11  A    between atoms: C_14  and  O_15
REMARK   12  A    between atoms: O_15  and  C_16
REMARK   13  A    between atoms: C_16  and  C_17
REMARK   14  A    between atoms: C_17  and  O_18
REMARK   15  A    between atoms: O_18  and  C_19
REMARK   16  A    between atoms: C_19  and  C_20
REMARK   17  A    between atoms: C_19  and  C_21
REMARK                            x       y       z     vdW  Elec       q    Type
REMARK                         _______ _______ _______ _____ _____    ______ ____
ROOT
ATOM      1  C   UNL     1       8.265   4.457  -1.184  0.00  0.00    +0.121 A 
ATOM      2  C   UNL     1       9.112   3.355  -1.330  0.00  0.00    +0.046 A 
ATOM      3  C   UNL     1      10.476   3.537  -1.609  0.00  0.00    +0.009 A 
ATOM      4  C   UNL     1      11.004   4.827  -1.742  0.00  0.00    -0.022 A 
ATOM      5  C   UNL     1      10.150   5.923  -1.584  0.00  0.00    +0.009 A 
ATOM      6  C   UNL     1       8.799   5.743  -1.302  0.00  0.00    +0.046 A 
ENDROOT
BRANCH   1   7
ATOM      7  O   UNL     1       6.943   4.178  -0.933  0.00  0.00    -0.489 OA
BRANCH   7   8
ATOM      8  C   UNL     1       6.089   5.331  -0.865  0.00  0.00    +0.261 C 
BRANCH   8   9
ATOM      9  C   UNL     1       4.622   4.915  -0.723  0.00  0.00    +0.166 C 
BRANCH   9  10
ATOM     10  O   UNL     1       4.433   4.163   0.483  0.00  0.00    -0.387 OA
ATOM     11  H   UNL     1       5.150   3.503   0.509  0.00  0.00    +0.210 HD
ENDBRANCH   9  10
BRANCH   9  12
ATOM     12  C   UNL     1       4.160   4.093  -1.938  0.00  0.00    +0.115 C 
BRANCH  12  13
ATOM     13  N   UNL     1       2.709   3.879  -1.872  0.00  0.00    -0.311 NA
ATOM     14  H   UNL     1       2.494   3.464  -0.961  0.00  0.00    +0.122 HD
BRANCH  13  16
ATOM     15  C   UNL     1       0.713   2.776  -2.700  0.00  0.00    +0.023 C 
ATOM     16  C   UNL     1       2.199   3.034  -2.955  0.00  0.00    +0.048 C 
ATOM     17  C   UNL     1       2.377   3.695  -4.324  0.00  0.00    +0.023 C 
ENDBRANCH  13  16
ENDBRANCH  12  13
ENDBRANCH   9  12
ENDBRANCH   8   9
ENDBRANCH   7   8
ENDBRANCH   1   7
BRANCH   4  18
ATOM     18  C   UNL     1      12.456   5.072  -2.056  0.00  0.00    +0.195 C 
BRANCH  18  19
ATOM     19  O   UNL     1      12.979   5.924  -1.041  0.00  0.00    -0.373 OA
BRANCH  19  20
ATOM     20  C   UNL     1      14.324   6.315  -1.296  0.00  0.00    +0.188 C 
BRANCH  20  21
ATOM     21  C   UNL     1      14.798   7.172  -0.128  0.00  0.00    +0.188 C 
BRANCH  21  22
ATOM     22  O   UNL     1      16.177   7.496  -0.289  0.00  0.00    -0.375 OA
BRANCH  22  23
ATOM     23  C   UNL     1      16.684   8.363   0.733  0.00  0.00    +0.112 C 
ATOM     24  C   UNL     1      18.109   8.734   0.338  0.00  0.00    +0.037 C 
ATOM     25  C   UNL     1      16.683   7.686   2.102  0.00  0.00    +0.037 C 
ENDBRANCH  22  23
ENDBRANCH  21  22
ENDBRANCH  20  21
ENDBRANCH  19  20
ENDBRANCH  18  19
ENDBRANCH   4  18
TORSDOF 13
