REMARK  Name = 
REMARK  4 active torsions:
REMARK  status: ('A' for Active; 'I' for Inactive)
REMARK    1  A    between atoms: C_1  and  C_2
REMARK    2  A    between atoms: C_2  and  C_3
REMARK    3  A    between atoms: C_3  and  C_11
REMARK    4  A    between atoms: C_14  and  N_15
REMARK                            x       y       z     vdW  Elec       q    Type
REMARK                         _______ _______ _______ _____ _____    ______ ____
ROOT
ATOM      1  C   UNL     1       3.025  -1.149   0.877  0.00  0.00    +0.072 C 
ATOM      2  C   UNL     1       4.499  -1.292   0.418  0.00  0.00    +0.230 C 
ATOM      3  O   UNL     1       5.463  -0.774   0.978  0.00  0.00    -0.274 OA
ATOM      4  N   UNL     1       4.720  -2.001  -0.744  0.00  0.00    -0.256 N 
ATOM      5  H   UNL     1       5.689  -2.056  -1.027  0.00  0.00    +0.157 HD
ATOM      6  C   UNL     1       3.905  -2.937  -1.321  0.00  0.00    +0.219 C 
ATOM      7  O   UNL     1       4.328  -3.709  -2.178  0.00  0.00    -0.275 OA
ATOM      8  C   UNL     1       2.470  -2.950  -0.871  0.00  0.00    +0.097 C 
ATOM      9  C   UNL     1       2.356  -2.522   0.582  0.00  0.00    +0.030 C 
ENDROOT
BRANCH   1  10
ATOM     10  C   UNL     1       2.913  -0.771   2.377  0.00  0.00    -0.032 A 
ATOM     11  C   UNL     1       3.474   0.426   2.859  0.00  0.00    +0.006 A 
ATOM     12  C   UNL     1       3.292   0.840   4.186  0.00  0.00    +0.023 A 
ATOM     13  C   UNL     1       2.507   0.097   5.065  0.00  0.00    +0.025 A 
ATOM     14  C   UNL     1       2.037  -1.139   4.634  0.00  0.00    +0.023 A 
ATOM     15  C   UNL     1       2.218  -1.559   3.311  0.00  0.00    +0.006 A 
BRANCH  13  16
ATOM     16  N   UNL     1       2.387   0.470   6.408  0.00  0.00    -0.358 N 
ATOM     17  H   UNL     1       2.454   1.473   6.555  0.00  0.00    +0.142 HD
ATOM     18  H   UNL     1       1.573   0.072   6.866  0.00  0.00    +0.142 HD
ENDBRANCH  13  16
ENDBRANCH   1  10
BRANCH   1  20
ATOM     19  C   UNL     1       0.913   0.229   0.204  0.00  0.00    +0.005 C 
ATOM     20  C   UNL     1       2.406  -0.008   0.004  0.00  0.00    +0.017 C 
ENDBRANCH   1  20
TORSDOF 3
