REMARK  Name = 
REMARK  5 active torsions:
REMARK  status: ('A' for Active; 'I' for Inactive)
REMARK    1  A    between atoms: C_2  and  C_3
REMARK    2  A    between atoms: C_3  and  N_4
REMARK    3  A    between atoms: N_4  and  C_5
REMARK    4  A    between atoms: N_4  and  C_8
REMARK    5  A    between atoms: C_5  and  C_6
REMARK                            x       y       z     vdW  Elec       q    Type
REMARK                         _______ _______ _______ _____ _____    ______ ____
ROOT
ATOM      1  C   UNL     1       5.375   2.738  -0.275  0.00  0.00    +0.111 A 
ATOM      2  C   UNL     1       6.914   2.794  -0.208  0.00  0.00    +0.275 A 
ATOM      3  O   UNL     1       7.625   1.827   0.059  0.00  0.00    -0.266 OA
ATOM      4  N   UNL     1       7.515   3.998  -0.465  0.00  0.00    -0.274 N 
ATOM      5  H   UNL     1       8.521   4.024  -0.429  0.00  0.00    +0.173 HD
ATOM      6  C   UNL     1       6.873   5.171  -0.693  0.00  0.00    +0.327 A 
ATOM      7  O   UNL     1       7.468   6.225  -0.893  0.00  0.00    -0.247 OA
ATOM      8  N   UNL     1       5.518   5.101  -0.681  0.00  0.00    -0.313 N 
ATOM      9  H   UNL     1       5.031   5.973  -0.857  0.00  0.00    +0.170 HD
ATOM     10  C   UNL     1       4.814   3.947  -0.487  0.00  0.00    +0.116 A 
ENDROOT
BRANCH   1  11
ATOM     11  N   UNL     1       4.668   1.491  -0.133  0.00  0.00    -0.322 N 
BRANCH  11  12
ATOM     12  C   UNL     1       3.187   1.434  -0.258  0.00  0.00    +0.121 C 
BRANCH  12  14
ATOM     13 CL   UNL     1       2.783   1.445   2.472  0.00  0.00    -0.124 Cl
ATOM     14  C   UNL     1       2.409   0.760   0.874  0.00  0.00    +0.127 C 
ENDBRANCH  12  14
ENDBRANCH  11  12
BRANCH  11  15
ATOM     15  C   UNL     1       5.466   0.223  -0.193  0.00  0.00    +0.121 C 
BRANCH  15  16
ATOM     16  C   UNL     1       4.807  -1.148  -0.333  0.00  0.00    +0.127 C 
ATOM     17 CL   UNL     1       3.948  -1.382  -1.873  0.00  0.00    -0.124 Cl
ENDBRANCH  15  16
ENDBRANCH  11  15
ENDBRANCH   1  11
TORSDOF 5
