REMARK  Name = 
REMARK  7 active torsions:
REMARK  status: ('A' for Active; 'I' for Inactive)
REMARK    1  A    between atoms: C_15  and  C_20
REMARK    2  A    between atoms: N_18  and  C_19
REMARK    3  A    between atoms: N_22  and  CA_23
REMARK    4  A    between atoms: CA_23  and  C_25
REMARK    5  A    between atoms: CA_23  and  C_27
REMARK    6  A    between atoms: C_25  and  C_26
REMARK    7  A    between atoms: C_27  and  O_28
REMARK                            x       y       z     vdW  Elec       q    Type
REMARK                         _______ _______ _______ _____ _____    ______ ____
ROOT
ATOM      1  C   UNL     1       2.754  -0.945   0.030  0.00  0.00    +0.091 C 
ATOM      2  N   UNL     1       3.280  -1.025   1.416  0.00  0.00    -0.297 NA
ATOM      3  C   UNL     1       4.480  -0.218   1.633  0.00  0.00    +0.105 C 
ATOM      4  C   UNL     1       2.174  -0.679   2.350  0.00  0.00    +0.101 C 
ATOM      5  C   UNL     1       1.038   0.244   1.793  0.00  0.00    +0.112 C 
ATOM      6  C   UNL     1       1.516   1.109   0.627  0.00  0.00    -0.007 C 
ATOM      7  C   UNL     1       2.279   0.503  -0.310  0.00  0.00    -0.025 C 
ATOM      8  C   UNL     1       2.278   0.947  -1.721  0.00  0.00    -0.011 A 
ATOM      9  C   UNL     1       2.403  -0.131  -2.608  0.00  0.00    +0.010 A 
ATOM     10  C   UNL     1       1.984  -0.045  -3.924  0.00  0.00    +0.047 A 
ATOM     11  C   UNL     1       1.631   1.180  -4.490  0.00  0.00    +0.026 A 
ATOM     12  C   UNL     1       1.689   2.306  -3.648  0.00  0.00    +0.003 A 
ATOM     13  N   UNL     1       1.967  -1.342  -4.392  0.00  0.00    -0.360 N 
ATOM     14  H   UNL     1       1.591  -1.624  -5.285  0.00  0.00    +0.165 HD
ATOM     15  C   UNL     1       2.482  -2.203  -3.442  0.00  0.00    +0.087 A 
ATOM     16  C   UNL     1       2.867  -1.444  -2.368  0.00  0.00    -0.020 A 
ATOM     17  C   UNL     1       1.970   2.195  -2.275  0.00  0.00    +0.009 A 
ATOM     18  C   UNL     1       3.524  -1.735  -1.057  0.00  0.00    +0.061 C 
ENDROOT
BRANCH   5  19
ATOM     19  C   UNL     1      -0.156  -0.608   1.252  0.00  0.00    +0.221 C 
ATOM     20  N   UNL     1      -1.162   0.117   0.642  0.00  0.00    -0.310 N 
ATOM     21  H   UNL     1      -1.073   1.125   0.590  0.00  0.00    +0.149 HD
ATOM     22  O   UNL     1      -0.190  -1.838   1.311  0.00  0.00    -0.275 OA
BRANCH  20  23
ATOM     23  CA  UNL     1      -2.153  -0.477  -0.260  0.00  0.00    +0.098 C 
BRANCH  23  24
ATOM     24  C   UNL     1      -3.379  -1.008   0.504  0.00  0.00    +0.021 C 
ATOM     25  C   UNL     1      -3.087  -2.192   1.411  0.00  0.00    +0.006 C 
ENDBRANCH  23  24
BRANCH  23  26
ATOM     26  C   UNL     1      -2.592   0.589  -1.295  0.00  0.00    +0.178 C 
BRANCH  26  27
ATOM     27  O   UNL     1      -3.124   1.750  -0.651  0.00  0.00    -0.393 OA
ATOM     28  H   UNL     1      -3.994   1.508  -0.283  0.00  0.00    +0.209 HD
ENDBRANCH  26  27
ENDBRANCH  23  26
ENDBRANCH  20  23
ENDBRANCH   5  19
TORSDOF 5
