REMARK  Name = 
REMARK  1 active torsions:
REMARK  status: ('A' for Active; 'I' for Inactive)
REMARK    1  A    between atoms: C_2  and  C_4
REMARK                            x       y       z     vdW  Elec       q    Type
REMARK                         _______ _______ _______ _____ _____    ______ ____
ROOT
ATOM      1  C   UNL     1       3.150  -0.143  -1.413  0.00  0.00    +0.143 A 
ATOM      2  C   UNL     1       3.482  -1.388  -1.926  0.00  0.00    +0.143 A 
ATOM      3  N   UNL     1       4.101  -1.534  -3.126  0.00  0.00    -0.259 NA
ATOM      4  C   UNL     1       4.369  -0.381  -3.782  0.00  0.00    +0.130 A 
ATOM      5  C   UNL     1       4.037   0.865  -3.268  0.00  0.00    +0.131 A 
ATOM      6  N   UNL     1       3.421   1.022  -2.073  0.00  0.00    -0.247 NA
ENDROOT
BRANCH   1  10
ATOM      7  N   UNL     1       2.183   1.229   0.328  0.00  0.00    -0.324 N 
ATOM      8  H   UNL     1       2.436   2.022  -0.250  0.00  0.00    +0.145 HD
ATOM      9  H   UNL     1       1.718   1.368   1.213  0.00  0.00    +0.145 HD
ATOM     10  C   UNL     1       2.468  -0.042  -0.094  0.00  0.00    +0.261 C 
ATOM     11  O   UNL     1       2.179  -1.026   0.573  0.00  0.00    -0.269 OA
ENDBRANCH   1  10
TORSDOF 1
