REMARK  Name = 
REMARK  9 active torsions:
REMARK  status: ('A' for Active; 'I' for Inactive)
REMARK    1  A    between atoms: C_4  and  C_5
REMARK    2  A    between atoms: C_4  and  C_6
REMARK    3  A    between atoms: CA_7  and  C_27
REMARK    4  A    between atoms: CA_12  and  N_14
REMARK    5  A    between atoms: C_15  and  C_17
REMARK    6  A    between atoms: C_17  and  C_18
REMARK    7  A    between atoms: C_17  and  C_21
REMARK    8  A    between atoms: C_18  and  O_19
REMARK    9  A    between atoms: C_27  and  O_28
REMARK                            x       y       z     vdW  Elec       q    Type
REMARK                         _______ _______ _______ _____ _____    ______ ____
ROOT
ATOM      1  N   UNL     1       3.276  -0.798   2.149  0.00  0.00    -0.301 N 
ATOM      2  H   UNL     1       4.267  -0.580   2.200  0.00  0.00    +0.150 HD
ATOM      3  C   UNL     1       2.492  -0.616   3.269  0.00  0.00    +0.232 C 
ATOM      4  O   UNL     1       1.278  -0.812   3.234  0.00  0.00    -0.275 OA
ENDROOT
BRANCH   1   6
ATOM      5  C   UNL     1       2.147   0.181   0.043  0.00  0.00    +0.165 C 
ATOM      6  CA  UNL     1       2.631  -1.063   0.832  0.00  0.00    +0.190 C 
ATOM      7  C   UNL     1       3.553  -1.299  -0.385  0.00  0.00    +0.240 C 
ATOM      8  O   UNL     1       4.550  -1.937  -0.627  0.00  0.00    -0.273 OA
ATOM      9  N   UNL     1       2.943  -0.300  -1.108  0.00  0.00    -0.271 N 
ATOM     10  CA  UNL     1       3.771   0.707  -1.799  0.00  0.00    +0.201 C 
ATOM     11  C   UNL     1       4.253   1.715  -0.727  0.00  0.00    +0.042 C 
ATOM     12  C   UNL     1       5.499   1.207   0.028  0.00  0.00    +0.025 C 
ATOM     13  C   UNL     1       4.592   3.120  -1.236  0.00  0.00    +0.025 C 
ATOM     14  S   UNL     1       2.873   1.809   0.500  0.00  0.00    -0.127 S 
BRANCH  10  15
ATOM     15  C   UNL     1       2.933   1.299  -2.948  0.00  0.00    +0.327 C 
ATOM     16  OXT UNL     1       3.275   2.237  -3.651  0.00  0.00    -0.249 OA
BRANCH  15  17
ATOM     17  O   UNL     1       1.784   0.617  -3.192  0.00  0.00    -0.479 OA
ATOM     18  H   UNL     1       1.719  -0.164  -2.605  0.00  0.00    +0.295 HD
ENDBRANCH  15  17
ENDBRANCH  10  15
ENDBRANCH   1   6
BRANCH   3  19
ATOM     19  C   UNL     1       3.231  -0.247   4.542  0.00  0.00    +0.213 C 
BRANCH  19  20
ATOM     20  C   UNL     1       3.764  -1.457   5.304  0.00  0.00    -0.025 A 
ATOM     21  C   UNL     1       3.166  -2.726   5.212  0.00  0.00    +0.005 A 
ATOM     22  C   UNL     1       3.652  -3.799   5.962  0.00  0.00    +0.000 A 
ATOM     23  C   UNL     1       4.738  -3.621   6.813  0.00  0.00    +0.000 A 
ATOM     24  C   UNL     1       5.345  -2.372   6.913  0.00  0.00    +0.000 A 
ATOM     25  C   UNL     1       4.862  -1.295   6.167  0.00  0.00    +0.005 A 
ENDBRANCH  19  20
BRANCH  19  26
ATOM     26  C   UNL     1       2.376   0.672   5.396  0.00  0.00    +0.321 C 
ATOM     27  O   UNL     1       2.452   1.894   5.327  0.00  0.00    -0.250 OA
BRANCH  26  28
ATOM     28  O   UNL     1       1.498   0.070   6.229  0.00  0.00    -0.480 OA
ATOM     29  H   UNL     1       1.471  -0.904   6.155  0.00  0.00    +0.295 HD
ENDBRANCH  26  28
ENDBRANCH  19  26
ENDBRANCH   3  19
TORSDOF 7
