REMARK  Name = 
REMARK  9 active torsions:
REMARK  status: ('A' for Active; 'I' for Inactive)
REMARK    1  A    between atoms: C_1  and  C_2
REMARK    2  A    between atoms: C_2  and  N_3
REMARK    3  A    between atoms: N_3  and  C_4
REMARK    4  A    between atoms: N_3  and  C_6
REMARK    5  A    between atoms: C_4  and  C_5
REMARK    6  A    between atoms: C_6  and  C_7
REMARK    7  A    between atoms: C_8  and  O_9
REMARK    8  A    between atoms: C_12  and  N_13
REMARK    9  A    between atoms: N_13  and  C_14
REMARK                            x       y       z     vdW  Elec       q    Type
REMARK                         _______ _______ _______ _____ _____    ______ ____
ROOT
ATOM      1  C   UNL     1       5.023  -1.807   1.809  0.00  0.00    +0.010 A 
ATOM      2  C   UNL     1       4.805  -3.154   1.468  0.00  0.00    +0.031 A 
ATOM      3  C   UNL     1       5.039  -4.192   2.369  0.00  0.00    +0.032 A 
ATOM      4  C   UNL     1       5.668  -3.872   3.585  0.00  0.00    +0.027 A 
ATOM      5  C   UNL     1       5.997  -2.551   3.900  0.00  0.00    +0.047 A 
ATOM      6  C   UNL     1       5.665  -1.529   3.018  0.00  0.00    +0.121 A 
ENDROOT
BRANCH   3   7
ATOM      7  N   UNL     1       4.646  -5.527   2.141  0.00  0.00    -0.314 N 
ATOM      8  H   UNL     1       4.957  -6.114   2.905  0.00  0.00    +0.152 HD
BRANCH   7   9
ATOM      9  C   UNL     1       3.550  -6.117   1.449  0.00  0.00    +0.042 A 
ATOM     10  C   UNL     1       2.637  -5.370   0.704  0.00  0.00    +0.043 A 
ATOM     11  C   UNL     1       1.613  -6.010   0.037  0.00  0.00    +0.113 A 
ATOM     12  N   UNL     1       1.405  -7.338   0.083  0.00  0.00    -0.255 NA
ATOM     13  C   UNL     1       2.228  -8.073   0.838  0.00  0.00    +0.074 A 
ATOM     14  C   UNL     1       1.911  -9.412   1.003  0.00  0.00    +0.048 A 
ATOM     15  C   UNL     1       2.641 -10.223   1.866  0.00  0.00    +0.043 A 
ATOM     16 CL   UNL     1       2.110 -11.824   2.196  0.00  0.00    -0.083 Cl
ATOM     17  C   UNL     1       3.778  -9.734   2.489  0.00  0.00    +0.021 A 
ATOM     18  C   UNL     1       4.158  -8.411   2.275  0.00  0.00    +0.013 A 
ATOM     19  C   UNL     1       3.350  -7.530   1.515  0.00  0.00    +0.022 A 
ENDBRANCH   7   9
ENDBRANCH   3   7
BRANCH   6  20
ATOM     20  O   UNL     1       5.985  -0.254   3.381  0.00  0.00    -0.506 OA
ATOM     21  H   UNL     1       5.952   0.285   2.565  0.00  0.00    +0.292 HD
ENDBRANCH   6  20
BRANCH   1  22
ATOM     22  C   UNL     1       4.378  -0.744   0.943  0.00  0.00    +0.123 C 
BRANCH  22  23
ATOM     23  N   UNL     1       5.268   0.306   0.417  0.00  0.00    -0.299 NA
BRANCH  23  25
ATOM     24  C   UNL     1       7.202   0.763  -1.139  0.00  0.00    +0.020 C 
ATOM     25  C   UNL     1       6.283  -0.268  -0.488  0.00  0.00    +0.081 C 
ENDBRANCH  23  25
BRANCH  23  26
ATOM     26  C   UNL     1       4.462   1.385  -0.202  0.00  0.00    +0.081 C 
ATOM     27  C   UNL     1       3.622   1.046  -1.437  0.00  0.00    +0.020 C 
ENDBRANCH  23  26
ENDBRANCH  22  23
ENDBRANCH   1  22
TORSDOF 7
