REMARK  Name = 
REMARK  24 active torsions:
REMARK  status: ('A' for Active; 'I' for Inactive)
REMARK    1  A    between atoms: O_2  and  C_3
REMARK    2  A    between atoms: C_3  and  C_4
REMARK    3  A    between atoms: C_4  and  O_6
REMARK    4  A    between atoms: C_4  and  C_7
REMARK    5  A    between atoms: C_7  and  O_9
REMARK    6  A    between atoms: C_7  and  C_10
REMARK    7  A    between atoms: C_10  and  O_12
REMARK    8  A    between atoms: C_10  and  C_13
REMARK    9  A    between atoms: C_13  and  O_15
REMARK   10  A    between atoms: C_13  and  C_16
REMARK   11  A    between atoms: C_16  and  O_17
REMARK   12  A    between atoms: C_16  and  C_18
REMARK   13  A    between atoms: O_21  and  C_22
REMARK   14  A    between atoms: C_22  and  C_23
REMARK   15  A    between atoms: C_23  and  O_25
REMARK   16  A    between atoms: C_23  and  C_26
REMARK   17  A    between atoms: C_26  and  O_28
REMARK   18  A    between atoms: C_26  and  C_29
REMARK   19  A    between atoms: C_29  and  O_31
REMARK   20  A    between atoms: C_29  and  C_32
REMARK   21  A    between atoms: C_32  and  O_34
REMARK   22  A    between atoms: C_32  and  C_35
REMARK   23  A    between atoms: C_35  and  O_36
REMARK   24  A    between atoms: C_35  and  C_37
REMARK                            x       y       z     vdW  Elec       q    Type
REMARK                         _______ _______ _______ _____ _____    ______ ____
ROOT
ATOM      1 CA   UNL     1       1.209  -0.705  -0.201  0.00  0.00    +0.000 Ca
ENDROOT
TORSDOF 0
REMARK  Name = 
REMARK  24 active torsions:
REMARK  status: ('A' for Active; 'I' for Inactive)
REMARK    1  A    between atoms: O_2  and  C_3
REMARK    2  A    between atoms: C_3  and  C_4
REMARK    3  A    between atoms: C_4  and  O_6
REMARK    4  A    between atoms: C_4  and  C_7
REMARK    5  A    between atoms: C_7  and  O_9
REMARK    6  A    between atoms: C_7  and  C_10
REMARK    7  A    between atoms: C_10  and  O_12
REMARK    8  A    between atoms: C_10  and  C_13
REMARK    9  A    between atoms: C_13  and  O_15
REMARK   10  A    between atoms: C_13  and  C_16
REMARK   11  A    between atoms: C_16  and  O_17
REMARK   12  A    between atoms: C_16  and  C_18
REMARK   13  A    between atoms: O_21  and  C_22
REMARK   14  A    between atoms: C_22  and  C_23
REMARK   15  A    between atoms: C_23  and  O_25
REMARK   16  A    between atoms: C_23  and  C_26
REMARK   17  A    between atoms: C_26  and  O_28
REMARK   18  A    between atoms: C_26  and  C_29
REMARK   19  A    between atoms: C_29  and  O_31
REMARK   20  A    between atoms: C_29  and  C_32
REMARK   21  A    between atoms: C_32  and  O_34
REMARK   22  A    between atoms: C_32  and  C_35
REMARK   23  A    between atoms: C_35  and  O_36
REMARK   24  A    between atoms: C_35  and  C_37
REMARK                            x       y       z     vdW  Elec       q    Type
REMARK                         _______ _______ _______ _____ _____    ______ ____
ROOT
ATOM      1  C   UNL     1      10.428   0.460  -0.233  0.00  0.00    +0.177 C 
ENDROOT
BRANCH   1   2
ATOM      2  O   UNL     1       9.270   1.084  -0.903  0.00  0.00    -0.386 OA
ATOM      3  H   UNL     1       8.579   1.125  -0.217  0.00  0.00    +0.210 HD
ENDBRANCH   1   2
BRANCH   1   4
ATOM      4  C   UNL     1      10.910   1.497   0.820  0.00  0.00    +0.176 C 
BRANCH   4   5
ATOM      5  O   UNL     1      10.832   2.830   0.204  0.00  0.00    -0.386 OA
ATOM      6  H   UNL     1      11.384   2.789  -0.600  0.00  0.00    +0.210 HD
ENDBRANCH   4   5
BRANCH   4   7
ATOM      7  C   UNL     1      12.353   1.443   1.373  0.00  0.00    +0.171 C 
BRANCH   7   8
ATOM      8  O   UNL     1      12.847   0.152   1.679  0.00  0.00    -0.387 OA
ATOM      9  H   UNL     1      12.567  -0.063   2.600  0.00  0.00    +0.210 HD
ENDBRANCH   7   8
BRANCH   7  10
ATOM     10  C   UNL     1      12.506   2.350   2.614  0.00  0.00    +0.189 C 
BRANCH  10  11
ATOM     11  O   UNL     1      11.582   1.956   3.624  0.00  0.00    -0.392 OA
ATOM     12  H   UNL     1      11.825   2.398   4.452  0.00  0.00    +0.210 HD
ENDBRANCH  10  11
ENDBRANCH   7  10
ENDBRANCH   4   7
ENDBRANCH   1   4
BRANCH   1  13
ATOM     13  C   UNL     1       9.912  -0.959   0.174  0.00  0.00    +0.179 C 
BRANCH  13  14
ATOM     14  O   UNL     1       9.460  -1.606  -1.042  0.00  0.00    -0.386 OA
ATOM     15  H   UNL     1      10.290  -1.923  -1.452  0.00  0.00    +0.210 HD
ENDBRANCH  13  14
BRANCH  13  16
ATOM     16  C   UNL     1      10.898  -1.941   0.815  0.00  0.00    +0.191 C 
BRANCH  16  17
ATOM     17  C   UNL     1      11.046  -1.825   2.349  0.00  0.00    +0.073 C 
ATOM     18  O   UNL     1      10.151  -1.163   2.944  0.00  0.00    -0.547 OA
ATOM     19  O   UNL     1      12.095  -2.342   2.831  0.00  0.00    -0.547 OA
ENDBRANCH  16  17
BRANCH  16  20
ATOM     20  O   UNL     1      12.158  -1.853   0.100  0.00  0.00    -0.383 OA
ATOM     21  H   UNL     1      12.771  -1.454   0.765  0.00  0.00    +0.210 HD
ENDBRANCH  16  20
ENDBRANCH  13  16
ENDBRANCH   1  13
TORSDOF 12
REMARK  Name = 
REMARK  24 active torsions:
REMARK  status: ('A' for Active; 'I' for Inactive)
REMARK    1  A    between atoms: O_2  and  C_3
REMARK    2  A    between atoms: C_3  and  C_4
REMARK    3  A    between atoms: C_4  and  O_6
REMARK    4  A    between atoms: C_4  and  C_7
REMARK    5  A    between atoms: C_7  and  O_9
REMARK    6  A    between atoms: C_7  and  C_10
REMARK    7  A    between atoms: C_10  and  O_12
REMARK    8  A    between atoms: C_10  and  C_13
REMARK    9  A    between atoms: C_13  and  O_15
REMARK   10  A    between atoms: C_13  and  C_16
REMARK   11  A    between atoms: C_16  and  O_17
REMARK   12  A    between atoms: C_16  and  C_18
REMARK   13  A    between atoms: O_21  and  C_22
REMARK   14  A    between atoms: C_22  and  C_23
REMARK   15  A    between atoms: C_23  and  O_25
REMARK   16  A    between atoms: C_23  and  C_26
REMARK   17  A    between atoms: C_26  and  O_28
REMARK   18  A    between atoms: C_26  and  C_29
REMARK   19  A    between atoms: C_29  and  O_31
REMARK   20  A    between atoms: C_29  and  C_32
REMARK   21  A    between atoms: C_32  and  O_34
REMARK   22  A    between atoms: C_32  and  C_35
REMARK   23  A    between atoms: C_35  and  O_36
REMARK   24  A    between atoms: C_35  and  C_37
REMARK                            x       y       z     vdW  Elec       q    Type
REMARK                         _______ _______ _______ _____ _____    ______ ____
ROOT
ATOM      1  C   UNL     1       3.228  -0.909   2.610  0.00  0.00    +0.000 C 
ENDROOT
BRANCH   1   2
ATOM      2  O   UNL     1       4.636  -1.078   2.817  0.00  0.00    +0.000 OA
ATOM      3  H   UNL     1       4.852  -1.104   3.768  0.00  0.00    +0.000 HD
ENDBRANCH   1   2
BRANCH   1   4
ATOM      4  C   UNL     1       2.699  -2.307   2.192  0.00  0.00    +0.000 C 
BRANCH   4   5
ATOM      5  O   UNL     1       1.353  -2.266   1.674  0.00  0.00    +0.000 OA
ATOM      6  H   UNL     1       0.770  -2.520   2.424  0.00  0.00    +0.000 HD
ENDBRANCH   4   5
BRANCH   4   7
ATOM      7  C   UNL     1       3.076  -3.581   2.990  0.00  0.00    +0.000 C 
BRANCH   7   8
ATOM      8  O   UNL     1       3.117  -4.660   2.018  0.00  0.00    +0.000 OA
ATOM      9  H   UNL     1       3.408  -5.452   2.520  0.00  0.00    +0.000 HD
ENDBRANCH   7   8
BRANCH   7  10
ATOM     10  C   UNL     1       2.104  -4.049   4.074  0.00  0.00    +0.000 C 
BRANCH  10  11
ATOM     11  O   UNL     1       2.642  -5.216   4.689  0.00  0.00    +0.000 OA
ATOM     12  H   UNL     1       2.918  -4.998   5.595  0.00  0.00    +0.000 HD
ENDBRANCH  10  11
ENDBRANCH   7  10
ENDBRANCH   4   7
ENDBRANCH   1   4
BRANCH   1  13
ATOM     13  C   UNL     1       2.653   0.122   3.627  0.00  0.00    +0.000 C 
BRANCH  13  14
ATOM     14  O   UNL     1       3.247   1.387   3.206  0.00  0.00    +0.000 OA
ATOM     15  H   UNL     1       2.920   2.054   3.849  0.00  0.00    +0.000 HD
ENDBRANCH  13  14
BRANCH  13  16
ATOM     16  C   UNL     1       1.163   0.438   3.813  0.00  0.00    +0.000 C 
BRANCH  16  17
ATOM     17  C   UNL     1       0.333   0.797   2.564  0.00  0.00    +0.000 C 
ATOM     18  O   UNL     1      -0.564   1.664   2.710  0.00  0.00    -0.500 OA
ATOM     19  O   UNL     1       0.612   0.186   1.480  0.00  0.00    -0.500 OA
ENDBRANCH  16  17
BRANCH  16  20
ATOM     20  O   UNL     1       1.104   1.593   4.710  0.00  0.00    +0.000 OA
ATOM     21  H   UNL     1       0.349   2.137   4.371  0.00  0.00    +0.000 HD
ENDBRANCH  16  20
ENDBRANCH  13  16
ENDBRANCH   1  13
TORSDOF 12
