REMARK  Name = 
REMARK  3 active torsions:
REMARK  status: ('A' for Active; 'I' for Inactive)
REMARK    1  A    between atoms: N_1  and  C_2
REMARK    2  A    between atoms: C_5  and  S_8
REMARK    3  A    between atoms: S_8  and  N_11
REMARK                            x       y       z     vdW  Elec       q    Type
REMARK                         _______ _______ _______ _____ _____    ______ ____
ROOT
ATOM      1  S   UNL     1       7.096   0.112  -0.819  0.00  0.00    +0.075 S 
ATOM      2  O   UNL     1       7.751   0.718   0.318  0.00  0.00    -0.150 OA
ATOM      3  O   UNL     1       7.156   0.746  -2.124  0.00  0.00    -0.150 OA
ENDROOT
BRANCH   1   4
ATOM      4  N   UNL     1       7.623  -1.459  -1.050  0.00  0.00    -0.184 N 
ATOM      5  H   UNL     1       7.179  -1.879  -1.857  0.00  0.00    +0.177 HD
ATOM      6  C   UNL     1       7.508  -2.285   0.064  0.00  0.00    +0.235 A 
ATOM      7  N   UNL     1       8.444  -2.201   1.009  0.00  0.00    -0.222 NA
ATOM      8  C   UNL     1       8.273  -3.012   2.067  0.00  0.00    +0.116 A 
ATOM      9  C   UNL     1       7.198  -3.860   2.203  0.00  0.00    +0.039 A 
ATOM     10  C   UNL     1       6.293  -3.843   1.166  0.00  0.00    +0.116 A 
ATOM     11  N   UNL     1       6.429  -3.070   0.071  0.00  0.00    -0.222 NA
ENDBRANCH   1   4
BRANCH   1  15
ATOM     12  C   UNL     1       2.634  -0.036   0.242  0.00  0.00    +0.025 A 
ATOM     13  C   UNL     1       3.043   0.007  -1.095  0.00  0.00    +0.024 A 
ATOM     14  C   UNL     1       4.402   0.032  -1.428  0.00  0.00    +0.030 A 
ATOM     15  C   UNL     1       5.362  -0.039  -0.416  0.00  0.00    +0.109 A 
ATOM     16  C   UNL     1       4.967  -0.130   0.922  0.00  0.00    +0.030 A 
ATOM     17  C   UNL     1       3.606  -0.163   1.239  0.00  0.00    +0.024 A 
BRANCH  12  18
ATOM     18  N   UNL     1       1.277  -0.170   0.560  0.00  0.00    -0.358 N 
ATOM     19  H   UNL     1       0.655   0.253  -0.123  0.00  0.00    +0.142 HD
ATOM     20  H   UNL     1       1.050   0.122   1.506  0.00  0.00    +0.142 HD
ENDBRANCH  12  18
ENDBRANCH   1  15
TORSDOF 3
