REMARK  Name = 
REMARK  5 active torsions:
REMARK  status: ('A' for Active; 'I' for Inactive)
REMARK    1  A    between atoms: C_2  and  C_3
REMARK    2  A    between atoms: C_3  and  N_4
REMARK    3  A    between atoms: N_7  and  C_8
REMARK    4  A    between atoms: N_7  and  N_11
REMARK    5  A    between atoms: C_8  and  C_9
REMARK                            x       y       z     vdW  Elec       q    Type
REMARK                         _______ _______ _______ _____ _____    ______ ____
ROOT
ATOM      1  N   UNL     1       4.753  -0.646  -1.401  0.00  0.00    -0.297 N 
ATOM      2  H   UNL     1       5.194  -0.035  -0.729  0.00  0.00    +0.150 HD
ATOM      3  C   UNL     1       5.458  -0.963  -2.546  0.00  0.00    +0.324 C 
ATOM      4  N   UNL     1       6.848  -0.931  -2.433  0.00  0.00    -0.140 N 
ATOM      5  O   UNL     1       4.855  -1.268  -3.576  0.00  0.00    -0.251 OA
ENDROOT
BRANCH   4   6
ATOM      6  N   UNL     1       7.547  -1.209  -3.623  0.00  0.00    +0.053 NA
ATOM      7  O   UNL     1       8.777  -1.160  -3.515  0.00  0.00    -0.126 OA
ENDBRANCH   4   6
BRANCH   1   8
ATOM      8  C   UNL     1       3.297  -0.628  -1.431  0.00  0.00    +0.121 C 
BRANCH   8  10
ATOM      9 CL   UNL     1       3.168  -1.155   1.254  0.00  0.00    -0.124 Cl
ATOM     10  C   UNL     1       2.670  -0.147  -0.128  0.00  0.00    +0.127 C 
ENDBRANCH   8  10
ENDBRANCH   1   8
BRANCH   4  11
ATOM     11  C   UNL     1       7.609  -0.627  -1.213  0.00  0.00    +0.155 C 
BRANCH  11  12
ATOM     12  C   UNL     1       8.068   0.830  -1.143  0.00  0.00    +0.130 C 
ATOM     13 CL   UNL     1       6.700   1.940  -0.858  0.00  0.00    -0.124 Cl
ENDBRANCH  11  12
ENDBRANCH   4  11
TORSDOF 5
