REMARK  Name = 
REMARK  7 active torsions:
REMARK  status: ('A' for Active; 'I' for Inactive)
REMARK    1  A    between atoms: N_1  and  C_2
REMARK    2  A    between atoms: C_2  and  C_3
REMARK    3  A    between atoms: C_3  and  C_4
REMARK    4  A    between atoms: C_4  and  C_5
REMARK    5  A    between atoms: C_5  and  C_6
REMARK    6  A    between atoms: C_6  and  C_7
REMARK    7  A    between atoms: C_7  and  O_8
REMARK                            x       y       z     vdW  Elec       q    Type
REMARK                         _______ _______ _______ _____ _____    ______ ____
ROOT
ATOM      1  C   UNL     1       4.530   0.812   1.116  0.00  0.00    +0.002 C 
ENDROOT
BRANCH   1   2
ATOM      2  C   UNL     1       2.997   0.794   1.043  0.00  0.00    +0.015 C 
BRANCH   2   3
ATOM      3  C   UNL     1       2.344   2.159   0.815  0.00  0.00    +0.077 C 
BRANCH   3   4
ATOM      4  N   UNL     1       2.807   2.776  -0.422  0.00  0.00    -0.330 NA
ATOM      5  H   UNL     1       2.523   2.202  -1.215  0.00  0.00    +0.118 HD
ATOM      6  H   UNL     1       2.346   3.677  -0.542  0.00  0.00    +0.118 HD
ENDBRANCH   3   4
ENDBRANCH   2   3
ENDBRANCH   1   2
BRANCH   1   7
ATOM      7  C   UNL     1       5.061   1.668   2.266  0.00  0.00    +0.011 C 
BRANCH   7   8
ATOM      8  C   UNL     1       6.587   1.679   2.310  0.00  0.00    +0.120 C 
BRANCH   8   9
ATOM      9  C   UNL     1       7.101   2.531   3.447  0.00  0.00    +0.305 C 
ATOM     10  O   UNL     1       6.410   3.107   4.272  0.00  0.00    -0.251 OA
BRANCH   9  11
ATOM     11  O   UNL     1       8.453   2.590   3.474  0.00  0.00    -0.481 OA
ATOM     12  H   UNL     1       8.878   2.085   2.755  0.00  0.00    +0.295 HD
ENDBRANCH   9  11
ENDBRANCH   8   9
ENDBRANCH   7   8
ENDBRANCH   1   7
TORSDOF 7
