REMARK  Name = 
REMARK  0 active torsions:
REMARK  status: ('A' for Active; 'I' for Inactive)
REMARK                            x       y       z     vdW  Elec       q    Type
REMARK                         _______ _______ _______ _____ _____    ______ ____
ROOT
ATOM      1 CL   UNL     1       1.156  -0.065   0.030  0.00  0.00    -0.083 Cl
ATOM      2  C   UNL     1       2.878  -0.084   0.041  0.00  0.00    +0.043 A 
ATOM      3  C   UNL     1       3.582   1.139   0.046  0.00  0.00    +0.024 A 
ATOM      4  C   UNL     1       4.982   1.156   0.055  0.00  0.00    +0.050 A 
ATOM      5  C   UNL     1       5.626  -0.061   0.060  0.00  0.00    +0.157 A 
ATOM      6  O   UNL     1       6.998  -0.256   0.069  0.00  0.00    -0.408 OA
ATOM      7  C   UNL     1       7.100  -1.653   0.069  0.00  0.00    +0.419 A 
ATOM      8  N   UNL     1       5.857  -2.243   0.061  0.00  0.00    -0.288 N 
ATOM      9  H   UNL     1       5.712  -3.239   0.060  0.00  0.00    +0.172 HD
ATOM     10  O   UNL     1       8.160  -2.260   0.076  0.00  0.00    -0.223 OA
ATOM     11  C   UNL     1       4.923  -1.248   0.055  0.00  0.00    +0.089 A 
ATOM     12  C   UNL     1       3.550  -1.308   0.046  0.00  0.00    +0.049 A 
ENDROOT
TORSDOF 0
