REMARK  Name = 
REMARK  12 active torsions:
REMARK  status: ('A' for Active; 'I' for Inactive)
REMARK    1  A    between atoms: C_1  and  C_2
REMARK    2  A    between atoms: C_2  and  N_3
REMARK    3  A    between atoms: N_3  and  C_4
REMARK    4  A    between atoms: N_3  and  C_6
REMARK    5  A    between atoms: N_3  and  C_8
REMARK    6  A    between atoms: C_4  and  C_5
REMARK    7  A    between atoms: C_6  and  C_7
REMARK    8  A    between atoms: C_8  and  C_9
REMARK    9  A    between atoms: C_9  and  C_10
REMARK   10  A    between atoms: C_10  and  O_11
REMARK   11  A    between atoms: C_10  and  C_12
REMARK   12  A    between atoms: C_10  and  C_18
REMARK                            x       y       z     vdW  Elec       q    Type
REMARK                         _______ _______ _______ _____ _____    ______ ____
ROOT
ATOM      1  C   UNL     1       6.214  -1.656   2.601  0.00  0.00    +0.099 C 
ENDROOT
BRANCH   1   2
ATOM      2  C   UNL     1       6.616  -2.341   3.924  0.00  0.00    -0.016 A 
ATOM      3  C   UNL     1       6.500  -1.667   5.156  0.00  0.00    +0.006 A 
ATOM      4  C   UNL     1       6.625  -2.349   6.372  0.00  0.00    +0.000 A 
ATOM      5  C   UNL     1       6.889  -3.714   6.382  0.00  0.00    +0.000 A 
ATOM      6  C   UNL     1       7.073  -4.388   5.180  0.00  0.00    +0.000 A 
ATOM      7  C   UNL     1       6.950  -3.708   3.965  0.00  0.00    +0.006 A 
ENDBRANCH   1   2
BRANCH   1   8
ATOM      8  C   UNL     1       7.318  -0.663   2.052  0.00  0.00    +0.025 C 
ATOM      9  C   UNL     1       7.843   0.448   2.984  0.00  0.00    +0.007 C 
ATOM     10  C   UNL     1       6.949   1.679   3.084  0.00  0.00    +0.000 C 
ATOM     11  C   UNL     1       6.590   2.262   1.722  0.00  0.00    +0.000 C 
ATOM     12  C   UNL     1       6.119   1.218   0.722  0.00  0.00    +0.000 C 
ATOM     13  C   UNL     1       7.023  -0.012   0.675  0.00  0.00    +0.007 C 
ENDBRANCH   1   8
BRANCH   1  14
ATOM     14  O   UNL     1       6.046  -2.716   1.628  0.00  0.00    -0.383 OA
ATOM     15  H   UNL     1       6.361  -2.429   0.756  0.00  0.00    +0.211 HD
ENDBRANCH   1  14
BRANCH   1  16
ATOM     16  C   UNL     1       4.765  -1.106   2.749  0.00  0.00    +0.091 C 
BRANCH  16  17
ATOM     17  C   UNL     1       3.786  -2.225   3.174  0.00  0.00    +0.136 C 
BRANCH  17  18
ATOM     18  N   UNL     1       2.300  -1.779   3.362  0.00  0.00    +0.243 N 
BRANCH  18  20
ATOM     19  C   UNL     1       1.474  -4.196   2.896  0.00  0.00    +0.060 C 
ATOM     20  C   UNL     1       1.493  -3.018   3.859  0.00  0.00    +0.129 C 
ENDBRANCH  18  20
BRANCH  18  21
ATOM     21  C   UNL     1       2.168  -0.658   4.424  0.00  0.00    +0.129 C 
ATOM     22  C   UNL     1       2.835  -0.960   5.757  0.00  0.00    +0.060 C 
ENDBRANCH  18  21
BRANCH  18  23
ATOM     23  C   UNL     1       1.767  -1.259   2.004  0.00  0.00    +0.129 C 
ATOM     24  C   UNL     1       0.292  -0.886   2.011  0.00  0.00    +0.060 C 
ENDBRANCH  18  23
ENDBRANCH  17  18
ENDBRANCH  16  17
ENDBRANCH   1  16
TORSDOF 9
