REMARK  Name = 
REMARK  4 active torsions:
REMARK  status: ('A' for Active; 'I' for Inactive)
REMARK    1  A    between atoms: C_1  and  C_2
REMARK    2  A    between atoms: C_2  and  N_3
REMARK    3  A    between atoms: C_5  and  C_6
REMARK    4  A    between atoms: C_6  and  O_7
REMARK                            x       y       z     vdW  Elec       q    Type
REMARK                         _______ _______ _______ _____ _____    ______ ____
ROOT
ATOM      1  N   UNL     1       3.138  -0.908   1.107  0.00  0.00    -0.263 N 
ATOM      2  C   UNL     1       2.818  -2.272   1.002  0.00  0.00    +0.075 A 
ATOM      3  C   UNL     1       3.048  -3.137   2.093  0.00  0.00    +0.053 A 
ATOM      4  C   UNL     1       2.707  -4.498   2.078  0.00  0.00    +0.063 A 
ATOM      5  C   UNL     1       2.112  -4.978   0.937  0.00  0.00    +0.167 A 
ATOM      6  O   UNL     1       1.657  -6.242   0.739  0.00  0.00    -0.453 OA
ATOM      7  C   UNL     1       1.056  -6.113  -0.568  0.00  0.00    +0.466 C 
ATOM      8  O   UNL     1       1.300  -4.829  -1.179  0.00  0.00    -0.453 OA
ATOM      9  C   UNL     1       1.904  -4.172  -0.153  0.00  0.00    +0.168 A 
ATOM     10  C   UNL     1       3.643  -2.547   3.288  0.00  0.00    +0.222 A 
ATOM     11  O   UNL     1       3.954  -3.196   4.280  0.00  0.00    -0.285 OA
ATOM     12  C   UNL     1       3.861  -1.067   3.310  0.00  0.00    +0.215 A 
ATOM     13  C   UNL     1       2.262  -2.838  -0.159  0.00  0.00    +0.077 A 
ATOM     14  N   UNL     1       3.598  -0.340   2.263  0.00  0.00    -0.160 NA
ENDROOT
BRANCH   1  16
ATOM     15  C   UNL     1       1.188   0.352   0.256  0.00  0.00    +0.029 C 
ATOM     16  C   UNL     1       2.676   0.062   0.099  0.00  0.00    +0.141 C 
ENDBRANCH   1  16
BRANCH  12  17
ATOM     17  C   UNL     1       4.379  -0.346   4.565  0.00  0.00    +0.361 C 
ATOM     18  O   UNL     1       4.509   0.865   4.608  0.00  0.00    -0.243 OA
BRANCH  17  19
ATOM     19  O   UNL     1       4.678  -1.150   5.599  0.00  0.00    -0.476 OA
ATOM     20  H   UNL     1       4.522  -2.111   5.431  0.00  0.00    +0.295 HD
ENDBRANCH  17  19
ENDBRANCH  12  17
TORSDOF 3
