REMARK  Name = 
REMARK  3 active torsions:
REMARK  status: ('A' for Active; 'I' for Inactive)
REMARK    1  A    between atoms: C_1  and  N_2
REMARK    2  A    between atoms: C_3  and  C_4
REMARK    3  A    between atoms: C_13  and  O_14
REMARK                            x       y       z     vdW  Elec       q    Type
REMARK                         _______ _______ _______ _____ _____    ______ ____
ROOT
ATOM      1  C   UNL     1       0.656  -0.204   0.194  0.00  0.00    +0.158 C 
ATOM      2  N   UNL     1       2.122  -0.081   0.150  0.00  0.00    -0.197 N 
ATOM      3  S   UNL     1       2.883  -1.567  -0.091  0.00  0.00    +0.075 S 
ATOM      4  O   UNL     1       2.553  -2.401   1.054  0.00  0.00    -0.150 OA
ATOM      5  O   UNL     1       2.561  -2.003  -1.433  0.00  0.00    -0.150 OA
ATOM      6  C   UNL     1       4.598  -1.311  -0.038  0.00  0.00    +0.119 A 
ATOM      7  C   UNL     1       5.436  -2.435  -0.009  0.00  0.00    +0.029 A 
ATOM      8  C   UNL     1       6.819  -2.271   0.024  0.00  0.00    +0.002 A 
ATOM      9  C   UNL     1       7.347  -0.985   0.026  0.00  0.00    +0.001 A 
ATOM     10  C   UNL     1       6.495   0.125   0.005  0.00  0.00    +0.013 A 
ATOM     11  C   UNL     1       5.090  -0.015  -0.026  0.00  0.00    +0.045 A 
ATOM     12  C   UNL     1       4.205   1.167  -0.007  0.00  0.00    +0.153 C 
ATOM     13  C   UNL     1       2.850   1.153   0.071  0.00  0.00    +0.155 C 
ENDROOT
BRANCH  13  14
ATOM     14  C   UNL     1       2.168   2.501   0.216  0.00  0.00    +0.268 C 
ATOM     15  N   UNL     1       1.008   2.695  -0.490  0.00  0.00    -0.265 N 
ATOM     16  H   UNL     1       0.810   2.089  -1.274  0.00  0.00    +0.157 HD
ATOM     17  C   UNL     1       0.323   3.916  -0.546  0.00  0.00    +0.125 A 
ATOM     18  C   UNL     1       0.230   4.793   0.533  0.00  0.00    +0.044 A 
ATOM     19  C   UNL     1      -0.419   6.015   0.354  0.00  0.00    +0.005 A 
ATOM     20  C   UNL     1      -0.930   6.335  -0.897  0.00  0.00    +0.020 A 
ATOM     21  C   UNL     1      -0.818   5.390  -1.901  0.00  0.00    +0.113 A 
ATOM     22  N   UNL     1      -0.241   4.175  -1.741  0.00  0.00    -0.240 NA
ATOM     23  O   UNL     1       2.751   3.400   0.830  0.00  0.00    -0.268 OA
ENDBRANCH  13  14
BRANCH  12  24
ATOM     24  O   UNL     1       4.937   2.356  -0.057  0.00  0.00    -0.504 OA
ATOM     25  H   UNL     1       4.366   3.107   0.214  0.00  0.00    +0.292 HD
ENDBRANCH  12  24
TORSDOF 2
