REMARK  Name = 
REMARK  3 active torsions:
REMARK  status: ('A' for Active; 'I' for Inactive)
REMARK    1  A    between atoms: C_1  and  C_2
REMARK    2  A    between atoms: C_2  and  C_3
REMARK    3  A    between atoms: C_3  and  C_11
REMARK                            x       y       z     vdW  Elec       q    Type
REMARK                         _______ _______ _______ _____ _____    ______ ____
ROOT
ATOM      1  C   UNL     1       3.018   0.764  -1.151  0.00  0.00    +0.147 C 
ATOM      2  C   UNL     1       3.623   2.021  -0.495  0.00  0.00    +0.234 C 
ATOM      3  O   UNL     1       4.795   2.122  -0.132  0.00  0.00    -0.274 OA
ATOM      4  N   UNL     1       2.747   3.009  -0.134  0.00  0.00    -0.299 N 
ATOM      5  H   UNL     1       3.211   3.775   0.339  0.00  0.00    +0.150 HD
ATOM      6  C   UNL     1       1.646   3.343  -0.968  0.00  0.00    +0.212 C 
ATOM      7  N   UNL     1       1.038   2.208  -1.569  0.00  0.00    -0.299 N 
ATOM      8  H   UNL     1       0.240   2.377  -2.173  0.00  0.00    +0.150 HD
ATOM      9  C   UNL     1       1.780   1.142  -1.990  0.00  0.00    +0.234 C 
ATOM     10  O   UNL     1       1.341   0.476  -2.928  0.00  0.00    -0.274 OA
ENDROOT
BRANCH   1  11
ATOM     11  C   UNL     1       4.095   0.015  -1.974  0.00  0.00    -0.024 A 
ATOM     12  C   UNL     1       4.916  -0.972  -1.394  0.00  0.00    +0.005 A 
ATOM     13  C   UNL     1       5.834  -1.700  -2.158  0.00  0.00    +0.000 A 
ATOM     14  C   UNL     1       5.979  -1.435  -3.514  0.00  0.00    +0.000 A 
ATOM     15  C   UNL     1       5.228  -0.421  -4.099  0.00  0.00    +0.000 A 
ATOM     16  C   UNL     1       4.307   0.306  -3.335  0.00  0.00    +0.005 A 
ENDBRANCH   1  11
BRANCH   1  18
ATOM     17  C   UNL     1       1.757  -1.365  -0.297  0.00  0.00    +0.006 C 
ATOM     18  C   UNL     1       2.457  -0.057   0.061  0.00  0.00    +0.027 C 
ENDBRANCH   1  18
TORSDOF 2
