REMARK  Name = 
REMARK  7 active torsions:
REMARK  status: ('A' for Active; 'I' for Inactive)
REMARK    1  A    between atoms: C_1  and  N_2
REMARK    2  A    between atoms: C_10  and  O_13
REMARK    3  A    between atoms: O_13  and  C_14
REMARK    4  A    between atoms: C_14  and  C_16
REMARK    5  A    between atoms: C_16  and  C_17
REMARK    6  A    between atoms: C_16  and  C_19
REMARK    7  A    between atoms: C_17  and  O_18
REMARK                            x       y       z     vdW  Elec       q    Type
REMARK                         _______ _______ _______ _____ _____    ______ ____
ROOT
ATOM      1  C   UNL     1       2.023  -0.492  -5.146  0.00  0.00    +0.317 C 
ATOM      2  O   UNL     1       1.791  -1.695  -5.110  0.00  0.00    -0.250 OA
ENDROOT
BRANCH   1   3
ATOM      3  O   UNL     1       2.615   0.208  -4.140  0.00  0.00    -0.461 OA
BRANCH   3   8
ATOM      4  C   UNL     1       1.098  -0.158   0.285  0.00  0.00    +0.105 C 
ATOM      5  N   UNL     1       2.522  -0.138  -0.007  0.00  0.00    -0.299 NA
ATOM      6  C   UNL     1       3.021  -1.239  -0.832  0.00  0.00    +0.060 C 
ATOM      7  C   UNL     1       2.340  -1.328  -2.199  0.00  0.00    +0.063 C 
ATOM      8  C   UNL     1       1.995   0.025  -2.852  0.00  0.00    +0.179 C 
ATOM      9  C   UNL     1       2.289   1.294  -2.030  0.00  0.00    +0.063 C 
ATOM     10  C   UNL     1       4.491  -0.844  -0.988  0.00  0.00    +0.020 C 
ATOM     11  C   UNL     1       4.482   0.680  -0.934  0.00  0.00    +0.020 C 
ATOM     12  C   UNL     1       3.013   1.051  -0.703  0.00  0.00    +0.060 C 
ENDBRANCH   3   8
ENDBRANCH   1   3
BRANCH   1  13
ATOM     13  C   UNL     1       1.652   0.426  -6.293  0.00  0.00    +0.153 C 
BRANCH  13  14
ATOM     14  C   UNL     1       0.140   0.572  -6.422  0.00  0.00    -0.032 A 
ATOM     15  C   UNL     1      -0.686  -0.529  -6.699  0.00  0.00    +0.004 A 
ATOM     16  C   UNL     1      -2.072  -0.385  -6.781  0.00  0.00    +0.000 A 
ATOM     17  C   UNL     1      -2.656   0.863  -6.587  0.00  0.00    +0.000 A 
ATOM     18  C   UNL     1      -1.853   1.967  -6.308  0.00  0.00    +0.000 A 
ATOM     19  C   UNL     1      -0.466   1.823  -6.223  0.00  0.00    +0.004 A 
ENDBRANCH  13  14
BRANCH  13  20
ATOM     20  C   UNL     1       2.376  -0.036  -7.564  0.00  0.00    +0.175 C 
BRANCH  20  21
ATOM     21  O   UNL     1       2.041  -1.355  -7.993  0.00  0.00    -0.394 OA
ATOM     22  H   UNL     1       2.118  -1.957  -7.229  0.00  0.00    +0.209 HD
ENDBRANCH  20  21
ENDBRANCH  13  20
ENDBRANCH   1  13
TORSDOF 6
