REMARK  Name = 
REMARK  10 active torsions:
REMARK  status: ('A' for Active; 'I' for Inactive)
REMARK    1  A    between atoms: C_1  and  N_2
REMARK    2  A    between atoms: N_2  and  C_3
REMARK    3  A    between atoms: N_2  and  C_4
REMARK    4  A    between atoms: C_4  and  C_5
REMARK    5  A    between atoms: C_5  and  O_6
REMARK    6  A    between atoms: O_6  and  C_7
REMARK    7  A    between atoms: C_7  and  C_9
REMARK    8  A    between atoms: C_9  and  C_10
REMARK    9  A    between atoms: C_9  and  C_16
REMARK   10  A    between atoms: C_16  and  O_17
REMARK                            x       y       z     vdW  Elec       q    Type
REMARK                         _______ _______ _______ _____ _____    ______ ____
ROOT
ATOM      1  C   UNL     1       6.776  -1.288  -4.051  0.00  0.00    +0.159 C 
ENDROOT
BRANCH   1   2
ATOM      2  C   UNL     1       6.159  -0.316  -5.055  0.00  0.00    -0.031 A 
ATOM      3  C   UNL     1       5.869  -0.768  -6.358  0.00  0.00    +0.004 A 
ATOM      4  C   UNL     1       5.242   0.066  -7.281  0.00  0.00    +0.000 A 
ATOM      5  C   UNL     1       4.896   1.365  -6.920  0.00  0.00    +0.000 A 
ATOM      6  C   UNL     1       5.201   1.835  -5.645  0.00  0.00    +0.000 A 
ATOM      7  C   UNL     1       5.841   1.007  -4.717  0.00  0.00    +0.004 A 
ENDBRANCH   1   2
BRANCH   1   8
ATOM      8  C   UNL     1       8.326  -1.324  -4.053  0.00  0.00    +0.083 C 
ATOM      9  C   UNL     1       8.896  -2.507  -3.238  0.00  0.00    +0.036 C 
ATOM     10  C   UNL     1      10.167  -1.995  -2.560  0.00  0.00    +0.003 C 
ATOM     11  C   UNL     1      10.416  -0.599  -3.111  0.00  0.00    +0.003 C 
ATOM     12  C   UNL     1       9.036  -0.083  -3.502  0.00  0.00    +0.036 C 
BRANCH   8  13
ATOM     13  O   UNL     1       8.801  -1.543  -5.401  0.00  0.00    -0.387 OA
ATOM     14  H   UNL     1       8.612  -0.738  -5.916  0.00  0.00    +0.210 HD
ENDBRANCH   8  13
ENDBRANCH   1   8
BRANCH   1  15
ATOM     15  C   UNL     1       6.172  -1.171  -2.651  0.00  0.00    +0.317 C 
ATOM     16  O   UNL     1       6.783  -1.016  -1.600  0.00  0.00    -0.250 OA
BRANCH  15  17
ATOM     17  O   UNL     1       4.829  -1.416  -2.704  0.00  0.00    -0.463 OA
BRANCH  17  18
ATOM     18  C   UNL     1       4.404  -2.406  -1.759  0.00  0.00    +0.247 C 
BRANCH  18  19
ATOM     19  C   UNL     1       3.534  -1.836  -0.632  0.00  0.00    +0.125 C 
BRANCH  19  21
ATOM     20  C   UNL     1       2.299  -2.289   1.400  0.00  0.00    +0.104 C 
ATOM     21  N   UNL     1       3.074  -2.881   0.308  0.00  0.00    -0.305 NA
ATOM     22  C   UNL     1       2.282  -3.921  -0.352  0.00  0.00    +0.104 C 
ENDBRANCH  19  21
ENDBRANCH  18  19
ENDBRANCH  17  18
ENDBRANCH  15  17
ENDBRANCH   1  15
TORSDOF 8
