REMARK  Name = 
REMARK  5 active torsions:
REMARK  status: ('A' for Active; 'I' for Inactive)
REMARK    1  A    between atoms: C_1  and  C_2
REMARK    2  A    between atoms: C_2  and  C_3
REMARK    3  A    between atoms: C_2  and  C_4
REMARK    4  A    between atoms: C_8  and  C_10
REMARK    5  A    between atoms: C_12  and  O_14
REMARK                            x       y       z     vdW  Elec       q    Type
REMARK                         _______ _______ _______ _____ _____    ______ ____
ROOT
ATOM      1  C   UNL     1       2.888  -1.638   0.247  0.00  0.00    +0.020 C 
ATOM      2  C   UNL     1       4.101  -0.908  -0.372  0.00  0.00    +0.118 C 
ATOM      3  C   UNL     1       3.977  -0.834  -1.901  0.00  0.00    +0.035 C 
ATOM      4  C   UNL     1       3.760  -2.200  -2.560  0.00  0.00    -0.012 C 
ATOM      5  C   UNL     1       3.476  -2.038  -4.054  0.00  0.00    +0.007 C 
ATOM      6  C   UNL     1       2.617  -2.969  -1.890  0.00  0.00    +0.004 C 
ATOM      7  C   UNL     1       2.795  -3.044  -0.378  0.00  0.00    +0.006 C 
ENDROOT
BRANCH   1   9
ATOM      8  C   UNL     1       2.754  -0.346   2.481  0.00  0.00    +0.007 C 
ATOM      9  C   UNL     1       2.815  -1.716   1.801  0.00  0.00    -0.012 C 
ATOM     10  C   UNL     1       3.912  -2.564   2.447  0.00  0.00    +0.007 C 
ENDBRANCH   1   9
BRANCH   2  11
ATOM     11  O   UNL     1       4.220   0.427   0.107  0.00  0.00    -0.391 OA
ATOM     12  H   UNL     1       3.413   0.909  -0.142  0.00  0.00    +0.210 HD
ENDBRANCH   2  11
TORSDOF 2
