REMARK  Name = 
REMARK  1 active torsions:
REMARK  status: ('A' for Active; 'I' for Inactive)
REMARK    1  A    between atoms: C_3  and  C_12
REMARK                            x       y       z     vdW  Elec       q    Type
REMARK                         _______ _______ _______ _____ _____    ______ ____
ROOT
ATOM      1  O   UNL     1       1.005   0.110  -0.113  0.00  0.00    -0.291 OA
ATOM      2  C   UNL     1       2.215   0.017  -0.001  0.00  0.00    +0.179 C 
ATOM      3  C   UNL     1       2.926  -1.260   0.006  0.00  0.00    +0.029 A 
ATOM      4  C   UNL     1       4.293  -1.037   0.069  0.00  0.00    +0.029 A 
ATOM      5  C   UNL     1       5.199  -2.082   0.094  0.00  0.00    +0.012 A 
ATOM      6  C   UNL     1       4.686  -3.382   0.060  0.00  0.00    +0.001 A 
ATOM      7  C   UNL     1       3.297  -3.607   0.001  0.00  0.00    +0.001 A 
ATOM      8  C   UNL     1       4.561   0.400   0.129  0.00  0.00    +0.179 C 
ATOM      9  O   UNL     1       5.684   0.868   0.178  0.00  0.00    -0.291 OA
ATOM     10  C   UNL     1       2.398  -2.537  -0.029  0.00  0.00    +0.012 A 
ATOM     11  C   UNL     1       3.233   1.142   0.131  0.00  0.00    +0.161 C 
ENDROOT
BRANCH  11  12
ATOM     12  C   UNL     1       2.977   1.993   1.357  0.00  0.00    -0.029 A 
ATOM     13  C   UNL     1       2.105   3.090   1.256  0.00  0.00    +0.005 A 
ATOM     14  C   UNL     1       1.799   3.864   2.376  0.00  0.00    +0.000 A 
ATOM     15  C   UNL     1       2.353   3.551   3.615  0.00  0.00    +0.000 A 
ATOM     16  C   UNL     1       3.214   2.463   3.733  0.00  0.00    +0.000 A 
ATOM     17  C   UNL     1       3.523   1.687   2.614  0.00  0.00    +0.005 A 
ENDBRANCH  11  12
TORSDOF 1
