REMARK  Name = 
REMARK  19 active torsions:
REMARK  status: ('A' for Active; 'I' for Inactive)
REMARK    1  A    between atoms: N_3  and  C_4
REMARK    2  A    between atoms: C_8  and  C_13
REMARK    3  A    between atoms: C_9  and  O_10
REMARK    4  A    between atoms: O_10  and  C_11
REMARK    5  A    between atoms: C_13  and  C_36
REMARK    6  A    between atoms: C_20  and  O_21
REMARK    7  A    between atoms: C_20  and  C_22
REMARK    8  A    between atoms: C_22  and  C_23
REMARK    9  A    between atoms: C_36  and  O_38
REMARK   10  A    between atoms: O_38  and  C_39
REMARK   11  A    between atoms: C_47  and  C_48
REMARK   12  A    between atoms: C_48  and  C_49
REMARK   13  A    between atoms: C_50  and  O_52
REMARK   14  A    between atoms: O_52  and  C_53
REMARK   15  A    between atoms: C_53  and  C_54
REMARK   16  A    between atoms: C_56  and  O_57
REMARK   17  A    between atoms: C_56  and  C_58
REMARK   18  A    between atoms: C_58  and  O_60
REMARK   19  A    between atoms: O_60  and  C_61
REMARK                            x       y       z     vdW  Elec       q    Type
REMARK                         _______ _______ _______ _____ _____    ______ ____
ROOT
ATOM      1  C   UNL     1      -0.000  -0.000  -0.000  0.00  0.00    +0.132 C 
ATOM      2  C   UNL     1      -0.000  -0.000  -0.000  0.00  0.00    +0.219 C 
ATOM      3  C   UNL     1      -0.000  -0.000  -0.000  0.00  0.00    +0.232 C 
ATOM      4  C   UNL     1      -0.000  -0.000  -0.000  0.00  0.00    +0.045 C 
ATOM      5  C   UNL     1      -0.000  -0.000  -0.000  0.00  0.00    +0.083 C 
ATOM      6  N   UNL     1      -0.000  -0.000  -0.000  0.00  0.00    -0.294 NA
ATOM      7  C   UNL     1      -0.000   0.000   0.000  0.00  0.00    +0.111 C 
ATOM      8  C   UNL     1      -0.000  -0.000  -0.000  0.00  0.00    -0.015 C 
ATOM      9  C   UNL     1      -0.000  -0.000  -0.000  0.00  0.00    +0.086 C 
ATOM     10  C   UNL     1      -0.000  -0.000  -0.000  0.00  0.00    +0.030 C 
ATOM     11  C   UNL     1      -0.000  -0.000  -0.000  0.00  0.00    -0.018 C 
ATOM     12  C   UNL     1      -0.000  -0.000  -0.000  0.00  0.00    +0.037 C 
ATOM     13  C   UNL     1      -0.000  -0.000  -0.000  0.00  0.00    -0.016 A 
ATOM     14  C   UNL     1      -0.000  -0.000  -0.000  0.00  0.00    +0.014 A 
ATOM     15  C   UNL     1      -0.000  -0.000  -0.000  0.00  0.00    +0.017 A 
ATOM     16  C   UNL     1      -0.000  -0.000  -0.000  0.00  0.00    +0.126 A 
ATOM     17  C   UNL     1      -0.000  -0.000  -0.000  0.00  0.00    +0.069 A 
ATOM     18  C   UNL     1      -0.000  -0.000  -0.000  0.00  0.00    +0.037 A 
ATOM     19  N   UNL     1      -0.000  -0.000  -0.000  0.00  0.00    -0.325 N 
ATOM     20  C   UNL     1      -0.000  -0.000  -0.000  0.00  0.00    +0.129 C 
ENDROOT
BRANCH  15  21
ATOM     21  C   UNL     1      -0.000  -0.000  -0.000  0.00  0.00    +0.136 C 
ATOM     22  C   UNL     1      -0.000  -0.000  -0.000  0.00  0.00    +0.042 A 
ATOM     23  N   UNL     1      -0.000  -0.000  -0.000  0.00  0.00    -0.357 N 
ATOM     24  H   UNL     1      -0.000  -0.000  -0.000  0.00  0.00    +0.166 HD
ATOM     25  C   UNL     1      -0.000  -0.000  -0.000  0.00  0.00    +0.047 A 
ATOM     26  C   UNL     1      -0.000  -0.000  -0.000  0.00  0.00    +0.003 A 
ATOM     27  C   UNL     1      -0.000  -0.000  -0.000  0.00  0.00    +0.010 A 
ATOM     28  C   UNL     1      -0.000  -0.000  -0.000  0.00  0.00    +0.001 A 
ATOM     29  C   UNL     1      -0.000  -0.000  -0.000  0.00  0.00    +0.002 A 
ATOM     30  C   UNL     1      -0.000  -0.000  -0.000  0.00  0.00    +0.026 A 
ATOM     31  C   UNL     1      -0.000  -0.000  -0.000  0.00  0.00    -0.016 A 
ATOM     32  C   UNL     1      -0.000  -0.000  -0.000  0.00  0.00    +0.053 C 
ATOM     33  C   UNL     1      -0.000  -0.000  -0.000  0.00  0.00    +0.089 C 
ATOM     34  N   UNL     1      -0.000  -0.000  -0.000  0.00  0.00    -0.299 NA
ATOM     35  C   UNL     1      -0.000  -0.000  -0.000  0.00  0.00    +0.119 C 
ATOM     36  C   UNL     1      -0.000  -0.000  -0.000  0.00  0.00    +0.079 C 
ATOM     37  C   UNL     1      -0.000  -0.000  -0.000  0.00  0.00    +0.041 C 
ATOM     38  C   UNL     1      -0.000  -0.000  -0.000  0.00  0.00    +0.008 C 
ATOM     39  C   UNL     1      -0.000  -0.000  -0.000  0.00  0.00    +0.088 C 
ATOM     40  C   UNL     1      -0.000  -0.000  -0.000  0.00  0.00    +0.034 C 
BRANCH  21  41
ATOM     41  C   UNL     1      -0.000  -0.000  -0.000  0.00  0.00    +0.323 C 
ATOM     42  O   UNL     1      -0.000  -0.000  -0.000  0.00  0.00    -0.249 OA
BRANCH  41  43
ATOM     43  O   UNL     1      -0.000  -0.000  -0.000  0.00  0.00    -0.467 OA
ATOM     44  C   UNL     1      -0.000  -0.000  -0.000  0.00  0.00    +0.280 C 
ENDBRANCH  41  43
ENDBRANCH  21  41
BRANCH  36  45
ATOM     45  O   UNL     1      -0.000  -0.000  -0.000  0.00  0.00    -0.387 OA
ATOM     46  H   UNL     1      -0.000  -0.000  -0.000  0.00  0.00    +0.210 HD
ENDBRANCH  36  45
BRANCH  36  47
ATOM     47  C   UNL     1      -0.000  -0.000  -0.000  0.00  0.00    +0.032 C 
ATOM     48  C   UNL     1      -0.000  -0.000  -0.000  0.00  0.00    +0.007 C 
ENDBRANCH  36  47
ENDBRANCH  15  21
BRANCH   2  49
ATOM     49  C   UNL     1      -0.000  -0.000  -0.000  0.00  0.00    +0.345 C 
ATOM     50  O   UNL     1      -0.000  -0.000  -0.000  0.00  0.00    -0.247 OA
BRANCH  49  51
ATOM     51  O   UNL     1      -0.000  -0.000  -0.000  0.00  0.00    -0.466 OA
ATOM     52  C   UNL     1      -0.000  -0.000  -0.000  0.00  0.00    +0.280 C 
ENDBRANCH  49  51
ENDBRANCH   2  49
BRANCH   2  53
ATOM     53  O   UNL     1      -0.000  -0.000  -0.000  0.00  0.00    -0.373 OA
ATOM     54  H   UNL     1       0.000   0.000   0.000  0.00  0.00    +0.211 HD
ENDBRANCH   2  53
BRANCH   4  55
ATOM     55  C   UNL     1      -0.000  -0.000  -0.000  0.00  0.00    +0.013 C 
ATOM     56  C   UNL     1      -0.000  -0.000  -0.000  0.00  0.00    +0.005 C 
ENDBRANCH   4  55
BRANCH  16  57
ATOM     57  O   UNL     1      -0.000  -0.000  -0.000  0.00  0.00    -0.495 OA
ATOM     58  C   UNL     1      -0.000  -0.000  -0.000  0.00  0.00    +0.277 C 
ENDBRANCH  16  57
BRANCH   3  59
ATOM     59  O   UNL     1      -0.000  -0.000  -0.000  0.00  0.00    -0.457 OA
BRANCH  59  60
ATOM     60  C   UNL     1      -0.000  -0.000  -0.000  0.00  0.00    +0.304 C 
ATOM     61  O   UNL     1      -0.000  -0.000  -0.000  0.00  0.00    -0.251 OA
ATOM     62  C   UNL     1      -0.000  -0.000  -0.000  0.00  0.00    +0.136 C 
ENDBRANCH  59  60
ENDBRANCH   3  59
TORSDOF 12
