REMARK  Name = 
REMARK  12 active torsions:
REMARK  status: ('A' for Active; 'I' for Inactive)
REMARK    1  A    between atoms: C_1  and  O_2
REMARK    2  A    between atoms: O_2  and  C_3
REMARK    3  A    between atoms: C_3  and  C_4
REMARK    4  A    between atoms: C_4  and  O_5
REMARK    5  A    between atoms: O_5  and  C_6
REMARK    6  A    between atoms: C_7  and  O_8
REMARK    7  A    between atoms: O_8  and  C_9
REMARK    8  A    between atoms: C_9  and  C_10
REMARK    9  A    between atoms: C_10  and  O_11
REMARK   10  A    between atoms: O_11  and  C_12
REMARK   11  A    between atoms: N_16  and  C_17
REMARK   12  A    between atoms: C_21  and  C_23
REMARK                            x       y       z     vdW  Elec       q    Type
REMARK                         _______ _______ _______ _____ _____    ______ ____
ROOT
ATOM      1  C   UNL     1       6.263  -0.016  -3.003  0.00  0.00    +0.164 A 
ATOM      2  C   UNL     1       6.922  -1.258  -3.078  0.00  0.00    +0.078 A 
ATOM      3  C   UNL     1       8.305  -1.374  -3.160  0.00  0.00    +0.080 A 
ATOM      4  C   UNL     1       9.061  -0.202  -3.136  0.00  0.00    +0.044 A 
ATOM      5  C   UNL     1      10.458  -0.365  -3.138  0.00  0.00    +0.134 A 
ATOM      6  N   UNL     1      11.028  -1.580  -3.206  0.00  0.00    -0.220 NA
ATOM      7  C   UNL     1      10.206  -2.629  -3.257  0.00  0.00    +0.223 A 
ATOM      8  N   UNL     1      11.289   0.784  -3.048  0.00  0.00    -0.299 N 
ATOM      9  H   UNL     1      11.134   1.398  -3.840  0.00  0.00    +0.154 HD
ATOM     10  C   UNL     1       8.417   1.046  -3.073  0.00  0.00    +0.062 A 
ATOM     11  N   UNL     1       8.868  -2.583  -3.232  0.00  0.00    -0.235 NA
ATOM     12  C   UNL     1       7.025   1.158  -3.048  0.00  0.00    +0.163 A 
ENDROOT
BRANCH   8  13
ATOM     13  C   UNL     1      12.603   0.833  -2.545  0.00  0.00    +0.034 A 
ATOM     14  C   UNL     1      13.024  -0.037  -1.533  0.00  0.00    +0.040 A 
ATOM     15  C   UNL     1      14.331   0.004  -1.044  0.00  0.00    +0.026 A 
ATOM     16  C   UNL     1      15.223   0.959  -1.525  0.00  0.00    +0.017 A 
ATOM     17  C   UNL     1      14.802   1.873  -2.491  0.00  0.00    +0.003 A 
ATOM     18  C   UNL     1      13.497   1.814  -2.992  0.00  0.00    +0.023 A 
BRANCH  15  19
ATOM     19  C   UNL     1      14.743  -0.966  -0.078  0.00  0.00    -0.070 C 
ATOM     20  C   UNL     1      15.053  -1.826   0.700  0.00  0.00    +0.009 C 
ENDBRANCH  15  19
ENDBRANCH   8  13
BRANCH   1  21
ATOM     21  O   UNL     1       4.901  -0.147  -2.894  0.00  0.00    -0.486 OA
BRANCH  21  22
ATOM     22  C   UNL     1       4.121   1.039  -2.771  0.00  0.00    +0.257 C 
BRANCH  22  23
ATOM     23  C   UNL     1       2.647   0.671  -2.628  0.00  0.00    +0.200 C 
BRANCH  23  25
ATOM     24  C   UNL     1       0.489   1.612  -2.462  0.00  0.00    +0.194 C 
ATOM     25  O   UNL     1       1.878   1.875  -2.595  0.00  0.00    -0.380 OA
ENDBRANCH  23  25
ENDBRANCH  22  23
ENDBRANCH  21  22
ENDBRANCH   1  21
BRANCH  12  26
ATOM     26  O   UNL     1       6.419   2.384  -3.000  0.00  0.00    -0.486 OA
BRANCH  26  27
ATOM     27  C   UNL     1       7.074   3.442  -3.714  0.00  0.00    +0.257 C 
BRANCH  27  28
ATOM     28  C   UNL     1       6.305   4.746  -3.532  0.00  0.00    +0.200 C 
BRANCH  28  29
ATOM     29  O   UNL     1       6.377   5.130  -2.156  0.00  0.00    -0.380 OA
ATOM     30  C   UNL     1       5.742   6.377  -1.921  0.00  0.00    +0.194 C 
ENDBRANCH  28  29
ENDBRANCH  27  28
ENDBRANCH  26  27
ENDBRANCH  12  26
TORSDOF 10
