REMARK  Name = 
REMARK  44 active torsions:
REMARK  status: ('A' for Active; 'I' for Inactive)
REMARK    1  A    between atoms: C_1  and  C_2
REMARK    2  A    between atoms: C_2  and  C_3
REMARK    3  A    between atoms: C_2  and  C_4
REMARK    4  A    between atoms: C_4  and  C_5
REMARK    5  A    between atoms: C_5  and  N_7
REMARK    6  A    between atoms: C_5  and  C_84
REMARK    7  A    between atoms: C_8  and  C_10
REMARK    8  A    between atoms: C_10  and  C_12
REMARK    9  A    between atoms: C_10  and  N_19
REMARK   10  A    between atoms: C_12  and  C_13
REMARK   11  A    between atoms: C_13  and  C_14
REMARK   12  A    between atoms: C_14  and  N_15
REMARK   13  A    between atoms: C_20  and  C_22
REMARK   14  A    between atoms: C_22  and  C_24
REMARK   15  A    between atoms: C_22  and  N_32
REMARK   16  A    between atoms: C_24  and  C_25
REMARK   17  A    between atoms: C_28  and  O_29
REMARK   18  A    between atoms: C_33  and  CA_35
REMARK   19  A    between atoms: CA_35  and  C_37
REMARK   20  A    between atoms: CA_35  and  N_39
REMARK   21  A    between atoms: C_37  and  O_38
REMARK   22  A    between atoms: C_40  and  CA_42
REMARK   23  A    between atoms: CA_42  and  C_44
REMARK   24  A    between atoms: CA_42  and  N_51
REMARK   25  A    between atoms: C_44  and  C_45
REMARK   26  A    between atoms: C_52  and  CA_54
REMARK   27  A    between atoms: CA_54  and  C_56
REMARK   28  A    between atoms: CA_54  and  N_64
REMARK   29  A    between atoms: C_56  and  C_57
REMARK   30  A    between atoms: C_65  and  CA_67
REMARK   31  A    between atoms: CA_67  and  C_69
REMARK   32  A    between atoms: CA_67  and  N_80
REMARK   33  A    between atoms: C_69  and  C_70
REMARK   34  A    between atoms: C_81  and  C_82
REMARK   35  A    between atoms: N_86  and  C_87
REMARK   36  A    between atoms: C_87  and  C_89
REMARK   37  A    between atoms: C_87  and  C_96
REMARK   38  A    between atoms: C_89  and  C_90
REMARK   39  A    between atoms: C_90  and  C_91
REMARK   40  A    between atoms: C_91  and  N_92
REMARK   41  A    between atoms: C_102  and  C_104
REMARK   42  A    between atoms: N_106  and  C_107
REMARK   43  A    between atoms: C_107  and  C_109
REMARK   44  A    between atoms: C_107  and  C_110
REMARK                            x       y       z     vdW  Elec       q    Type
REMARK                         _______ _______ _______ _____ _____    ______ ____
ROOT
ATOM      1  C   UNL     1     -10.364  16.205 -33.274  0.00  0.00    +0.163 C 
ENDROOT
BRANCH   1   4
ATOM      2  N   UNL     1      -7.923  16.308 -33.273  0.00  0.00    -0.302 N 
ATOM      3  H   UNL     1      -8.062  17.293 -33.081  0.00  0.00    +0.150 HD
ATOM      4  C   UNL     1      -9.022  15.458 -33.149  0.00  0.00    +0.234 C 
ATOM      5  O   UNL     1      -8.905  14.240 -33.092  0.00  0.00    -0.274 OA
BRANCH   2   6
ATOM      6  C   UNL     1      -6.575  15.751 -33.139  0.00  0.00    +0.159 C 
BRANCH   6   9
ATOM      7  N   UNL     1      -6.858  15.201 -35.563  0.00  0.00    -0.302 N 
ATOM      8  H   UNL     1      -7.194  16.157 -35.614  0.00  0.00    +0.150 HD
ATOM      9  C   UNL     1      -6.239  14.853 -34.374  0.00  0.00    +0.234 C 
ATOM     10  O   UNL     1      -5.376  13.979 -34.313  0.00  0.00    -0.274 OA
BRANCH   7  11
ATOM     11  C   UNL     1      -6.628  14.491 -36.852  0.00  0.00    +0.159 C 
BRANCH  11  12
ATOM     12  C   UNL     1      -7.173  15.441 -37.989  0.00  0.00    +0.234 C 
ATOM     13  N   UNL     1      -7.741  14.959 -39.145  0.00  0.00    -0.302 N 
ATOM     14  H   UNL     1      -7.361  14.102 -39.526  0.00  0.00    +0.150 HD
ATOM     15  O   UNL     1      -7.058  16.656 -37.801  0.00  0.00    -0.274 OA
BRANCH  13  16
ATOM     16  C   UNL     1      -8.618  15.647 -40.148  0.00  0.00    +0.159 C 
BRANCH  16  17
ATOM     17  C   UNL     1      -9.297  14.537 -41.014  0.00  0.00    +0.237 C 
ATOM     18  N   UNL     1     -10.492  14.785 -41.673  0.00  0.00    -0.288 N 
ATOM     19  C   UNL     1     -11.433  15.933 -41.604  0.00  0.00    +0.162 C 
ATOM     20  C   UNL     1     -11.975  16.013 -43.064  0.00  0.00    +0.033 C 
ATOM     21  C   UNL     1     -11.485  14.758 -43.796  0.00  0.00    +0.021 C 
ATOM     22  C   UNL     1     -10.948  13.856 -42.701  0.00  0.00    +0.109 C 
ATOM     23  O   UNL     1      -8.692  13.466 -41.162  0.00  0.00    -0.274 OA
BRANCH  19  24
ATOM     24  C   UNL     1     -12.684  15.717 -40.615  0.00  0.00    +0.234 C 
ATOM     25  N   UNL     1     -12.623  16.307 -39.349  0.00  0.00    -0.303 N 
ATOM     26  H   UNL     1     -11.785  16.862 -39.262  0.00  0.00    +0.149 HD
ATOM     27  O   UNL     1     -13.639  15.038 -40.982  0.00  0.00    -0.274 OA
BRANCH  25  28
ATOM     28  C   UNL     1     -13.569  16.127 -38.093  0.00  0.00    +0.156 C 
ATOM     29  C   UNL     1     -14.939  15.755 -38.634  0.00  0.00    +0.038 C 
BRANCH  28  30
ATOM     30  C   UNL     1     -13.979  17.125 -36.720  0.00  0.00    +0.231 C 
ATOM     31  O   UNL     1     -15.130  17.126 -36.264  0.00  0.00    -0.274 OA
ATOM     32  N   UNL     1     -13.176  17.917 -35.947  0.00  0.00    -0.328 N 
ATOM     33  H   UNL     1     -13.608  18.224 -35.084  0.00  0.00    +0.145 HD
ATOM     34  H   UNL     1     -12.177  18.124 -35.833  0.00  0.00    +0.145 HD
ENDBRANCH  28  30
ENDBRANCH  25  28
ENDBRANCH  19  24
ENDBRANCH  16  17
BRANCH  16  35
ATOM     35  C   UNL     1      -7.862  16.604 -41.093  0.00  0.00    +0.035 C 
BRANCH  35  36
ATOM     36  C   UNL     1      -7.299  17.845 -40.406  0.00  0.00    +0.039 C 
BRANCH  36  37
ATOM     37  C   UNL     1      -6.609  18.815 -41.357  0.00  0.00    +0.196 C 
BRANCH  37  38
ATOM     38  N   UNL     1      -6.189  19.989 -40.599  0.00  0.00    -0.276 N 
ATOM     39  H   UNL     1      -5.982  19.799 -39.628  0.00  0.00    +0.258 HD
ATOM     40  C   UNL     1      -5.378  20.938 -41.112  0.00  0.00    +0.376 C 
ATOM     41  N   UNL     1      -5.005  21.090 -42.328  0.00  0.00    -0.130 NA
ATOM     42  H   UNL     1      -5.404  20.347 -42.901  0.00  0.00    +0.306 HD
ATOM     43  N   UNL     1      -4.957  21.799 -40.169  0.00  0.00    -0.289 N 
ATOM     44  H   UNL     1      -4.513  22.597 -40.615  0.00  0.00    +0.255 HD
ATOM     45  H   UNL     1      -5.691  22.104 -39.543  0.00  0.00    +0.255 HD
ENDBRANCH  37  38
ENDBRANCH  36  37
ENDBRANCH  35  36
ENDBRANCH  16  35
ENDBRANCH  13  16
ENDBRANCH  11  12
BRANCH  11  46
ATOM     46  C   UNL     1      -7.157  13.042 -36.752  0.00  0.00    +0.034 C 
BRANCH  46  48
ATOM     47  C   UNL     1      -5.711  12.317 -38.719  0.00  0.00    +0.007 C 
ATOM     48  C   UNL     1      -7.078  12.207 -38.039  0.00  0.00    -0.015 C 
ATOM     49  C   UNL     1      -7.434  10.737 -37.836  0.00  0.00    +0.007 C 
ENDBRANCH  46  48
ENDBRANCH  11  46
ENDBRANCH   7  11
ENDBRANCH   6   9
BRANCH   6  50
ATOM     50  C   UNL     1      -5.515  16.861 -33.008  0.00  0.00    +0.033 C 
BRANCH  50  51
ATOM     51  C   UNL     1      -5.691  17.753 -31.768  0.00  0.00    +0.021 C 
BRANCH  51  52
ATOM     52  C   UNL     1      -4.604  18.828 -31.685  0.00  0.00    +0.106 C 
BRANCH  52  53
ATOM     53  N   UNL     1      -4.783  19.686 -30.529  0.00  0.00    -0.300 N 
ATOM     54  H   UNL     1      -4.273  19.478 -29.685  0.00  0.00    +0.150 HD
ATOM     55  C   UNL     1      -5.548  20.811 -30.565  0.00  0.00    +0.297 C 
ATOM     56  O   UNL     1      -6.198  21.194 -31.527  0.00  0.00    -0.253 OA
ATOM     57  N   UNL     1      -5.512  21.511 -29.405  0.00  0.00    -0.313 N 
ATOM     58  H   UNL     1      -6.124  22.315 -29.351  0.00  0.00    +0.146 HD
ATOM     59  H   UNL     1      -5.231  21.083 -28.538  0.00  0.00    +0.146 HD
ENDBRANCH  52  53
ENDBRANCH  51  52
ENDBRANCH  50  51
ENDBRANCH   6  50
ENDBRANCH   2   6
ENDBRANCH   1   4
BRANCH   1  60
ATOM     60  N   UNL     1     -10.385  16.675 -34.679  0.00  0.00    -0.302 N 
ATOM     61  H   UNL     1      -9.513  17.127 -34.940  0.00  0.00    +0.150 HD
ATOM     62  C   UNL     1     -11.146  16.233 -35.742  0.00  0.00    +0.236 C 
ATOM     63  O   UNL     1     -12.091  15.466 -35.564  0.00  0.00    -0.274 OA
BRANCH  62  64
ATOM     64  CA  UNL     1     -10.877  17.030 -37.191  0.00  0.00    +0.184 C 
BRANCH  64  65
ATOM     65  N   UNL     1     -11.712  18.323 -37.746  0.00  0.00    -0.301 N 
ATOM     66  H   UNL     1     -12.544  18.524 -37.230  0.00  0.00    +0.150 HD
ATOM     67  C   UNL     1     -11.935  19.095 -38.861  0.00  0.00    +0.234 C 
ATOM     68  O   UNL     1     -11.329  18.900 -39.916  0.00  0.00    -0.274 OA
BRANCH  67  69
ATOM     69  CA  UNL     1     -13.138  20.236 -38.728  0.00  0.00    +0.163 C 
BRANCH  69  70
ATOM     70  N   UNL     1     -12.443  21.326 -39.385  0.00  0.00    -0.302 N 
ATOM     71  H   UNL     1     -11.645  21.040 -39.888  0.00  0.00    +0.150 HD
ATOM     72  C   UNL     1     -12.978  22.569 -39.721  0.00  0.00    +0.234 C 
ATOM     73  O   UNL     1     -14.152  22.854 -39.547  0.00  0.00    -0.274 OA
BRANCH  72  74
ATOM     74  CA  UNL     1     -11.897  23.591 -40.224  0.00  0.00    +0.163 C 
BRANCH  74  75
ATOM     75  N   UNL     1     -12.328  24.152 -41.484  0.00  0.00    -0.302 N 
ATOM     76  H   UNL     1     -12.294  23.583 -42.332  0.00  0.00    +0.150 HD
ATOM     77  C   UNL     1     -13.029  25.335 -41.545  0.00  0.00    +0.234 C 
ATOM     78  O   UNL     1     -13.289  26.020 -40.560  0.00  0.00    -0.274 OA
BRANCH  77  79
ATOM     79  CA  UNL     1     -13.481  25.687 -42.968  0.00  0.00    +0.163 C 
BRANCH  79  80
ATOM     80  N   UNL     1     -12.296  25.865 -43.816  0.00  0.00    -0.304 N 
ATOM     81  H   UNL     1     -11.903  26.795 -43.875  0.00  0.00    +0.149 HD
ATOM     82  C   UNL     1     -11.695  24.835 -44.490  0.00  0.00    +0.211 C 
ATOM     83  O   UNL     1     -12.053  23.665 -44.380  0.00  0.00    -0.276 OA
ATOM     84  C   UNL     1     -10.526  25.253 -45.342  0.00  0.00    +0.109 C 
ENDBRANCH  79  80
BRANCH  79  85
ATOM     85  C   UNL     1     -14.351  26.950 -42.952  0.00  0.00    +0.067 C 
BRANCH  85  86
ATOM     86  C   UNL     1     -14.793  27.339 -44.343  0.00  0.00    -0.045 A 
ATOM     87  C   UNL     1     -15.531  26.445 -45.127  0.00  0.00    +0.004 A 
ATOM     88  C   UNL     1     -15.868  26.768 -46.438  0.00  0.00    +0.009 A 
ATOM     89  C   UNL     1     -15.503  28.005 -46.984  0.00  0.00    -0.018 A 
ATOM     90  C   UNL     1     -14.780  28.928 -46.195  0.00  0.00    -0.018 A 
ATOM     91  C   UNL     1     -14.426  30.170 -46.745  0.00  0.00    +0.008 A 
ATOM     92  C   UNL     1     -14.792  30.501 -48.050  0.00  0.00    +0.001 A 
ATOM     93  C   UNL     1     -15.502  29.589 -48.826  0.00  0.00    +0.001 A 
ATOM     94  C   UNL     1     -15.850  28.346 -48.299  0.00  0.00    +0.008 A 
ATOM     95  C   UNL     1     -14.431  28.582 -44.880  0.00  0.00    +0.012 A 
ENDBRANCH  85  86
ENDBRANCH  79  85
ENDBRANCH  77  79
ENDBRANCH  74  75
BRANCH  74  96
ATOM     96  C   UNL     1     -10.509  22.932 -40.353  0.00  0.00    +0.067 C 
BRANCH  96  97
ATOM     97  C   UNL     1      -9.399  23.782 -40.887  0.00  0.00    -0.045 A 
ATOM     98  C   UNL     1      -8.726  23.376 -42.045  0.00  0.00    +0.005 A 
ATOM     99  C   UNL     1      -7.639  24.121 -42.530  0.00  0.00    +0.020 A 
ATOM    100  C   UNL     1      -7.291  25.287 -41.889  0.00  0.00    +0.041 A 
ATOM    101 CL   UNL     1      -5.963  26.199 -42.491  0.00  0.00    -0.084 Cl
ATOM    102  C   UNL     1      -7.937  25.693 -40.724  0.00  0.00    +0.020 A 
ATOM    103  C   UNL     1      -8.998  24.951 -40.220  0.00  0.00    +0.005 A 
ENDBRANCH  96  97
ENDBRANCH  74  96
ENDBRANCH  72  74
ENDBRANCH  69  70
BRANCH  69 104
ATOM    104  C   UNL     1     -13.771  20.697 -37.363  0.00  0.00    +0.068 C 
BRANCH 104 105
ATOM    105  C   UNL     1     -12.872  21.178 -36.239  0.00  0.00    -0.027 A 
ATOM    106  C   UNL     1     -13.060  20.764 -34.913  0.00  0.00    +0.006 A 
ATOM    107  C   UNL     1     -12.135  21.101 -33.925  0.00  0.00    +0.020 A 
ATOM    108  C   UNL     1     -11.101  21.950 -34.264  0.00  0.00    +0.111 A 
ATOM    109  N   UNL     1     -10.968  22.490 -35.490  0.00  0.00    -0.263 NA
ATOM    110  C   UNL     1     -11.870  22.119 -36.428  0.00  0.00    +0.114 A 
ENDBRANCH 104 105
ENDBRANCH  69 104
ENDBRANCH  67  69
ENDBRANCH  64  65
BRANCH  64 111
ATOM    111  C   UNL     1      -9.457  17.447 -37.202  0.00  0.00    +0.187 C 
BRANCH 111 112
ATOM    112  O   UNL     1      -9.272  18.553 -36.337  0.00  0.00    -0.393 OA
ATOM    113  H   UNL     1      -9.490  19.339 -36.874  0.00  0.00    +0.209 HD
ENDBRANCH 111 112
ENDBRANCH  64 111
ENDBRANCH  62  64
ENDBRANCH   1  60
BRANCH   1 114
ATOM    114  C   UNL     1     -11.566  15.419 -32.730  0.00  0.00    +0.067 C 
BRANCH 114 115
ATOM    115  C   UNL     1     -11.452  15.153 -31.236  0.00  0.00    -0.045 A 
ATOM    116  C   UNL     1     -10.886  13.952 -30.782  0.00  0.00    +0.007 A 
ATOM    117  C   UNL     1     -10.697  13.719 -29.419  0.00  0.00    +0.045 A 
ATOM    118  C   UNL     1     -11.090  14.681 -28.500  0.00  0.00    +0.117 A 
ATOM    119  C   UNL     1     -11.684  15.867 -28.922  0.00  0.00    +0.045 A 
ATOM    120  C   UNL     1     -11.860  16.104 -30.291  0.00  0.00    +0.007 A 
BRANCH 118 121
ATOM    121  O   UNL     1     -10.869  14.423 -27.180  0.00  0.00    -0.507 OA
ATOM    122  H   UNL     1     -11.152  15.194 -26.662  0.00  0.00    +0.292 HD
ENDBRANCH 118 121
ENDBRANCH 114 115
ENDBRANCH   1 114
TORSDOF 40
