REMARK  Name = 
REMARK  11 active torsions:
REMARK  status: ('A' for Active; 'I' for Inactive)
REMARK    1  A    between atoms: C_1  and  C_2
REMARK    2  A    between atoms: C_2  and  C_3
REMARK    3  A    between atoms: C_3  and  C_5
REMARK    4  A    between atoms: C_5  and  C_6
REMARK    5  A    between atoms: C_5  and  C_12
REMARK    6  A    between atoms: C_5  and  C_18
REMARK    7  A    between atoms: C_6  and  C_7
REMARK    8  A    between atoms: C_7  and  C_8
REMARK    9  A    between atoms: C_7  and  N_9
REMARK   10  A    between atoms: N_9  and  C_10
REMARK   11  A    between atoms: N_9  and  C_11
REMARK                            x       y       z     vdW  Elec       q    Type
REMARK                         _______ _______ _______ _____ _____    ______ ____
ROOT
ATOM      1  C   UNL     1       4.499  -0.914  -1.450  0.00  0.00    +0.080 C 
ENDROOT
BRANCH   1   2
ATOM      2  C   UNL     1       4.782  -1.591  -2.865  0.00  0.00    -0.030 A 
ATOM      3  C   UNL     1       4.366  -2.921  -3.106  0.00  0.00    +0.005 A 
ATOM      4  C   UNL     1       4.397  -3.491  -4.386  0.00  0.00    +0.000 A 
ATOM      5  C   UNL     1       4.893  -2.763  -5.458  0.00  0.00    +0.000 A 
ATOM      6  C   UNL     1       5.392  -1.483  -5.239  0.00  0.00    +0.000 A 
ATOM      7  C   UNL     1       5.343  -0.906  -3.960  0.00  0.00    +0.005 A 
ENDBRANCH   1   2
BRANCH   1   8
ATOM      8  C   UNL     1       5.208  -1.751  -0.349  0.00  0.00    -0.030 A 
ATOM      9  C   UNL     1       6.577  -1.579  -0.063  0.00  0.00    +0.005 A 
ATOM     10  C   UNL     1       7.171  -2.200   1.043  0.00  0.00    +0.000 A 
ATOM     11  C   UNL     1       6.438  -3.084   1.826  0.00  0.00    +0.000 A 
ATOM     12  C   UNL     1       5.122  -3.370   1.485  0.00  0.00    +0.000 A 
ATOM     13  C   UNL     1       4.514  -2.712   0.411  0.00  0.00    +0.005 A 
ENDBRANCH   1   8
BRANCH   1  14
ATOM     14  C   UNL     1       2.900  -0.946  -1.256  0.00  0.00    +0.148 C 
ATOM     15  O   UNL     1       2.174  -1.824  -1.746  0.00  0.00    -0.296 OA
BRANCH  14  17
ATOM     16  C   UNL     1       0.777  -0.149  -0.063  0.00  0.00    +0.012 C 
ATOM     17  C   UNL     1       2.243   0.087  -0.368  0.00  0.00    +0.072 C 
ENDBRANCH  14  17
ENDBRANCH   1  14
BRANCH   1  18
ATOM     18  C   UNL     1       4.994   0.617  -1.464  0.00  0.00    +0.042 C 
BRANCH  18  19
ATOM     19  C   UNL     1       4.885   1.618  -0.241  0.00  0.00    +0.055 C 
ATOM     20  C   UNL     1       5.691   1.171   0.984  0.00  0.00    +0.024 C 
BRANCH  19  21
ATOM     21  N   UNL     1       5.217   3.033  -0.632  0.00  0.00    -0.306 NA
ATOM     22  C   UNL     1       5.077   3.953   0.515  0.00  0.00    +0.104 C 
ATOM     23  C   UNL     1       4.319   3.532  -1.690  0.00  0.00    +0.104 C 
ENDBRANCH  19  21
ENDBRANCH  18  19
ENDBRANCH   1  18
TORSDOF 7
