REMARK  Name = 
REMARK  8 active torsions:
REMARK  status: ('A' for Active; 'I' for Inactive)
REMARK    1  A    between atoms: C_4  and  C_5
REMARK    2  A    between atoms: C_4  and  C_6
REMARK    3  A    between atoms: CA_7  and  C_26
REMARK    4  A    between atoms: CA_12  and  N_14
REMARK    5  A    between atoms: C_15  and  CA_17
REMARK    6  A    between atoms: CA_17  and  N_19
REMARK    7  A    between atoms: CA_17  and  C_20
REMARK    8  A    between atoms: C_26  and  O_27
REMARK                            x       y       z     vdW  Elec       q    Type
REMARK                         _______ _______ _______ _____ _____    ______ ____
ROOT
ATOM      1  C   UNL     1       8.032  -2.179   2.406  0.00  0.00    +0.165 C 
ATOM      2  CA  UNL     1       7.521  -1.128   3.427  0.00  0.00    +0.190 C 
ATOM      3  C   UNL     1       8.170  -0.103   2.464  0.00  0.00    +0.240 C 
ATOM      4  O   UNL     1       8.097   1.088   2.257  0.00  0.00    -0.273 OA
ATOM      5  N   UNL     1       8.766  -1.091   1.724  0.00  0.00    -0.271 N 
ATOM      6  CA  UNL     1       8.672  -1.056   0.252  0.00  0.00    +0.201 C 
ATOM      7  C   UNL     1       7.264  -1.576  -0.130  0.00  0.00    +0.042 C 
ATOM      8  C   UNL     1       6.198  -0.464  -0.050  0.00  0.00    +0.025 C 
ATOM      9  C   UNL     1       7.145  -2.210  -1.519  0.00  0.00    +0.025 C 
ATOM     10  S   UNL     1       6.838  -2.828   1.165  0.00  0.00    -0.127 S 
ENDROOT
BRANCH   2  11
ATOM     11  N   UNL     1       6.061  -1.051   3.627  0.00  0.00    -0.300 N 
ATOM     12  H   UNL     1       5.455  -0.474   3.045  0.00  0.00    +0.150 HD
ATOM     13  C   UNL     1       5.398  -1.975   4.408  0.00  0.00    +0.235 C 
ATOM     14  O   UNL     1       5.993  -2.827   5.065  0.00  0.00    -0.274 OA
BRANCH  13  15
ATOM     15  CA  UNL     1       3.859  -1.836   4.387  0.00  0.00    +0.168 C 
BRANCH  15  16
ATOM     16  C   UNL     1       3.372  -0.927   5.499  0.00  0.00    -0.022 A 
ATOM     17  C   UNL     1       3.160   0.448   5.305  0.00  0.00    +0.005 A 
ATOM     18  C   UNL     1       2.706   1.256   6.350  0.00  0.00    +0.000 A 
ATOM     19  C   UNL     1       2.474   0.705   7.607  0.00  0.00    +0.000 A 
ATOM     20  C   UNL     1       2.705  -0.651   7.825  0.00  0.00    +0.000 A 
ATOM     21  C   UNL     1       3.155  -1.461   6.780  0.00  0.00    +0.005 A 
ENDBRANCH  15  16
BRANCH  15  22
ATOM     22  N   UNL     1       3.420  -1.375   3.041  0.00  0.00    -0.316 NA
ATOM     23  H1  UNL     1       3.626  -2.126   2.377  0.00  0.00    +0.119 HD
ATOM     24  H2  UNL     1       2.400  -1.316   3.065  0.00  0.00    +0.119 HD
ENDBRANCH  15  22
ENDBRANCH  13  15
ENDBRANCH   2  11
BRANCH   6  25
ATOM     25  C   UNL     1       9.859  -1.859  -0.317  0.00  0.00    +0.327 C 
ATOM     26  OXT UNL     1      10.024  -2.130  -1.497  0.00  0.00    -0.249 OA
BRANCH  25  27
ATOM     27  O   UNL     1      10.792  -2.181   0.617  0.00  0.00    -0.479 OA
ATOM     28  H   UNL     1      10.550  -1.798   1.485  0.00  0.00    +0.295 HD
ENDBRANCH  25  27
ENDBRANCH   6  25
TORSDOF 6
