REMARK  Name = 
REMARK  23 active torsions:
REMARK  status: ('A' for Active; 'I' for Inactive)
REMARK    1  A    between atoms: C_1  and  C_2
REMARK    2  A    between atoms: C_5  and  O_7
REMARK    3  A    between atoms: O_7  and  C_8
REMARK    4  A    between atoms: C_10  and  C_12
REMARK    5  A    between atoms: C_12  and  O_13
REMARK    6  A    between atoms: C_15  and  O_17
REMARK    7  A    between atoms: O_17  and  C_18
REMARK    8  A    between atoms: C_20  and  C_22
REMARK    9  A    between atoms: C_22  and  O_23
REMARK   10  A    between atoms: C_25  and  O_27
REMARK   11  A    between atoms: C_28  and  O_30
REMARK   12  A    between atoms: C_31  and  O_33
REMARK   13  A    between atoms: C_34  and  O_36
REMARK   14  A    between atoms: C_37  and  O_39
REMARK   15  A    between atoms: C_40  and  O_42
REMARK   16  A    between atoms: C_43  and  O_45
REMARK   17  A    between atoms: C_46  and  N_48
REMARK   18  A    between atoms: N_48  and  C_49
REMARK   19  A    between atoms: C_52  and  C_53
REMARK   20  A    between atoms: C_53  and  O_54
REMARK   21  A    between atoms: C_55  and  O_57
REMARK   22  A    between atoms: C_58  and  O_60
REMARK   23  A    between atoms: C_61  and  O_63
REMARK                            x       y       z     vdW  Elec       q    Type
REMARK                         _______ _______ _______ _____ _____    ______ ____
ROOT
ATOM      1  O   UNL     1       4.286  -4.071 -10.660  0.00  0.00    -0.340 OA
ENDROOT
BRANCH   1   7
ATOM      2  C   UNL     1       1.969  -5.696 -13.938  0.00  0.00    +0.039 C 
ATOM      3  C   UNL     1       2.287  -4.214 -13.716  0.00  0.00    +0.138 C 
ATOM      4  C   UNL     1       3.290  -3.593 -14.728  0.00  0.00    +0.114 C 
ATOM      5  C   UNL     1       4.735  -4.069 -14.401  0.00  0.00    +0.167 C 
ATOM      6  C   UNL     1       5.099  -3.785 -12.933  0.00  0.00    +0.200 C 
ATOM      7  C   UNL     1       4.011  -4.387 -12.033  0.00  0.00    +0.282 C 
ATOM      8  O   UNL     1       2.694  -3.956 -12.365  0.00  0.00    -0.344 OA
BRANCH   6   9
ATOM      9  O   UNL     1       5.258  -2.383 -12.706  0.00  0.00    -0.384 OA
ATOM     10  H   UNL     1       4.905  -2.188 -11.815  0.00  0.00    +0.210 HD
ENDBRANCH   6   9
BRANCH   5  11
ATOM     11  O   UNL     1       4.871  -5.454 -14.767  0.00  0.00    -0.387 OA
ATOM     12  H   UNL     1       5.035  -6.007 -13.983  0.00  0.00    +0.210 HD
ENDBRANCH   5  11
BRANCH   4  13
ATOM     13  N   UNL     1       3.081  -2.122 -14.665  0.00  0.00    -0.300 NA
ATOM     14  H   UNL     1       3.262  -1.814 -13.698  0.00  0.00    +0.123 HD
BRANCH  13  15
ATOM     15  C   UNL     1       3.985  -1.315 -15.499  0.00  0.00    +0.109 C 
ATOM     16  C   UNL     1       3.950   0.180 -15.080  0.00  0.00    +0.166 C 
ATOM     17  C   UNL     1       2.700   0.895 -15.596  0.00  0.00    +0.177 C 
ATOM     18  C   UNL     1       2.506   0.725 -17.117  0.00  0.00    +0.173 C 
ATOM     19  C   UNL     1       2.981  -0.585 -17.692  0.00  0.00    -0.016 C 
ATOM     20  C   UNL     1       3.625  -1.502 -16.941  0.00  0.00    -0.002 C 
BRANCH  18  21
ATOM     21  O   UNL     1       3.232   1.776 -17.774  0.00  0.00    -0.385 OA
ATOM     22  H   UNL     1       2.792   1.896 -18.637  0.00  0.00    +0.210 HD
ENDBRANCH  18  21
BRANCH  17  23
ATOM     23  O   UNL     1       2.827   2.299 -15.272  0.00  0.00    -0.386 OA
ATOM     24  H   UNL     1       3.264   2.687 -16.061  0.00  0.00    +0.210 HD
ENDBRANCH  17  23
BRANCH  16  25
ATOM     25  O   UNL     1       4.002   0.303 -13.643  0.00  0.00    -0.387 OA
ATOM     26  H   UNL     1       3.685   1.208 -13.451  0.00  0.00    +0.210 HD
ENDBRANCH  16  25
BRANCH  19  27
ATOM     27  C   UNL     1       2.705  -0.840 -19.141  0.00  0.00    +0.189 C 
BRANCH  27  28
ATOM     28  O   UNL     1       1.312  -0.726 -19.375  0.00  0.00    -0.391 OA
ATOM     29  H   UNL     1       0.890  -1.448 -18.876  0.00  0.00    +0.210 HD
ENDBRANCH  27  28
ENDBRANCH  19  27
ENDBRANCH  13  15
ENDBRANCH   4  13
ENDBRANCH   1   7
BRANCH   1  30
ATOM     30  C   UNL     1       3.320  -4.664  -9.767  0.00  0.00    +0.183 C 
ATOM     31  C   UNL     1       3.389  -6.214  -9.828  0.00  0.00    +0.179 C 
ATOM     32  C   UNL     1       2.575  -6.869  -8.734  0.00  0.00    +0.201 C 
ATOM     33  C   UNL     1       2.882  -6.250  -7.374  0.00  0.00    +0.282 C 
ATOM     34  O   UNL     1       2.705  -4.836  -7.394  0.00  0.00    -0.341 OA
ATOM     35  C   UNL     1       3.574  -4.172  -8.326  0.00  0.00    +0.178 C 
BRANCH  32  36
ATOM     36  O   UNL     1       2.802  -8.285  -8.749  0.00  0.00    -0.384 OA
ATOM     37  H   UNL     1       2.291  -8.680  -8.021  0.00  0.00    +0.210 HD
ENDBRANCH  32  36
BRANCH  31  38
ATOM     38  O   UNL     1       2.860  -6.719 -11.071  0.00  0.00    -0.386 OA
ATOM     39  H   UNL     1       1.965  -6.352 -11.184  0.00  0.00    +0.210 HD
ENDBRANCH  31  38
BRANCH  33  40
ATOM     40  O   UNL     1       4.172  -6.608  -6.888  0.00  0.00    -0.340 OA
BRANCH  40  41
ATOM     41  C   UNL     1       4.430  -6.151  -5.550  0.00  0.00    +0.183 C 
ATOM     42  C   UNL     1       3.451  -6.758  -4.514  0.00  0.00    +0.179 C 
ATOM     43  C   UNL     1       3.864  -6.425  -3.087  0.00  0.00    +0.201 C 
ATOM     44  C   UNL     1       5.354  -6.709  -2.864  0.00  0.00    +0.279 C 
ATOM     45  O   UNL     1       6.162  -6.061  -3.826  0.00  0.00    -0.341 OA
ATOM     46  C   UNL     1       5.877  -6.525  -5.158  0.00  0.00    +0.178 C 
BRANCH  44  47
ATOM     47  O   UNL     1       5.718  -6.220  -1.580  0.00  0.00    -0.365 OA
ATOM     48  H   UNL     1       5.581  -5.258  -1.612  0.00  0.00    +0.213 HD
ENDBRANCH  44  47
BRANCH  43  49
ATOM     49  O   UNL     1       3.056  -7.176  -2.170  0.00  0.00    -0.384 OA
ATOM     50  H   UNL     1       3.443  -7.057  -1.287  0.00  0.00    +0.210 HD
ENDBRANCH  43  49
BRANCH  42  51
ATOM     51  O   UNL     1       2.106  -6.273  -4.690  0.00  0.00    -0.386 OA
ATOM     52  H   UNL     1       2.113  -5.300  -4.682  0.00  0.00    +0.210 HD
ENDBRANCH  42  51
BRANCH  46  53
ATOM     53  C   UNL     1       6.921  -5.884  -6.083  0.00  0.00    +0.190 C 
BRANCH  53  54
ATOM     54  O   UNL     1       8.235  -6.267  -5.669  0.00  0.00    -0.392 OA
ATOM     55  H   UNL     1       8.285  -6.076  -4.712  0.00  0.00    +0.210 HD
ENDBRANCH  53  54
ENDBRANCH  46  53
ENDBRANCH  40  41
ENDBRANCH  33  40
BRANCH  35  56
ATOM     56  C   UNL     1       3.328  -2.661  -8.135  0.00  0.00    +0.190 C 
BRANCH  56  57
ATOM     57  O   UNL     1       4.141  -1.820  -8.938  0.00  0.00    -0.392 OA
ATOM     58  H   UNL     1       5.027  -2.216  -9.005  0.00  0.00    +0.210 HD
ENDBRANCH  56  57
ENDBRANCH  35  56
ENDBRANCH   1  30
TORSDOF 22
