REMARK  Name = 
REMARK  5 active torsions:
REMARK  status: ('A' for Active; 'I' for Inactive)
REMARK    1  A    between atoms: C_1  and  C_2
REMARK    2  A    between atoms: C_2  and  N_3
REMARK    3  A    between atoms: C_5  and  C_6
REMARK    4  A    between atoms: C_6  and  O_7
REMARK    5  A    between atoms: C_14  and  C_15
REMARK                            x       y       z     vdW  Elec       q    Type
REMARK                         _______ _______ _______ _____ _____    ______ ____
ROOT
ATOM      1  N   UNL     1       2.970   0.024   1.438  0.00  0.00    -0.331 N 
ATOM      2  C   UNL     1       3.079   1.307   2.024  0.00  0.00    +0.145 A 
ATOM      3  N   UNL     1       2.742   2.417   1.321  0.00  0.00    -0.234 NA
ATOM      4  C   UNL     1       2.889   3.635   1.901  0.00  0.00    +0.041 A 
ATOM      5  C   UNL     1       3.380   3.801   3.191  0.00  0.00    +0.024 A 
ATOM      6  C   UNL     1       3.711   2.670   3.924  0.00  0.00    +0.017 A 
ATOM      7  C   UNL     1       2.519   4.837   1.083  0.00  0.00    +0.065 C 
ATOM      8  C   UNL     1       3.555   1.414   3.335  0.00  0.00    +0.065 A 
ATOM      9  C   UNL     1       3.902   0.195   4.093  0.00  0.00    +0.205 A 
ATOM     10  O   UNL     1       4.290   0.253   5.260  0.00  0.00    -0.286 OA
ATOM     11  C   UNL     1       3.774  -1.115   3.423  0.00  0.00    +0.122 A 
ATOM     12  C   UNL     1       3.319  -1.103   2.162  0.00  0.00    +0.106 A 
ENDROOT
BRANCH   1  14
ATOM     13  C   UNL     1       0.954  -0.173   0.033  0.00  0.00    +0.027 C 
ATOM     14  C   UNL     1       2.469  -0.034   0.059  0.00  0.00    +0.120 C 
ENDBRANCH   1  14
BRANCH  11  15
ATOM     15  C   UNL     1       4.121  -2.400   4.063  0.00  0.00    +0.342 C 
ATOM     16  O   UNL     1       4.031  -3.479   3.495  0.00  0.00    -0.245 OA
BRANCH  15  17
ATOM     17  O   UNL     1       4.555  -2.293   5.338  0.00  0.00    -0.477 OA
ATOM     18  H   UNL     1       4.581  -1.365   5.679  0.00  0.00    +0.295 HD
ENDBRANCH  15  17
ENDBRANCH  11  15
TORSDOF 3
