REMARK  Name = 
REMARK  2 active torsions:
REMARK  status: ('A' for Active; 'I' for Inactive)
REMARK    1  A    between atoms: C_1  and  C_2
REMARK    2  A    between atoms: C_2  and  O_3
REMARK                            x       y       z     vdW  Elec       q    Type
REMARK                         _______ _______ _______ _____ _____    ______ ____
ROOT
ATOM      1  C   UNL     1       1.035   0.002   0.099  0.00  0.00    +0.034 C 
ATOM      2  C   UNL     1       2.550  -0.006   0.098  0.00  0.00    +0.152 C 
ENDROOT
BRANCH   2   3
ATOM      3  O   UNL     1       3.030  -1.005  -0.790  0.00  0.00    -0.395 OA
ATOM      4  H   UNL     1       2.689  -1.861  -0.479  0.00  0.00    +0.209 HD
ENDBRANCH   2   3
TORSDOF 1
