REMARK  Name = 
REMARK  6 active torsions:
REMARK  status: ('A' for Active; 'I' for Inactive)
REMARK    1  A    between atoms: C_5  and  C_7
REMARK    2  A    between atoms: C_7  and  C_8
REMARK    3  A    between atoms: C_10  and  C_11
REMARK    4  A    between atoms: C_13  and  O_15
REMARK    5  A    between atoms: C_21  and  C_23
REMARK    6  A    between atoms: C_30  and  C_31
REMARK                            x       y       z     vdW  Elec       q    Type
REMARK                         _______ _______ _______ _____ _____    ______ ____
ROOT
ATOM      1  C   UNL     1      -0.000  -0.000   0.000  0.00  0.00    -0.001 C 
ATOM      2  C   UNL     1      -0.000  -0.000   0.000  0.00  0.00    -0.000 C 
ATOM      3  C   UNL     1      -0.000  -0.000   0.000  0.00  0.00    +0.011 C 
ATOM      4  C   UNL     1      -0.000  -0.000   0.000  0.00  0.00    +0.013 C 
ATOM      5  C   UNL     1      -0.000  -0.000   0.000  0.00  0.00    -0.057 C 
ATOM      6  C   UNL     1      -0.000  -0.000   0.000  0.00  0.00    -0.005 C 
ATOM      7  C   UNL     1      -0.000  -0.000  -0.000  0.00  0.00    +0.016 C 
ATOM      8  C   UNL     1      -0.000  -0.000   0.000  0.00  0.00    +0.019 C 
ATOM      9  C   UNL     1      -0.000  -0.000   0.000  0.00  0.00    +0.080 C 
ATOM     10  C   UNL     1      -0.000  -0.000   0.000  0.00  0.00    +0.156 C 
ATOM     11  O   UNL     1      -0.000  -0.000   0.000  0.00  0.00    -0.293 OA
ATOM     12  C   UNL     1      -0.000  -0.000   0.000  0.00  0.00    +0.046 C 
ATOM     13  C   UNL     1      -0.000  -0.000   0.000  0.00  0.00    +0.012 C 
ATOM     14  C   UNL     1      -0.000  -0.000   0.000  0.00  0.00    +0.031 C 
ATOM     15  C   UNL     1      -0.000  -0.000   0.000  0.00  0.00    +0.119 C 
ATOM     16  C   UNL     1      -0.000  -0.000   0.000  0.00  0.00    +0.039 C 
ATOM     17  C   UNL     1      -0.000  -0.000   0.000  0.00  0.00    -0.017 C 
ATOM     18  C   UNL     1      -0.000  -0.000   0.000  0.00  0.00    +0.012 C 
ATOM     19  C   UNL     1      -0.000  -0.000   0.000  0.00  0.00    +0.061 C 
ATOM     20  C   UNL     1      -0.000  -0.000   0.000  0.00  0.00    +0.012 C 
ATOM     21  C   UNL     1      -0.000  -0.000   0.000  0.00  0.00    +0.005 C 
ENDROOT
BRANCH  19  22
ATOM     22  C   UNL     1      -0.000  -0.000   0.000  0.00  0.00    +0.134 C 
ATOM     23  O   UNL     1      -0.000  -0.000   0.000  0.00  0.00    -0.297 OA
ATOM     24  C   UNL     1      -0.000  -0.000   0.000  0.00  0.00    +0.086 C 
ENDBRANCH  19  22
BRANCH  15  25
ATOM     25  O   UNL     1      -0.000  -0.000   0.000  0.00  0.00    -0.391 OA
ATOM     26  H   UNL     1       0.000   0.000   0.000  0.00  0.00    +0.210 HD
ENDBRANCH  15  25
TORSDOF 2
