REMARK  Name = 
REMARK  16 active torsions:
REMARK  status: ('A' for Active; 'I' for Inactive)
REMARK    1  A    between atoms: C_4  and  O_6
REMARK    2  A    between atoms: O_6  and  C_7
REMARK    3  A    between atoms: C_7  and  C_9
REMARK    4  A    between atoms: C_11  and  O_12
REMARK    5  A    between atoms: O_12  and  C_13
REMARK    6  A    between atoms: C_14  and  O_15
REMARK    7  A    between atoms: O_15  and  C_16
REMARK    8  A    between atoms: C_17  and  O_18
REMARK    9  A    between atoms: O_18  and  C_19
REMARK   10  A    between atoms: C_21  and  O_23
REMARK   11  A    between atoms: O_23  and  C_24
REMARK   12  A    between atoms: C_25  and  C_27
REMARK   13  A    between atoms: C_27  and  O_29
REMARK   14  A    between atoms: O_29  and  C_30
REMARK   15  A    between atoms: C_46  and  O_47
REMARK   16  A    between atoms: O_47  and  C_48
REMARK                            x       y       z     vdW  Elec       q    Type
REMARK                         _______ _______ _______ _____ _____    ______ ____
ROOT
ATOM      1  C   UNL     1       2.072   0.376  -0.484  0.00  0.00    +0.011 C 
ATOM      2  C   UNL     1       1.924   1.752   0.186  0.00  0.00    +0.089 C 
ATOM      3  N   UNL     1       3.018   1.905   1.122  0.00  0.00    -0.293 NA
ATOM      4  C   UNL     1       3.356   3.308   1.440  0.00  0.00    +0.090 C 
ATOM      5  C   UNL     1       2.364   4.020   2.375  0.00  0.00    +0.053 C 
ATOM      6  C   UNL     1       2.090   3.144   3.542  0.00  0.00    -0.016 A 
ATOM      7  C   UNL     1       1.740   3.500   4.871  0.00  0.00    +0.003 A 
ATOM      8  C   UNL     1       1.441   4.720   5.512  0.00  0.00    +0.014 A 
ATOM      9  C   UNL     1       1.177   4.730   6.885  0.00  0.00    +0.046 A 
ATOM     10  C   UNL     1       1.213   3.551   7.631  0.00  0.00    +0.122 A 
ATOM     11  C   UNL     1       1.513   2.326   7.011  0.00  0.00    +0.071 A 
ATOM     12  C   UNL     1       1.768   2.324   5.623  0.00  0.00    +0.050 A 
ATOM     13  N   UNL     1       2.111   1.289   4.764  0.00  0.00    -0.356 N 
ATOM     14  H   UNL     1       2.253   0.321   5.054  0.00  0.00    +0.166 HD
ATOM     15  C   UNL     1       2.307   1.771   3.481  0.00  0.00    +0.038 A 
ATOM     16  C   UNL     1       2.888   1.005   2.287  0.00  0.00    +0.104 C 
ATOM     17  C   UNL     1       2.195  -0.383   1.960  0.00  0.00    +0.030 C 
ATOM     18  C   UNL     1       2.028  -0.862   0.451  0.00  0.00    +0.012 C 
ATOM     19  C   UNL     1       2.727  -2.192  -0.268  0.00  0.00    +0.133 C 
ATOM     20  C   UNL     1       3.960  -1.917  -1.189  0.00  0.00    +0.172 C 
ATOM     21  C   UNL     1       4.487  -0.536  -0.817  0.00  0.00    +0.206 C 
ATOM     22  C   UNL     1       3.361   0.404  -1.315  0.00  0.00    +0.052 C 
ENDROOT
BRANCH  10  23
ATOM     23  O   UNL     1       0.933   3.739   8.961  0.00  0.00    -0.495 OA
ATOM     24  C   UNL     1       0.983   2.600   9.805  0.00  0.00    +0.277 C 
ENDBRANCH  10  23
BRANCH  19  25
ATOM     25  C   UNL     1       3.140  -3.384   0.594  0.00  0.00    +0.313 C 
ATOM     26  O   UNL     1       3.095  -3.432   1.812  0.00  0.00    -0.250 OA
BRANCH  25  27
ATOM     27  O   UNL     1       3.634  -4.385  -0.218  0.00  0.00    -0.468 OA
ATOM     28  C   UNL     1       4.407  -5.442   0.374  0.00  0.00    +0.280 C 
ENDBRANCH  25  27
ENDBRANCH  19  25
BRANCH  20  29
ATOM     29  O   UNL     1       3.673  -1.971  -2.600  0.00  0.00    -0.375 OA
ATOM     30  C   UNL     1       3.865  -3.238  -3.213  0.00  0.00    +0.194 C 
ENDBRANCH  20  29
BRANCH  21  31
ATOM     31  O   UNL     1       4.796  -0.535   0.627  0.00  0.00    -0.455 OA
BRANCH  31  32
ATOM     32  C   UNL     1       5.756  -1.433   1.000  0.00  0.00    +0.340 C 
ATOM     33  O   UNL     1       6.424  -2.060   0.179  0.00  0.00    -0.245 OA
BRANCH  32  34
ATOM     34  C   UNL     1       6.050  -1.664   2.452  0.00  0.00    +0.066 A 
ATOM     35  C   UNL     1       5.430  -1.153   3.581  0.00  0.00    +0.064 A 
ATOM     36  C   UNL     1       6.025  -1.241   4.859  0.00  0.00    +0.166 A 
ATOM     37  C   UNL     1       7.279  -1.874   5.006  0.00  0.00    +0.204 A 
ATOM     38  C   UNL     1       7.827  -2.526   3.893  0.00  0.00    +0.166 A 
ATOM     39  C   UNL     1       7.160  -2.474   2.670  0.00  0.00    +0.064 A 
BRANCH  36  40
ATOM     40  O   UNL     1       5.259  -0.607   5.814  0.00  0.00    -0.491 OA
ATOM     41  C   UNL     1       5.653  -0.661   7.180  0.00  0.00    +0.277 C 
ENDBRANCH  36  40
BRANCH  37  42
ATOM     42  O   UNL     1       7.873  -1.768   6.241  0.00  0.00    -0.488 OA
ATOM     43  C   UNL     1       9.229  -2.169   6.396  0.00  0.00    +0.277 C 
ENDBRANCH  37  42
BRANCH  38  44
ATOM     44  O   UNL     1       9.011  -3.215   3.982  0.00  0.00    -0.491 OA
ATOM     45  C   UNL     1       9.782  -3.249   2.776  0.00  0.00    +0.277 C 
ENDBRANCH  38  44
ENDBRANCH  32  34
ENDBRANCH  31  32
ENDBRANCH  21  31
TORSDOF 10
