REMARK  Name = 
REMARK  12 active torsions:
REMARK  status: ('A' for Active; 'I' for Inactive)
REMARK    1  A    between atoms: C_1  and  N_2
REMARK    2  A    between atoms: N_2  and  C_3
REMARK    3  A    between atoms: N_2  and  C_16
REMARK    4  A    between atoms: C_3  and  C_4
REMARK    5  A    between atoms: C_19  and  C_22
REMARK    6  A    between atoms: N_24  and  CA_25
REMARK    7  A    between atoms: CA_25  and  CB_27
REMARK    8  A    between atoms: CA_25  and  C_32
REMARK    9  A    between atoms: CB_27  and  CG_28
REMARK   10  A    between atoms: CG_28  and  CD_29
REMARK   11  A    between atoms: CD_29  and  OE1_30
REMARK   12  A    between atoms: C_32  and  O_33
REMARK                            x       y       z     vdW  Elec       q    Type
REMARK                         _______ _______ _______ _____ _____    ______ ____
ROOT
ATOM      1  C   UNK A   0       3.174  -0.835   0.871  0.00  0.00    +0.030 A 
ATOM      2  C   UNK A   0       2.872  -2.209   0.858  0.00  0.00    +0.024 A 
ATOM      3  C   UNK A   0       3.648  -3.157   1.548  0.00  0.00    +0.015 A 
ATOM      4  C   UNK A   0       4.773  -2.757   2.262  0.00  0.00    +0.037 A 
ATOM      5  C   UNK A   0       5.084  -1.397   2.323  0.00  0.00    +0.015 A 
ATOM      6  C   UNK A   0       4.299  -0.464   1.631  0.00  0.00    +0.024 A 
ENDROOT
BRANCH   4   7
ATOM      7  C   UNK A   0       5.638  -3.771   2.929  0.00  0.00    +0.245 C 
ATOM      8  N   GLU A   1       6.996  -3.539   2.861  0.00  0.00    -0.298 N 
ATOM      9  H   GLU A   1       7.346  -2.706   2.402  0.00  0.00    +0.150 HD
ATOM     10  O   UNK A   0       5.176  -4.759   3.488  0.00  0.00    -0.270 OA
BRANCH   8  11
ATOM     11  CA  GLU A   1       7.947  -4.464   3.462  0.00  0.00    +0.182 C 
BRANCH  11  12
ATOM     12  C   GLU A   1       8.037  -4.172   4.966  0.00  0.00    +0.325 C 
ATOM     13  OXT GLU A   1       8.802  -3.353   5.458  0.00  0.00    -0.249 OA
BRANCH  12  14
ATOM     14  O   GLU A   1       7.174  -4.901   5.710  0.00  0.00    -0.479 OA
ATOM     15  H   GLU A   1       6.502  -5.366   5.159  0.00  0.00    +0.295 HD
ENDBRANCH  12  14
ENDBRANCH  11  12
BRANCH  11  16
ATOM     16  CB  GLU A   1       9.330  -4.337   2.811  0.00  0.00    +0.045 C 
BRANCH  16  17
ATOM     17  CG  GLU A   1      10.329  -5.336   3.393  0.00  0.00    +0.123 C 
BRANCH  17  18
ATOM     18  CD  GLU A   1      11.658  -5.230   2.697  0.00  0.00    +0.305 C 
ATOM     19  OE2 GLU A   1      11.931  -5.827   1.668  0.00  0.00    -0.251 OA
BRANCH  18  20
ATOM     20  OE1 GLU A   1      12.515  -4.376   3.296  0.00  0.00    -0.481 OA
ATOM     21  HE1 GLU A   1      12.172  -3.958   4.111  0.00  0.00    +0.295 HD
ENDBRANCH  18  20
ENDBRANCH  17  18
ENDBRANCH  16  17
ENDBRANCH  11  16
ENDBRANCH   8  11
ENDBRANCH   4   7
BRANCH   1  23
ATOM     22  C   UNK A   0       2.806   1.515   0.202  0.00  0.00    +0.129 C 
ATOM     23  N   UNK A   0       2.431   0.100   0.139  0.00  0.00    -0.327 N 
BRANCH  23  24
ATOM     24  C   UNK A   0       1.000  -0.161  -0.119  0.00  0.00    +0.161 C 
BRANCH  24  25
ATOM     25  C   UNK A   0       0.718  -0.883  -1.419  0.00  0.00    +0.077 A 
ATOM     26  N   UNK A   0      -0.416  -1.621  -1.491  0.00  0.00    -0.242 NA
ATOM     27  C   UNK A   0      -0.711  -2.192  -2.702  0.00  0.00    +0.148 A 
ATOM     28  C   UNK A   0       0.089  -2.024  -3.837  0.00  0.00    +0.185 A 
ATOM     29  N   UNK A   0      -0.217  -2.539  -5.025  0.00  0.00    -0.193 NA
ATOM     30  C   UNK A   0      -1.350  -3.225  -5.128  0.00  0.00    +0.216 A 
ATOM     31  N   UNK A   0      -2.178  -3.481  -4.120  0.00  0.00    -0.198 NA
ATOM     32  N   UNK A   0      -1.682  -3.728  -6.367  0.00  0.00    -0.327 N 
ATOM     33  H   UNK A   0      -2.297  -4.523  -6.277  0.00  0.00    +0.145 HD
ATOM     34  H   UNK A   0      -0.854  -3.838  -6.938  0.00  0.00    +0.145 HD
ATOM     35  N   UNK A   0       1.209  -1.297  -3.742  0.00  0.00    -0.232 NA
ATOM     36  C   UNK A   0      -1.849  -2.957  -2.930  0.00  0.00    +0.149 A 
ATOM     37  N   UNK A   0      -2.703  -3.292  -1.864  0.00  0.00    -0.341 N 
ATOM     38  H   UNK A   0      -2.849  -2.504  -1.242  0.00  0.00    +0.144 HD
ATOM     39  H   UNK A   0      -3.551  -3.714  -2.228  0.00  0.00    +0.144 HD
ATOM     40  C   UNK A   0       1.510  -0.735  -2.543  0.00  0.00    +0.138 A 
ENDBRANCH  24  25
ENDBRANCH  23  24
ENDBRANCH   1  23
TORSDOF 11
