REMARK  Name = 
REMARK  11 active torsions:
REMARK  status: ('A' for Active; 'I' for Inactive)
REMARK    1  A    between atoms: C_1  and  C_2
REMARK    2  A    between atoms: C_2  and  C_3
REMARK    3  A    between atoms: C_2  and  N_12
REMARK    4  A    between atoms: C_3  and  C_4
REMARK    5  A    between atoms: C_4  and  C_5
REMARK    6  A    between atoms: C_8  and  O_9
REMARK    7  A    between atoms: N_12  and  C_13
REMARK    8  A    between atoms: C_13  and  C_14
REMARK    9  A    between atoms: C_14  and  C_15
REMARK   10  A    between atoms: C_17  and  O_18
REMARK   11  A    between atoms: C_19  and  O_20
REMARK                            x       y       z     vdW  Elec       q    Type
REMARK                         _______ _______ _______ _____ _____    ______ ____
ROOT
ATOM      1  N   UNL     1       2.923   0.787   1.235  0.00  0.00    -0.313 NA
ATOM      2  H   UNL     1       2.591   1.753   1.210  0.00  0.00    +0.122 HD
ENDROOT
BRANCH   1   4
ATOM      3  C   UNL     1       0.859   0.019   0.058  0.00  0.00    +0.024 C 
ATOM      4  C   UNL     1       2.391   0.064   0.069  0.00  0.00    +0.051 C 
BRANCH   4   5
ATOM      5  C   UNL     1       2.880   0.732  -1.233  0.00  0.00    +0.023 C 
BRANCH   5   6
ATOM      6  C   UNL     1       4.406   0.734  -1.398  0.00  0.00    +0.036 C 
BRANCH   6   7
ATOM      7  C   UNL     1       4.790   1.335  -2.731  0.00  0.00    -0.047 A 
ATOM      8  C   UNL     1       4.854   0.535  -3.881  0.00  0.00    +0.007 A 
ATOM      9  C   UNL     1       5.119   1.108  -5.125  0.00  0.00    +0.045 A 
ATOM     10  C   UNL     1       5.314   2.480  -5.224  0.00  0.00    +0.117 A 
ATOM     11  C   UNL     1       5.277   3.289  -4.093  0.00  0.00    +0.045 A 
ATOM     12  C   UNL     1       5.015   2.715  -2.847  0.00  0.00    +0.007 A 
BRANCH  10  13
ATOM     13  O   UNL     1       5.527   3.005  -6.465  0.00  0.00    -0.507 OA
ATOM     14  H   UNL     1       5.519   3.973  -6.393  0.00  0.00    +0.292 HD
ENDBRANCH  10  13
ENDBRANCH   6   7
ENDBRANCH   5   6
ENDBRANCH   4   5
ENDBRANCH   1   4
BRANCH   1  15
ATOM     15  C   UNL     1       2.571   0.211   2.543  0.00  0.00    +0.086 C 
BRANCH  15  16
ATOM     16  C   UNL     1       3.074  -1.226   2.752  0.00  0.00    +0.050 C 
BRANCH  16  17
ATOM     17  C   UNL     1       2.612  -1.823   4.060  0.00  0.00    -0.042 A 
ATOM     18  C   UNL     1       1.406  -2.547   4.112  0.00  0.00    +0.007 A 
ATOM     19  C   UNL     1       0.989  -3.153   5.298  0.00  0.00    +0.049 A 
ATOM     20  C   UNL     1       1.776  -3.028   6.431  0.00  0.00    +0.158 A 
ATOM     21  C   UNL     1       2.961  -2.295   6.400  0.00  0.00    +0.158 A 
ATOM     22  C   UNL     1       3.385  -1.685   5.224  0.00  0.00    +0.052 A 
BRANCH  20  23
ATOM     23  O   UNL     1       1.384  -3.643   7.586  0.00  0.00    -0.503 OA
ATOM     24  H   UNL     1       2.099  -3.441   8.222  0.00  0.00    +0.292 HD
ENDBRANCH  20  23
BRANCH  21  25
ATOM     25  O   UNL     1       3.685  -2.212   7.558  0.00  0.00    -0.503 OA
ATOM     26  H   UNL     1       4.475  -1.674   7.379  0.00  0.00    +0.292 HD
ENDBRANCH  21  25
ENDBRANCH  16  17
ENDBRANCH  15  16
ENDBRANCH   1  15
TORSDOF 10
