REMARK  Name = 
REMARK  6 active torsions:
REMARK  status: ('A' for Active; 'I' for Inactive)
REMARK    1  A    between atoms: C_1  and  C_2
REMARK    2  A    between atoms: C_2  and  C_3
REMARK    3  A    between atoms: C_2  and  C_6
REMARK    4  A    between atoms: C_3  and  O_4
REMARK    5  A    between atoms: C_8  and  O_9
REMARK    6  A    between atoms: O_9  and  C_10
REMARK                            x       y       z     vdW  Elec       q    Type
REMARK                         _______ _______ _______ _____ _____    ______ ____
ROOT
ATOM      1  C   UNL     1       3.074  -1.342   0.666  0.00  0.00    -0.030 A 
ATOM      2  C   UNL     1       2.383  -2.560   0.591  0.00  0.00    +0.004 A 
ATOM      3  C   UNL     1       2.822  -3.670   1.315  0.00  0.00    +0.004 A 
ATOM      4  C   UNL     1       3.942  -3.571   2.137  0.00  0.00    +0.046 A 
ATOM      5  C   UNL     1       4.645  -2.370   2.223  0.00  0.00    +0.129 A 
ATOM      6  C   UNL     1       4.252  -1.283   1.431  0.00  0.00    +0.050 A 
ENDROOT
BRANCH   1   8
ATOM      7  C   UNL     1       3.123   0.024  -1.452  0.00  0.00    +0.024 C 
ATOM      8  C   UNL     1       2.571  -0.085  -0.033  0.00  0.00    +0.124 C 
BRANCH   8   9
ATOM      9  C   UNL     1       1.051   0.058  -0.019  0.00  0.00    +0.312 C 
ATOM     10  O   UNL     1       0.355   0.251  -1.005  0.00  0.00    -0.250 OA
BRANCH   9  11
ATOM     11  O   UNL     1       0.511  -0.005   1.226  0.00  0.00    -0.480 OA
ATOM     12  H   UNL     1       1.167  -0.200   1.924  0.00  0.00    +0.295 HD
ENDBRANCH   9  11
ENDBRANCH   8   9
ENDBRANCH   1   8
BRANCH   5  13
ATOM     13  O   UNL     1       5.725  -2.369   3.079  0.00  0.00    -0.456 OA
BRANCH  13  14
ATOM     14  C   UNL     1       6.136  -1.201   3.679  0.00  0.00    +0.128 A 
ATOM     15  C   UNL     1       7.499  -1.111   3.974  0.00  0.00    +0.046 A 
ATOM     16  C   UNL     1       8.021   0.061   4.525  0.00  0.00    +0.004 A 
ATOM     17  C   UNL     1       7.183   1.144   4.784  0.00  0.00    +0.000 A 
ATOM     18  C   UNL     1       5.812   1.033   4.554  0.00  0.00    +0.004 A 
ATOM     19  C   UNL     1       5.287  -0.153   4.041  0.00  0.00    +0.046 A 
ENDBRANCH  13  14
ENDBRANCH   5  13
TORSDOF 5
