REMARK  Name = 
REMARK  8 active torsions:
REMARK  status: ('A' for Active; 'I' for Inactive)
REMARK    1  A    between atoms: C_1  and  N_2
REMARK    2  A    between atoms: N_4  and  C_5
REMARK    3  A    between atoms: C_5  and  C_6
REMARK    4  A    between atoms: C_6  and  S_7
REMARK    5  A    between atoms: S_7  and  C_8
REMARK    6  A    between atoms: C_8  and  C_9
REMARK    7  A    between atoms: C_10  and  C_11
REMARK    8  A    between atoms: N_15  and  C_16
REMARK                            x       y       z     vdW  Elec       q    Type
REMARK                         _______ _______ _______ _____ _____    ______ ____
ROOT
ATOM      1  C   UNL     1       5.196   0.042   0.055  0.00  0.00    +0.206 C 
ENDROOT
BRANCH   1   7
ATOM      2  C   UNL     1       4.058   2.063  -3.498  0.00  0.00    +0.291 C 
ATOM      3  N   UNL     1       4.504   1.301  -2.345  0.00  0.00    -0.116 NA
ATOM      4  C   UNL     1       4.128   0.073  -2.188  0.00  0.00    +0.395 C 
ATOM      5  N   UNL     1       3.338  -0.616  -3.061  0.00  0.00    -0.178 N 
ATOM      6  H   UNL     1       3.124  -0.178  -3.941  0.00  0.00    +0.278 HD
ATOM      7  N   UNL     1       4.538  -0.610  -1.073  0.00  0.00    -0.274 N 
ATOM      8  H   UNL     1       4.056  -1.465  -0.820  0.00  0.00    +0.258 HD
BRANCH   5   9
ATOM      9  C   UNL     1       3.097  -2.022  -2.963  0.00  0.00    +0.255 C 
ATOM     10  N   UNL     1       2.874  -3.156  -2.869  0.00  0.00    -0.154 NA
ENDBRANCH   5   9
ENDBRANCH   1   7
BRANCH   1  11
ATOM     11  C   UNL     1       6.717  -0.009  -0.101  0.00  0.00    +0.106 C 
BRANCH  11  12
ATOM     12  S   UNL     1       7.498   0.841   1.308  0.00  0.00    -0.151 S 
BRANCH  12  13
ATOM     13  C   UNL     1       9.250   0.553   0.884  0.00  0.00    +0.126 C 
BRANCH  13  14
ATOM     14  C   UNL     1      10.128   1.180   1.916  0.00  0.00    +0.072 A 
ATOM     15  N   UNL     1      10.526   0.460   3.025  0.00  0.00    -0.240 NA
ATOM     16  C   UNL     1      11.213   1.297   3.764  0.00  0.00    +0.197 A 
ATOM     17  N   UNL     1      11.314   2.521   3.170  0.00  0.00    -0.348 N 
ATOM     18  H   UNL     1      11.786   3.326   3.556  0.00  0.00    +0.166 HD
ATOM     19  C   UNL     1      10.641   2.466   1.975  0.00  0.00    +0.036 A 
ATOM     20  C   UNL     1      10.540   3.629   1.067  0.00  0.00    +0.065 C 
ENDBRANCH  13  14
ENDBRANCH  12  13
ENDBRANCH  11  12
ENDBRANCH   1  11
TORSDOF 6
