REMARK  Name = 
REMARK  13 active torsions:
REMARK  status: ('A' for Active; 'I' for Inactive)
REMARK    1  A    between atoms: O_1  and  C_2
REMARK    2  A    between atoms: C_2  and  C_3
REMARK    3  A    between atoms: C_6  and  O_7
REMARK    4  A    between atoms: C_6  and  C_8
REMARK    5  A    between atoms: C_8  and  O_9
REMARK    6  A    between atoms: C_10  and  O_12
REMARK    7  A    between atoms: C_13  and  O_15
REMARK    8  A    between atoms: O_15  and  C_16
REMARK    9  A    between atoms: C_19  and  C_21
REMARK   10  A    between atoms: C_21  and  O_22
REMARK   11  A    between atoms: C_23  and  O_25
REMARK   12  A    between atoms: C_26  and  O_28
REMARK   13  A    between atoms: C_29  and  O_31
REMARK                            x       y       z     vdW  Elec       q    Type
REMARK                         _______ _______ _______ _____ _____    ______ ____
ROOT
ATOM      1  O   UNL     1       0.304  -2.302  -3.242  0.00  0.00    -0.340 OA
ENDROOT
BRANCH   1   2
ATOM      2  C   UNL     1       0.823  -1.696  -2.048  0.00  0.00    +0.282 C 
ATOM      3  C   UNL     1       2.318  -2.046  -1.860  0.00  0.00    +0.201 C 
ATOM      4  C   UNL     1       2.792  -1.396  -0.541  0.00  0.00    +0.179 C 
ATOM      5  C   UNL     1       2.500   0.112  -0.538  0.00  0.00    +0.177 C 
ATOM      6  C   UNL     1       1.001   0.326  -0.797  0.00  0.00    +0.178 C 
ATOM      7  O   UNL     1       0.600  -0.282  -2.042  0.00  0.00    -0.341 OA
BRANCH   3   8
ATOM      8  O   UNL     1       2.496  -3.475  -1.816  0.00  0.00    -0.384 OA
ATOM      9  H   UNL     1       2.148  -3.806  -0.971  0.00  0.00    +0.210 HD
ENDBRANCH   3   8
BRANCH   4  10
ATOM     10  O   UNL     1       4.185  -1.613  -0.302  0.00  0.00    -0.386 OA
ATOM     11  H   UNL     1       4.658  -0.911  -0.792  0.00  0.00    +0.210 HD
ENDBRANCH   4  10
BRANCH   5  12
ATOM     12  O   UNL     1       3.335   0.706  -1.543  0.00  0.00    -0.386 OA
ATOM     13  H   UNL     1       3.143   1.658  -1.605  0.00  0.00    +0.210 HD
ENDBRANCH   5  12
BRANCH   6  14
ATOM     14  C   UNL     1       0.623   1.808  -0.829  0.00  0.00    +0.190 C 
BRANCH  14  15
ATOM     15  O   UNL     1      -0.797   1.936  -0.877  0.00  0.00    -0.392 OA
ATOM     16  H   UNL     1      -1.071   1.551  -1.731  0.00  0.00    +0.210 HD
ENDBRANCH  14  15
ENDBRANCH   6  14
ENDBRANCH   1   2
BRANCH   1  18
ATOM     17  C   UNL     1      -1.851  -3.022  -2.260  0.00  0.00    +0.178 C 
ATOM     18  C   UNL     1      -1.126  -2.226  -3.356  0.00  0.00    +0.186 C 
ATOM     19  C   UNL     1      -1.598  -2.883  -4.659  0.00  0.00    +0.207 C 
ATOM     20  C   UNL     1      -2.444  -4.085  -4.210  0.00  0.00    +0.220 C 
ATOM     21  O   UNL     1      -2.902  -3.777  -2.892  0.00  0.00    -0.336 OA
BRANCH  19  22
ATOM     22  O   UNL     1      -2.437  -1.929  -5.351  0.00  0.00    -0.384 OA
ATOM     23  H   UNL     1      -3.260  -2.423  -5.563  0.00  0.00    +0.210 HD
ENDBRANCH  19  22
BRANCH  20  24
ATOM     24  O   UNL     1      -3.589  -4.213  -5.057  0.00  0.00    -0.361 OA
ATOM     25  H   UNL     1      -3.903  -5.129  -4.909  0.00  0.00    +0.213 HD
ENDBRANCH  20  24
BRANCH  17  26
ATOM     26  C   UNL     1      -2.462  -2.128  -1.179  0.00  0.00    +0.190 C 
BRANCH  26  27
ATOM     27  O   UNL     1      -2.785  -2.923  -0.040  0.00  0.00    -0.392 OA
ATOM     28  H   UNL     1      -3.346  -2.377   0.537  0.00  0.00    +0.210 HD
ENDBRANCH  26  27
ENDBRANCH  17  26
BRANCH  20  29
ATOM     29  C   UNL     1      -1.681  -5.424  -4.176  0.00  0.00    +0.223 C 
BRANCH  29  30
ATOM     30  O   UNL     1      -2.575  -6.444  -3.703  0.00  0.00    -0.390 OA
ATOM     31  H   UNL     1      -2.944  -6.109  -2.860  0.00  0.00    +0.210 HD
ENDBRANCH  29  30
ENDBRANCH  20  29
ENDBRANCH   1  18
TORSDOF 13
