REMARK  Name = 
REMARK  6 active torsions:
REMARK  status: ('A' for Active; 'I' for Inactive)
REMARK    1  A    between atoms: C_1  and  O_2
REMARK    2  A    between atoms: O_2  and  C_3
REMARK    3  A    between atoms: C_10  and  C_11
REMARK    4  A    between atoms: C_11  and  C_12
REMARK    5  A    between atoms: C_12  and  C_13
REMARK    6  A    between atoms: C_13  and  C_14
REMARK                            x       y       z     vdW  Elec       q    Type
REMARK                         _______ _______ _______ _____ _____    ______ ____
ROOT
ATOM      1  C   UNL     1       2.975  -0.786  -0.810  0.00  0.00    +0.121 A 
ATOM      2  C   UNL     1       3.832  -0.346  -1.818  0.00  0.00    +0.046 A 
ATOM      3  C   UNL     1       4.400  -1.262  -2.712  0.00  0.00    +0.012 A 
ATOM      4  C   UNL     1       4.116  -2.635  -2.607  0.00  0.00    -0.017 A 
ATOM      5  C   UNL     1       4.633  -3.587  -3.507  0.00  0.00    +0.012 A 
ATOM      6  C   UNL     1       4.312  -4.953  -3.397  0.00  0.00    -0.046 A 
ATOM      7  C   UNL     1       3.500  -5.364  -2.335  0.00  0.00    +0.004 A 
ATOM      8  C   UNL     1       2.988  -4.436  -1.430  0.00  0.00    +0.009 A 
ATOM      9  C   UNL     1       3.278  -3.075  -1.560  0.00  0.00    -0.014 A 
ATOM     10  C   UNL     1       2.734  -2.150  -0.663  0.00  0.00    +0.054 A 
ENDROOT
BRANCH   1  12
ATOM     11  C   UNL     1       1.150  -0.137   0.521  0.00  0.00    +0.277 C 
ATOM     12  O   UNL     1       2.438   0.180  -0.003  0.00  0.00    -0.495 OA
ENDBRANCH   1  12
BRANCH   6  13
ATOM     13  C   UNL     1       4.902  -5.940  -4.380  0.00  0.00    +0.042 C 
BRANCH  13  14
ATOM     14  C   UNL     1       4.004  -7.135  -4.708  0.00  0.00    +0.078 C 
BRANCH  14  15
ATOM     15  C   UNL     1       4.621  -8.057  -5.736  0.00  0.00    +0.131 C 
ATOM     16  O   UNL     1       5.714  -7.833  -6.260  0.00  0.00    -0.298 OA
ATOM     17  C   UNL     1       3.837  -9.292  -6.095  0.00  0.00    +0.086 C 
ENDBRANCH  14  15
ENDBRANCH  13  14
ENDBRANCH   6  13
TORSDOF 4
