REMARK  Name = 
REMARK  0 active torsions:
REMARK  status: ('A' for Active; 'I' for Inactive)
REMARK                            x       y       z     vdW  Elec       q    Type
REMARK                         _______ _______ _______ _____ _____    ______ ____
ROOT
ATOM      1  O   UNL     1       0.934  -0.188   0.087  0.00  0.00    -0.265 OA
ATOM      2  C   UNL     1       2.156  -0.139   0.066  0.00  0.00    +0.284 A 
ATOM      3  C   UNL     1       2.858   1.127   0.100  0.00  0.00    +0.102 A 
ATOM      4  C   UNL     1       4.321   1.139  -0.001  0.00  0.00    +0.161 A 
ATOM      5  N   UNL     1       4.783   2.447  -0.024  0.00  0.00    -0.283 N 
ATOM      6  H   UNL     1       5.649   2.612   0.487  0.00  0.00    +0.188 HD
ATOM      7  N   UNL     1       3.679   3.242   0.241  0.00  0.00    -0.305 N 
ATOM      8  H   UNL     1       3.581   4.097  -0.315  0.00  0.00    +0.186 HD
ATOM      9  N   UNL     1       4.999   0.047  -0.028  0.00  0.00    -0.216 NA
ATOM     10  C   UNL     1       4.268  -1.116  -0.013  0.00  0.00    +0.227 A 
ATOM     11  C   UNL     1       2.552   2.426   0.214  0.00  0.00    +0.118 A 
ATOM     12  N   UNL     1       2.978  -1.235   0.023  0.00  0.00    -0.197 NA
ENDROOT
TORSDOF 0
