REMARK  Name = 
REMARK  51 active torsions:
REMARK  status: ('A' for Active; 'I' for Inactive)
REMARK    1  A    between atoms: C_1  and  C_2
REMARK    2  A    between atoms: C_2  and  O_4
REMARK    3  A    between atoms: C_2  and  C_5
REMARK    4  A    between atoms: C_5  and  N_7
REMARK    5  A    between atoms: C_5  and  C_82
REMARK    6  A    between atoms: C_8  and  C_10
REMARK    7  A    between atoms: C_10  and  C_12
REMARK    8  A    between atoms: C_10  and  C_13
REMARK    9  A    between atoms: C_13  and  O_15
REMARK   10  A    between atoms: C_13  and  C_16
REMARK   11  A    between atoms: C_16  and  C_18
REMARK   12  A    between atoms: C_16  and  N_19
REMARK   13  A    between atoms: C_20  and  C_22
REMARK   14  A    between atoms: C_22  and  N_24
REMARK   15  A    between atoms: C_22  and  C_49
REMARK   16  A    between atoms: C_25  and  C_27
REMARK   17  A    between atoms: C_28  and  C_29
REMARK   18  A    between atoms: C_33  and  C_35
REMARK   19  A    between atoms: C_35  and  C_37
REMARK   20  A    between atoms: C_35  and  N_41
REMARK   21  A    between atoms: C_37  and  C_38
REMARK   22  A    between atoms: N_41  and  C_42
REMARK   23  A    between atoms: C_42  and  C_43
REMARK   24  A    between atoms: C_43  and  N_45
REMARK   25  A    between atoms: C_43  and  C_46
REMARK   26  A    between atoms: C_49  and  O_51
REMARK   27  A    between atoms: C_49  and  C_77
REMARK   28  A    between atoms: O_51  and  C_52
REMARK   29  A    between atoms: C_54  and  C_55
REMARK   30  A    between atoms: C_55  and  O_56
REMARK   31  A    between atoms: C_57  and  O_58
REMARK   32  A    between atoms: C_59  and  O_60
REMARK   33  A    between atoms: C_61  and  O_62
REMARK   34  A    between atoms: O_62  and  C_63
REMARK   35  A    between atoms: C_65  and  C_66
REMARK   36  A    between atoms: C_66  and  O_67
REMARK   37  A    between atoms: C_68  and  O_69
REMARK   38  A    between atoms: C_70  and  O_71
REMARK   39  A    between atoms: O_71  and  C_72
REMARK   40  A    between atoms: C_75  and  O_76
REMARK   41  A    between atoms: N_84  and  C_85
REMARK   42  A    between atoms: C_85  and  C_86
REMARK   43  A    between atoms: C_86  and  C_87
REMARK   44  A    between atoms: C_89  and  C_92
REMARK   45  A    between atoms: C_94  and  C_97
REMARK   46  A    between atoms: N_99  and  C_100
REMARK   47  A    between atoms: C_100  and  C_101
REMARK   48  A    between atoms: C_101  and  C_102
REMARK   49  A    between atoms: C_102  and  S_103
REMARK   50  A    between atoms: S_103  and  C_104
REMARK   51  A    between atoms: S_103  and  C_105
REMARK                            x       y       z     vdW  Elec       q    Type
REMARK                         _______ _______ _______ _____ _____    ______ ____
ROOT
ATOM      1  C   UNL     1      -3.116   3.200 -11.669  0.00  0.00    +0.194 C 
ENDROOT
BRANCH   1   4
ATOM      2  N   UNL     1      -2.800   4.934 -13.479  0.00  0.00    -0.309 N 
ATOM      3  H   UNL     1      -3.243   5.582 -12.842  0.00  0.00    +0.149 HD
ATOM      4  C   UNL     1      -2.495   3.674 -13.014  0.00  0.00    +0.237 C 
ATOM      5  O   UNL     1      -1.659   2.981 -13.601  0.00  0.00    -0.274 OA
BRANCH   2   6
ATOM      6  C   UNL     1      -2.449   5.452 -14.827  0.00  0.00    +0.099 C 
ATOM      7  C   UNL     1      -3.416   4.901 -15.885  0.00  0.00    +0.030 C 
BRANCH   6   8
ATOM      8  C   UNL     1      -0.953   5.281 -15.254  0.00  0.00    +0.146 C 
BRANCH   8   9
ATOM      9  O   UNL     1      -0.734   3.988 -15.831  0.00  0.00    -0.389 OA
ATOM     10  H   UNL     1      -0.875   3.355 -15.085  0.00  0.00    +0.210 HD
ENDBRANCH   8   9
BRANCH   8  11
ATOM     11  C   UNL     1      -0.476   6.387 -16.231  0.00  0.00    +0.102 C 
ATOM     12  C   UNL     1      -1.274   6.603 -17.520  0.00  0.00    +0.020 C 
BRANCH  11  15
ATOM     13  N   UNL     1       1.250   5.193 -17.494  0.00  0.00    -0.302 N 
ATOM     14  H   UNL     1       0.547   4.460 -17.593  0.00  0.00    +0.150 HD
ATOM     15  C   UNL     1       0.985   6.198 -16.594  0.00  0.00    +0.219 C 
ATOM     16  O   UNL     1       1.858   6.926 -16.128  0.00  0.00    -0.275 OA
BRANCH  13  17
ATOM     17  C   UNL     1       2.625   4.869 -17.867  0.00  0.00    +0.187 C 
BRANCH  17  18
ATOM     18  C   UNL     1       2.573   4.130 -19.218  0.00  0.00    +0.236 C 
ATOM     19  N   UNL     1       2.395   4.983 -20.298  0.00  0.00    -0.313 N 
ATOM     20  H   UNL     1       2.241   5.969 -20.119  0.00  0.00    +0.149 HD
ATOM     21  O   UNL     1       2.548   2.911 -19.352  0.00  0.00    -0.274 OA
BRANCH  19  22
ATOM     22  C   UNL     1       2.275   4.478 -21.653  0.00  0.00    +0.111 C 
BRANCH  22  23
ATOM     23  C   UNL     1       0.833   4.133 -22.016  0.00  0.00    +0.081 C 
BRANCH  23  24
ATOM     24  C   UNL     1       0.756   3.552 -23.393  0.00  0.00    +0.081 A 
ATOM     25  S   UNL     1       0.915   1.856 -23.633  0.00  0.00    -0.080 S 
ATOM     26  C   UNL     1       0.715   2.085 -25.319  0.00  0.00    +0.077 A 
ATOM     27  C   UNL     1       0.532   3.424 -25.594  0.00  0.00    +0.103 A 
ATOM     28  N   UNL     1       0.576   4.263 -24.487  0.00  0.00    -0.242 NA
BRANCH  27  29
ATOM     29  C   UNL     1       0.281   3.939 -26.986  0.00  0.00    +0.128 A 
ATOM     30  S   UNL     1       0.112   5.619 -27.315  0.00  0.00    -0.073 S 
ATOM     31  C   UNL     1      -0.179   5.263 -28.958  0.00  0.00    +0.080 A 
ATOM     32  C   UNL     1      -0.134   3.896 -29.160  0.00  0.00    +0.133 A 
ATOM     33  N   UNL     1       0.155   3.140 -28.031  0.00  0.00    -0.233 NA
BRANCH  32  34
ATOM     34  C   UNL     1      -0.394   3.302 -30.469  0.00  0.00    +0.263 C 
ATOM     35  N   UNL     1      -0.337   1.919 -30.466  0.00  0.00    -0.310 N 
ATOM     36  H   UNL     1      -0.066   1.464 -29.607  0.00  0.00    +0.149 HD
ATOM     37  O   UNL     1      -0.648   3.957 -31.476  0.00  0.00    -0.269 OA
BRANCH  35  38
ATOM     38  C   UNL     1      -0.543   1.137 -31.670  0.00  0.00    +0.109 C 
BRANCH  38  39
ATOM     39  C   UNL     1       0.751   0.944 -32.463  0.00  0.00    +0.073 C 
BRANCH  39  40
ATOM     40  C   UNL     1       1.826   0.142 -31.734  0.00  0.00    +0.279 C 
BRANCH  40  41
ATOM     41  S   UNL     1       1.268  -1.524 -31.246  0.00  0.00    -0.016 S 
ATOM     42  C   UNL     1       2.911  -2.235 -30.988  0.00  0.00    +0.340 C 
ATOM     43  C   UNL     1       1.020  -2.195 -32.906  0.00  0.00    +0.340 C 
ENDBRANCH  40  41
ENDBRANCH  39  40
ENDBRANCH  38  39
ENDBRANCH  35  38
ENDBRANCH  32  34
ENDBRANCH  27  29
ENDBRANCH  23  24
ENDBRANCH  22  23
ENDBRANCH  19  22
ENDBRANCH  17  18
BRANCH  17  45
ATOM     44  C   UNL     1       2.907   2.758 -16.367  0.00  0.00    +0.040 C 
ATOM     45  C   UNL     1       3.395   4.152 -16.740  0.00  0.00    +0.141 C 
BRANCH  45  46
ATOM     46  O   UNL     1       4.790   4.110 -17.057  0.00  0.00    -0.390 OA
ATOM     47  H   UNL     1       5.262   3.918 -16.229  0.00  0.00    +0.210 HD
ENDBRANCH  45  46
ENDBRANCH  17  45
ENDBRANCH  13  17
ENDBRANCH  11  15
ENDBRANCH   8  11
ENDBRANCH   6   8
ENDBRANCH   2   6
ENDBRANCH   1   4
BRANCH   1  48
ATOM     48  N   UNL     1      -2.252   3.713 -10.591  0.00  0.00    -0.296 N 
ATOM     49  H   UNL     1      -2.429   4.602 -10.131  0.00  0.00    +0.150 HD
ATOM     50  C   UNL     1      -1.222   2.924 -10.101  0.00  0.00    +0.263 C 
ATOM     51  O   UNL     1      -0.942   1.836 -10.594  0.00  0.00    -0.268 OA
BRANCH  50  52
ATOM     52  C   UNL     1      -0.449   3.448  -8.929  0.00  0.00    +0.134 A 
ATOM     53  N   UNL     1      -0.204   4.781  -8.962  0.00  0.00    -0.225 NA
ATOM     54  C   UNL     1       0.650   5.251  -8.042  0.00  0.00    +0.149 A 
ATOM     55  N   UNL     1       1.233   4.481  -7.103  0.00  0.00    -0.216 NA
ATOM     56  C   UNL     1       0.950   3.171  -7.090  0.00  0.00    +0.123 A 
ATOM     57  N   UNL     1       1.712   2.405  -6.215  0.00  0.00    -0.343 N 
ATOM     58  H   UNL     1       2.283   3.023  -5.646  0.00  0.00    +0.144 HD
ATOM     59  H   UNL     1       1.183   1.737  -5.670  0.00  0.00    +0.144 HD
ATOM     60  C   UNL     1       0.058   2.585  -7.970  0.00  0.00    +0.020 A 
ATOM     61  C   UNL     1      -0.269   1.127  -7.888  0.00  0.00    +0.050 C 
BRANCH  54  62
ATOM     62  C   UNL     1       1.105   6.727  -8.125  0.00  0.00    +0.131 C 
BRANCH  62  63
ATOM     63  N   UNL     1       2.577   6.788  -8.388  0.00  0.00    -0.304 NA
ATOM     64  H   UNL     1       2.764   6.384  -9.308  0.00  0.00    +0.123 HD
BRANCH  63  65
ATOM     65  C   UNL     1       3.188   8.121  -8.273  0.00  0.00    +0.109 C 
BRANCH  65  66
ATOM     66  C   UNL     1       4.719   8.056  -8.506  0.00  0.00    +0.151 C 
BRANCH  66  67
ATOM     67  C   UNL     1       5.319   9.470  -8.493  0.00  0.00    +0.229 C 
ATOM     68  O   UNL     1       5.371  10.190  -9.484  0.00  0.00    -0.274 OA
ATOM     69  N   UNL     1       5.757   9.904  -7.274  0.00  0.00    -0.328 N 
ATOM     70  H   UNL     1       6.274  10.770  -7.228  0.00  0.00    +0.145 HD
ATOM     71  H   UNL     1       5.851   9.216  -6.533  0.00  0.00    +0.145 HD
ENDBRANCH  66  67
BRANCH  66  72
ATOM     72  N   UNL     1       5.397   7.215  -7.480  0.00  0.00    -0.319 NA
ATOM     73  H   UNL     1       4.970   6.285  -7.542  0.00  0.00    +0.119 HD
ATOM     74  H   UNL     1       6.372   7.099  -7.756  0.00  0.00    +0.119 HD
ENDBRANCH  66  72
ENDBRANCH  65  66
ENDBRANCH  63  65
ENDBRANCH  62  63
BRANCH  62  75
ATOM     75  C   UNL     1       0.314   7.525  -9.181  0.00  0.00    +0.122 C 
BRANCH  75  76
ATOM     76  C   UNL     1      -1.197   7.457  -9.056  0.00  0.00    +0.212 C 
ATOM     77  O   UNL     1      -1.942   7.182  -9.997  0.00  0.00    -0.276 OA
ATOM     78  N   UNL     1      -1.730   7.807  -7.853  0.00  0.00    -0.329 N 
ATOM     79  H   UNL     1      -2.738   7.776  -7.768  0.00  0.00    +0.145 HD
ATOM     80  H   UNL     1      -1.195   7.920  -7.004  0.00  0.00    +0.145 HD
ENDBRANCH  75  76
ENDBRANCH  62  75
ENDBRANCH  54  62
ENDBRANCH  50  52
ENDBRANCH   1  48
BRANCH   1  81
ATOM     81  C   UNL     1      -4.640   3.438 -11.375  0.00  0.00    +0.198 C 
BRANCH  81  82
ATOM     82  C   UNL     1      -4.989   2.937  -9.978  0.00  0.00    +0.067 A 
ATOM     83  N   UNL     1      -6.050   3.407  -9.245  0.00  0.00    -0.346 N 
ATOM     84  H   UNL     1      -6.731   4.092  -9.545  0.00  0.00    +0.167 HD
ATOM     85  C   UNL     1      -6.071   2.738  -8.052  0.00  0.00    +0.196 A 
ATOM     86  N   UNL     1      -5.100   1.860  -7.976  0.00  0.00    -0.244 NA
ATOM     87  C   UNL     1      -4.449   1.942  -9.179  0.00  0.00    +0.136 A 
ENDBRANCH  81  82
BRANCH  81  88
ATOM     88  O   UNL     1      -5.590   2.719 -12.174  0.00  0.00    -0.337 OA
BRANCH  88  89
ATOM     89  C   UNL     1      -5.792   3.182 -13.504  0.00  0.00    +0.283 C 
ATOM     90  C   UNL     1      -7.149   2.708 -14.123  0.00  0.00    +0.208 C 
ATOM     91  C   UNL     1      -7.083   1.167 -14.096  0.00  0.00    +0.179 C 
ATOM     92  C   UNL     1      -5.950   0.684 -15.023  0.00  0.00    +0.177 C 
ATOM     93  C   UNL     1      -4.623   1.305 -14.528  0.00  0.00    +0.178 C 
ATOM     94  O   UNL     1      -4.732   2.728 -14.341  0.00  0.00    -0.340 OA
BRANCH  92  95
ATOM     95  O   UNL     1      -6.183   1.083 -16.380  0.00  0.00    -0.386 OA
ATOM     96  H   UNL     1      -5.879   2.011 -16.454  0.00  0.00    +0.210 HD
ENDBRANCH  92  95
BRANCH  91  97
ATOM     97  O   UNL     1      -8.348   0.528 -14.276  0.00  0.00    -0.386 OA
ATOM     98  H   UNL     1      -8.702   0.668 -15.164  0.00  0.00    +0.210 HD
ENDBRANCH  91  97
BRANCH  90  99
ATOM     99  O   UNL     1      -7.228   3.312 -15.451  0.00  0.00    -0.338 OA
BRANCH  99 100
ATOM    100  C   UNL     1      -8.304   2.889 -16.294  0.00  0.00    +0.283 C 
ATOM    101  C   UNL     1      -8.118   3.394 -17.745  0.00  0.00    +0.213 C 
ATOM    102  C   UNL     1      -8.372   4.900 -17.774  0.00  0.00    +0.242 C 
ATOM    103  C   UNL     1      -9.765   5.203 -17.181  0.00  0.00    +0.189 C 
ATOM    104  C   UNL     1      -9.771   4.680 -15.734  0.00  0.00    +0.179 C 
ATOM    105  O   UNL     1      -9.562   3.256 -15.736  0.00  0.00    -0.340 OA
BRANCH 103 106
ATOM    106  O   UNL     1     -10.778   4.558 -17.980  0.00  0.00    -0.385 OA
ATOM    107  H   UNL     1     -11.263   3.920 -17.424  0.00  0.00    +0.210 HD
ENDBRANCH 103 106
BRANCH 101 108
ATOM    108  O   UNL     1      -9.003   2.673 -18.627  0.00  0.00    -0.383 OA
ATOM    109  H   UNL     1      -9.776   3.247 -18.803  0.00  0.00    +0.210 HD
ENDBRANCH 101 108
BRANCH 104 110
ATOM    110  C   UNL     1     -11.084   4.898 -14.986  0.00  0.00    +0.190 C 
BRANCH 110 111
ATOM    111  O   UNL     1     -10.907   4.481 -13.627  0.00  0.00    -0.392 OA
ATOM    112  H   UNL     1     -10.648   3.539 -13.670  0.00  0.00    +0.210 HD
ENDBRANCH 110 111
ENDBRANCH 104 110
BRANCH 102 113
ATOM    113  O   UNL     1      -8.235   5.378 -19.125  0.00  0.00    -0.442 OA
BRANCH 113 114
ATOM    114  C   UNL     1      -7.897   6.686 -19.214  0.00  0.00    +0.398 C 
ATOM    115  O   UNL     1      -7.771   7.454 -18.272  0.00  0.00    -0.227 OA
ATOM    116  N   UNL     1      -7.693   7.039 -20.498  0.00  0.00    -0.295 N 
ATOM    117  H   UNL     1      -7.416   7.986 -20.706  0.00  0.00    +0.148 HD
ATOM    118  H   UNL     1      -7.753   6.351 -21.234  0.00  0.00    +0.148 HD
ENDBRANCH 113 114
ENDBRANCH 102 113
ENDBRANCH  99 100
ENDBRANCH  90  99
BRANCH  93 119
ATOM    119  C   UNL     1      -3.478   1.077 -15.533  0.00  0.00    +0.190 C 
BRANCH 119 120
ATOM    120  O   UNL     1      -3.346  -0.284 -15.909  0.00  0.00    -0.392 OA
ATOM    121  H   UNL     1      -3.150  -0.793 -15.107  0.00  0.00    +0.210 HD
ENDBRANCH 119 120
ENDBRANCH  93 119
ENDBRANCH  88  89
ENDBRANCH  81  88
ENDBRANCH   1  81
TORSDOF 45
