REMARK  Name = 
REMARK  7 active torsions:
REMARK  status: ('A' for Active; 'I' for Inactive)
REMARK    1  A    between atoms: C_1  and  N_2
REMARK    2  A    between atoms: C_9  and  O_11
REMARK    3  A    between atoms: O_11  and  C_12
REMARK    4  A    between atoms: C_12  and  C_14
REMARK    5  A    between atoms: C_14  and  O_15
REMARK    6  A    between atoms: C_14  and  C_16
REMARK    7  A    between atoms: C_14  and  C_22
REMARK                            x       y       z     vdW  Elec       q    Type
REMARK                         _______ _______ _______ _____ _____    ______ ____
ROOT
ATOM      1  C   UNL     1       3.236   3.912   0.139  0.00  0.00    +0.213 C 
ENDROOT
BRANCH   1   2
ATOM      2  C   UNL     1       3.052   4.538  -1.257  0.00  0.00    -0.001 A 
ATOM      3  C   UNL     1       4.048   5.292  -1.903  0.00  0.00    +0.007 A 
ATOM      4  C   UNL     1       3.837   5.830  -3.180  0.00  0.00    +0.000 A 
ATOM      5  C   UNL     1       2.618   5.640  -3.834  0.00  0.00    +0.000 A 
ATOM      6  C   UNL     1       1.605   4.933  -3.200  0.00  0.00    +0.000 A 
ATOM      7  C   UNL     1       1.815   4.399  -1.926  0.00  0.00    +0.007 A 
ENDBRANCH   1   2
BRANCH   1   8
ATOM      8  C   UNL     1       2.635   4.791   1.253  0.00  0.00    -0.001 A 
ATOM      9  C   UNL     1       1.545   4.343   2.027  0.00  0.00    +0.007 A 
ATOM     10  C   UNL     1       0.988   5.137   3.033  0.00  0.00    +0.000 A 
ATOM     11  C   UNL     1       1.507   6.398   3.287  0.00  0.00    +0.000 A 
ATOM     12  C   UNL     1       2.583   6.871   2.536  0.00  0.00    +0.000 A 
ATOM     13  C   UNL     1       3.138   6.075   1.526  0.00  0.00    +0.007 A 
ENDBRANCH   1   8
BRANCH   1  14
ATOM     14  C   UNL     1       4.739   3.534   0.483  0.00  0.00    +0.349 C 
ATOM     15  O   UNL     1       5.648   4.296   0.781  0.00  0.00    -0.247 OA
BRANCH  14  16
ATOM     16  O   UNL     1       4.904   2.174   0.402  0.00  0.00    -0.453 OA
BRANCH  16  20
ATOM     17  C   UNL     1       9.588   2.681   1.909  0.00  0.00    +0.192 C 
ATOM     18  N   UNL     1       8.256   1.949   1.976  0.00  0.00    +0.244 N 
ATOM     19  C   UNL     1       7.498   2.132   0.629  0.00  0.00    +0.178 C 
ATOM     20  C   UNL     1       6.119   1.432   0.709  0.00  0.00    +0.225 C 
ATOM     21  C   UNL     1       5.975   0.740   2.082  0.00  0.00    +0.045 C 
ATOM     22  C   UNL     1       6.076   1.795   3.191  0.00  0.00    +0.058 C 
ATOM     23  C   UNL     1       7.136  -0.255   2.264  0.00  0.00    +0.058 C 
ATOM     24  C   UNL     1       7.419   2.522   3.132  0.00  0.00    +0.133 C 
ATOM     25  C   UNL     1       8.490   0.455   2.225  0.00  0.00    +0.133 C 
ENDBRANCH  16  20
ENDBRANCH  14  16
ENDBRANCH   1  14
BRANCH   1  26
ATOM     26  O   UNL     1       2.485   2.672   0.121  0.00  0.00    -0.370 OA
ATOM     27  H   UNL     1       3.120   1.961  -0.072  0.00  0.00    +0.212 HD
ENDBRANCH   1  26
TORSDOF 6
