REMARK  Name = 
REMARK  10 active torsions:
REMARK  status: ('A' for Active; 'I' for Inactive)
REMARK    1  A    between atoms: C_2  and  C_3
REMARK    2  A    between atoms: C_3  and  O_4
REMARK    3  A    between atoms: C_3  and  C_5
REMARK    4  A    between atoms: C_5  and  N_6
REMARK    5  A    between atoms: N_9  and  C_10
REMARK    6  A    between atoms: C_10  and  C_11
REMARK    7  A    between atoms: N_16  and  C_17
REMARK    8  A    between atoms: C_17  and  C_18
REMARK    9  A    between atoms: N_23  and  C_24
REMARK   10  A    between atoms: C_24  and  C_25
REMARK                            x       y       z     vdW  Elec       q    Type
REMARK                         _______ _______ _______ _____ _____    ______ ____
ROOT
ATOM      1 GD   UNL     1       0.895  -1.387  -2.067  0.00  0.00    +0.000 Gd
ENDROOT
TORSDOF 0
REMARK  Name = 
REMARK  10 active torsions:
REMARK  status: ('A' for Active; 'I' for Inactive)
REMARK    1  A    between atoms: C_2  and  C_3
REMARK    2  A    between atoms: C_3  and  O_4
REMARK    3  A    between atoms: C_3  and  C_5
REMARK    4  A    between atoms: C_5  and  N_6
REMARK    5  A    between atoms: N_9  and  C_10
REMARK    6  A    between atoms: C_10  and  C_11
REMARK    7  A    between atoms: N_16  and  C_17
REMARK    8  A    between atoms: C_17  and  C_18
REMARK    9  A    between atoms: N_23  and  C_24
REMARK   10  A    between atoms: C_24  and  C_25
REMARK                            x       y       z     vdW  Elec       q    Type
REMARK                         _______ _______ _______ _____ _____    ______ ____
ROOT
ATOM      1  N   UNL     1       4.619  -0.798   1.121  0.00  0.00    +0.000 NA
ATOM      2  C   UNL     1       5.442   0.264   0.496  0.00  0.00    +0.000 C 
ATOM      3  C   UNL     1       5.838   1.340   1.512  0.00  0.00    +0.000 C 
ATOM      4  N   UNL     1       7.076   2.022   1.052  0.00  0.00    +0.000 NA
ATOM      5  C   UNL     1       8.201   1.876   2.017  0.00  0.00    +0.000 C 
ATOM      6  C   UNL     1       8.985   0.545   1.837  0.00  0.00    +0.000 C 
ATOM      7  N   UNL     1       8.289  -0.673   2.319  0.00  0.00    +0.000 NA
ATOM      8  C   UNL     1       8.931  -1.885   1.747  0.00  0.00    +0.000 C 
ATOM      9  C   UNL     1       8.178  -3.200   2.013  0.00  0.00    +0.000 C 
ATOM     10  N   UNL     1       7.058  -3.362   1.051  0.00  0.00    +0.000 NA
ATOM     11  C   UNL     1       5.771  -2.903   1.619  0.00  0.00    +0.000 C 
ATOM     12  C   UNL     1       4.931  -2.133   0.570  0.00  0.00    +0.000 C 
ENDROOT
BRANCH   1  13
ATOM     13  C   UNL     1       3.173  -0.503   1.256  0.00  0.00    +0.000 C 
BRANCH  13  15
ATOM     14  C   UNL     1       3.103  -1.339   3.699  0.00  0.00    +0.000 C 
ATOM     15  C   UNL     1       2.497  -1.449   2.290  0.00  0.00    +0.000 C 
BRANCH  15  16
ATOM     16  O   UNL     1       1.112  -1.202   2.340  0.00  0.00    +0.000 OA
ATOM     17  H   UNL     1       0.979  -0.298   2.723  0.00  0.00    +0.000 HD
ENDBRANCH  15  16
ENDBRANCH  13  15
ENDBRANCH   1  13
BRANCH   4  18
ATOM     18  C   UNL     1       6.842   3.436   0.684  0.00  0.00    +0.000 C 
BRANCH  18  19
ATOM     19  C   UNL     1       8.041   4.010  -0.031  0.00  0.00    +0.000 C 
ATOM     20  O   UNL     1       8.636   4.969   0.437  0.00  0.00    -0.500 OA
ATOM     21  O   UNL     1       8.488   3.440  -1.166  0.00  0.00    -0.500 OA
ENDBRANCH  18  19
ENDBRANCH   4  18
BRANCH   7  22
ATOM     22  C   UNL     1       8.098  -0.683   3.809  0.00  0.00    +0.000 C 
BRANCH  22  23
ATOM     23  C   UNL     1       9.115  -1.360   4.725  0.00  0.00    +0.000 C 
ATOM     24  O   UNL     1       8.886  -1.364   5.925  0.00  0.00    -0.500 OA
ATOM     25  O   UNL     1      10.244  -1.952   4.300  0.00  0.00    -0.500 OA
ENDBRANCH  22  23
ENDBRANCH   7  22
BRANCH  10  26
ATOM     26  C   UNL     1       6.996  -4.757   0.560  0.00  0.00    +0.000 C 
BRANCH  26  27
ATOM     27  C   UNL     1       6.036  -4.917  -0.578  0.00  0.00    +0.000 C 
ATOM     28  O   UNL     1       5.101  -5.695  -0.487  0.00  0.00    -0.500 OA
ATOM     29  O   UNL     1       6.221  -4.225  -1.718  0.00  0.00    -0.500 OA
ENDBRANCH  26  27
ENDBRANCH  10  26
TORSDOF 9
