REMARK  Name = 
REMARK  12 active torsions:
REMARK  status: ('A' for Active; 'I' for Inactive)
REMARK    1  A    between atoms: C_1  and  O_2
REMARK    2  A    between atoms: O_2  and  C_3
REMARK    3  A    between atoms: C_6  and  C_7
REMARK    4  A    between atoms: C_7  and  C_8
REMARK    5  A    between atoms: C_8  and  C_9
REMARK    6  A    between atoms: C_8  and  N_10
REMARK    7  A    between atoms: N_10  and  C_11
REMARK    8  A    between atoms: C_11  and  C_12
REMARK    9  A    between atoms: C_12  and  O_13
REMARK   10  A    between atoms: C_12  and  C_14
REMARK   11  A    between atoms: C_16  and  N_17
REMARK   12  A    between atoms: C_20  and  O_21
REMARK                            x       y       z     vdW  Elec       q    Type
REMARK                         _______ _______ _______ _____ _____    ______ ____
ROOT
ATOM      1  C   UNL     1       4.951  -9.805  -0.880  0.00  0.00    +0.158 C 
ENDROOT
BRANCH   1   2
ATOM      2  C   UNL     1       4.052 -10.990  -0.554  0.00  0.00    -0.016 A 
ATOM      3  C   UNL     1       3.737 -11.933  -1.542  0.00  0.00    +0.010 A 
ATOM      4  C   UNL     1       2.874 -12.994  -1.260  0.00  0.00    +0.047 A 
ATOM      5  C   UNL     1       2.333 -13.131   0.015  0.00  0.00    +0.138 A 
ATOM      6  C   UNL     1       2.631 -12.214   1.029  0.00  0.00    +0.075 A 
ATOM      7  C   UNL     1       3.489 -11.150   0.731  0.00  0.00    +0.033 A 
BRANCH   6   8
ATOM      8  N   UNL     1       2.039 -12.367   2.295  0.00  0.00    -0.285 N 
ATOM      9  H   UNL     1       1.251 -12.993   2.397  0.00  0.00    +0.155 HD
ATOM     10  C   UNL     1       2.381 -11.727   3.453  0.00  0.00    +0.330 C 
ATOM     11  O   UNL     1       1.783 -11.907   4.501  0.00  0.00    -0.279 OA
ENDBRANCH   6   8
BRANCH   5  12
ATOM     12  O   UNL     1       1.538 -14.222   0.236  0.00  0.00    -0.505 OA
ATOM     13  H   UNL     1       1.665 -14.498   1.160  0.00  0.00    +0.292 HD
ENDBRANCH   5  12
ENDBRANCH   1   2
BRANCH   1  14
ATOM     14  O   UNL     1       6.112  -9.823  -0.040  0.00  0.00    -0.386 OA
ATOM     15  H   UNL     1       5.841 -10.090   0.851  0.00  0.00    +0.210 HD
ENDBRANCH   1  14
BRANCH   1  16
ATOM     16  C   UNL     1       4.192  -8.470  -0.680  0.00  0.00    +0.117 C 
BRANCH  16  17
ATOM     17  N   UNL     1       5.028  -7.273  -0.891  0.00  0.00    -0.310 NA
ATOM     18  H   UNL     1       5.884  -7.365  -0.334  0.00  0.00    +0.122 HD
BRANCH  17  19
ATOM     19  C   UNL     1       4.321  -6.017  -0.580  0.00  0.00    +0.055 C 
ATOM     20  C   UNL     1       5.238  -4.851  -0.979  0.00  0.00    +0.024 C 
BRANCH  19  21
ATOM     21  C   UNL     1       3.912  -5.896   0.911  0.00  0.00    +0.053 C 
BRANCH  21  25
ATOM     22  C   UNL     1       1.213  -2.789   2.187  0.00  0.00    +0.120 A 
ATOM     23  C   UNL     1       2.447  -2.952   2.814  0.00  0.00    +0.046 A 
ATOM     24  C   UNL     1       3.340  -3.925   2.360  0.00  0.00    +0.007 A 
ATOM     25  C   UNL     1       3.012  -4.738   1.270  0.00  0.00    -0.046 A 
ATOM     26  C   UNL     1       1.791  -4.533   0.614  0.00  0.00    +0.007 A 
ATOM     27  C   UNL     1       0.904  -3.552   1.064  0.00  0.00    +0.046 A 
BRANCH  22  29
ATOM     28  C   UNL     1       0.176  -1.712   3.998  0.00  0.00    +0.277 C 
ATOM     29  O   UNL     1       0.255  -1.895   2.586  0.00  0.00    -0.495 OA
ENDBRANCH  22  29
ENDBRANCH  21  25
ENDBRANCH  19  21
ENDBRANCH  17  19
ENDBRANCH  16  17
ENDBRANCH   1  16
TORSDOF 10
