REMARK  Name = 
REMARK  8 active torsions:
REMARK  status: ('A' for Active; 'I' for Inactive)
REMARK    1  A    between atoms: C_1  and  O_2
REMARK    2  A    between atoms: O_2  and  C_3
REMARK    3  A    between atoms: C_5  and  C_6
REMARK    4  A    between atoms: C_6  and  C_7
REMARK    5  A    between atoms: C_16  and  O_17
REMARK    6  A    between atoms: O_17  and  C_18
REMARK    7  A    between atoms: C_19  and  O_20
REMARK    8  A    between atoms: O_20  and  C_21
REMARK                            x       y       z     vdW  Elec       q    Type
REMARK                         _______ _______ _______ _____ _____    ______ ____
ROOT
ATOM      1  C   UNL     1       5.988  -1.984   2.705  0.00  0.00    +0.075 C 
ENDROOT
BRANCH   1   2
ATOM      2  C   UNL     1       6.054  -1.417   4.089  0.00  0.00    +0.015 A 
ATOM      3  C   UNL     1       6.879  -0.362   4.451  0.00  0.00    +0.125 A 
ATOM      4  N   UNL     1       7.489   0.464   3.508  0.00  0.00    -0.343 N 
ATOM      5  H   UNL     1       8.036  -0.046   2.827  0.00  0.00    +0.144 HD
ATOM      6  H   UNL     1       8.069   1.119   4.029  0.00  0.00    +0.144 HD
ATOM      7  N   UNL     1       7.130  -0.034   5.726  0.00  0.00    -0.200 NA
ATOM      8  C   UNL     1       6.549  -0.771   6.674  0.00  0.00    +0.214 A 
ATOM      9  N   UNL     1       6.919  -0.538   7.980  0.00  0.00    -0.327 N 
ATOM     10  H   UNL     1       7.310   0.387   8.077  0.00  0.00    +0.145 HD
ATOM     11  H   UNL     1       6.178  -0.811   8.608  0.00  0.00    +0.145 HD
ATOM     12  N   UNL     1       5.650  -1.728   6.446  0.00  0.00    -0.223 NA
ATOM     13  C   UNL     1       5.424  -2.030   5.154  0.00  0.00    +0.121 A 
ENDBRANCH   1   2
BRANCH   1  18
ATOM     14  C   UNL     1       3.125  -0.957   0.401  0.00  0.00    +0.165 A 
ATOM     15  C   UNL     1       2.430  -2.174   0.252  0.00  0.00    +0.204 A 
ATOM     16  C   UNL     1       2.802  -3.266   1.060  0.00  0.00    +0.165 A 
ATOM     17  C   UNL     1       3.888  -3.160   1.939  0.00  0.00    +0.053 A 
ATOM     18  C   UNL     1       4.665  -2.001   1.982  0.00  0.00    -0.036 A 
ATOM     19  C   UNL     1       4.260  -0.895   1.226  0.00  0.00    +0.053 A 
BRANCH  14  21
ATOM     20  C   UNL     1       2.894   1.413   0.295  0.00  0.00    +0.277 C 
ATOM     21  O   UNL     1       2.689   0.136  -0.302  0.00  0.00    -0.491 OA
ENDBRANCH  14  21
BRANCH  15  22
ATOM     22  O   UNL     1       1.347  -2.355  -0.577  0.00  0.00    -0.488 OA
ATOM     23  C   UNL     1       1.395  -1.687  -1.835  0.00  0.00    +0.277 C 
ENDBRANCH  15  22
BRANCH  16  24
ATOM     24  O   UNL     1       2.163  -4.481   1.113  0.00  0.00    -0.491 OA
ATOM     25  C   UNL     1       1.909  -5.080  -0.154  0.00  0.00    +0.277 C 
ENDBRANCH  16  24
ENDBRANCH   1  18
TORSDOF 5
