REMARK  Name = 
REMARK  5 active torsions:
REMARK  status: ('A' for Active; 'I' for Inactive)
REMARK    1  A    between atoms: N_9  and  C_10
REMARK    2  A    between atoms: C_10  and  O_11
REMARK    3  A    between atoms: O_11  and  C_12
REMARK    4  A    between atoms: C_12  and  C_13
REMARK    5  A    between atoms: C_13  and  O_14
REMARK                            x       y       z     vdW  Elec       q    Type
REMARK                         _______ _______ _______ _____ _____    ______ ____
ROOT
ATOM      1  N   UNL     1       1.201   0.103   0.145  0.00  0.00    -0.329 N 
ATOM      2  H   UNL     1       0.758   0.815  -0.419  0.00  0.00    +0.145 HD
ATOM      3  H   UNL     1       0.766  -0.806   0.007  0.00  0.00    +0.145 HD
ATOM      4  C   UNL     1       2.549   0.014   0.032  0.00  0.00    +0.195 A 
ATOM      5  N   UNL     1       3.167   1.240  -0.031  0.00  0.00    -0.312 N 
ATOM      6  H   UNL     1       2.633   2.061   0.224  0.00  0.00    +0.170 HD
ATOM      7  C   UNL     1       4.509   1.224  -0.048  0.00  0.00    +0.148 A 
ATOM      8  N   UNL     1       5.398   2.248  -0.012  0.00  0.00    -0.292 N 
ATOM      9  C   UNL     1       6.645   1.670  -0.033  0.00  0.00    +0.203 A 
ATOM     10  N   UNL     1       6.583   0.352  -0.077  0.00  0.00    -0.229 NA
ATOM     11  C   UNL     1       5.235   0.061  -0.075  0.00  0.00    +0.172 A 
ATOM     12  C   UNL     1       4.531  -1.229  -0.077  0.00  0.00    +0.302 A 
ATOM     13  O   UNL     1       5.123  -2.300  -0.141  0.00  0.00    -0.263 OA
ATOM     14  N   UNL     1       3.134  -1.147   0.004  0.00  0.00    -0.176 NA
ENDROOT
BRANCH   8  15
ATOM     15  C   UNL     1       5.129   3.670  -0.039  0.00  0.00    +0.287 C 
BRANCH  15  16
ATOM     16  O   UNL     1       4.330   4.006   1.096  0.00  0.00    -0.357 OA
BRANCH  16  17
ATOM     17  C   UNL     1       4.117   5.421   1.170  0.00  0.00    +0.190 C 
BRANCH  17  18
ATOM     18  C   UNL     1       3.310   5.734   2.426  0.00  0.00    +0.184 C 
BRANCH  18  19
ATOM     19  O   UNL     1       4.049   5.364   3.586  0.00  0.00    -0.393 OA
ATOM     20  H   UNL     1       4.245   4.412   3.492  0.00  0.00    +0.209 HD
ENDBRANCH  18  19
ENDBRANCH  17  18
ENDBRANCH  16  17
ENDBRANCH  15  16
ENDBRANCH   8  15
TORSDOF 5
