REMARK  Name = 
REMARK  1 active torsions:
REMARK  status: ('A' for Active; 'I' for Inactive)
REMARK    1  A    between atoms: C_1  and  N_2
REMARK                            x       y       z     vdW  Elec       q    Type
REMARK                         _______ _______ _______ _____ _____    ______ ____
ROOT
ATOM      1  C   UNL     1       0.964   0.188   0.130  0.00  0.00    +0.104 C 
ATOM      2  N   UNL     1       2.420   0.148   0.001  0.00  0.00    -0.305 NA
ATOM      3  C   UNL     1       2.913   1.093  -1.011  0.00  0.00    +0.088 C 
ATOM      4  C   UNL     1       2.615   0.699  -2.469  0.00  0.00    +0.047 C 
ATOM      5  C   UNL     1       3.053  -0.727  -2.802  0.00  0.00    -0.059 C 
ATOM      6  C   UNL     1       3.781  -1.088  -3.898  0.00  0.00    -0.010 C 
ATOM      7  C   UNL     1       4.234  -0.020  -4.839  0.00  0.00    -0.014 A 
ATOM      8  C   UNL     1       5.609   0.258  -4.968  0.00  0.00    -0.032 A 
ATOM      9  C   UNL     1       6.028   1.283  -5.832  0.00  0.00    +0.004 A 
ATOM     10  C   UNL     1       5.094   2.020  -6.560  0.00  0.00    +0.000 A 
ATOM     11  C   UNL     1       3.737   1.727  -6.454  0.00  0.00    +0.001 A 
ATOM     12  C   UNL     1       6.630  -0.536  -4.188  0.00  0.00    +0.116 C 
ATOM     13  C   UNL     1       6.711  -1.996  -4.602  0.00  0.00    +0.175 C 
ATOM     14  O   UNL     1       7.794  -2.441  -5.000  0.00  0.00    -0.291 OA
ATOM     15  C   UNL     1       5.508  -2.817  -4.454  0.00  0.00    +0.063 A 
ATOM     16  S   UNL     1       5.653  -4.520  -4.654  0.00  0.00    -0.093 S 
ATOM     17  C   UNL     1       3.990  -4.772  -4.381  0.00  0.00    +0.046 A 
ATOM     18  C   UNL     1       3.321  -3.588  -4.175  0.00  0.00    +0.017 A 
ATOM     19  C   UNL     1       3.309   0.701  -5.611  0.00  0.00    +0.009 A 
ATOM     20  C   UNL     1       4.202  -2.456  -4.149  0.00  0.00    +0.000 A 
ATOM     21  C   UNL     1       2.589  -1.700  -1.720  0.00  0.00    +0.047 C 
ATOM     22  C   UNL     1       2.910  -1.203  -0.301  0.00  0.00    +0.088 C 
ENDROOT
TORSDOF 0
