REMARK  Name = 
REMARK  8 active torsions:
REMARK  status: ('A' for Active; 'I' for Inactive)
REMARK    1  A    between atoms: C_1  and  C_2
REMARK    2  A    between atoms: C_2  and  C_3
REMARK    3  A    between atoms: C_2  and  N_4
REMARK    4  A    between atoms: N_4  and  C_5
REMARK    5  A    between atoms: C_5  and  C_6
REMARK    6  A    between atoms: C_6  and  C_7
REMARK    7  A    between atoms: C_7  and  C_8
REMARK    8  A    between atoms: C_8  and  C_9
REMARK                            x       y       z     vdW  Elec       q    Type
REMARK                         _______ _______ _______ _____ _____    ______ ____
ROOT
ATOM      1  C   UNL     1       6.908   1.475  -4.203  0.00  0.00    +0.098 C 
ATOM      2  C   UNL     1       6.821   2.995  -4.383  0.00  0.00    -0.020 A 
ATOM      3  C   UNL     1       8.115   3.541  -4.521  0.00  0.00    -0.013 A 
ATOM      4  C   UNL     1       8.286   4.913  -4.610  0.00  0.00    +0.009 A 
ATOM      5  C   UNL     1       7.152   5.732  -4.569  0.00  0.00    +0.001 A 
ATOM      6  C   UNL     1       5.866   5.179  -4.451  0.00  0.00    +0.000 A 
ATOM      7  C   UNL     1       9.090   2.470  -4.506  0.00  0.00    -0.013 A 
ATOM      8  C   UNL     1      10.470   2.505  -4.616  0.00  0.00    +0.009 A 
ATOM      9  C   UNL     1      11.175   1.298  -4.556  0.00  0.00    +0.001 A 
ATOM     10  C   UNL     1      10.503   0.077  -4.388  0.00  0.00    +0.000 A 
ATOM     11  C   UNL     1       9.114   0.039  -4.273  0.00  0.00    +0.005 A 
ATOM     12  C   UNL     1       5.690   3.800  -4.356  0.00  0.00    +0.005 A 
ATOM     13  C   UNL     1       8.420   1.239  -4.334  0.00  0.00    -0.020 A 
ENDROOT
BRANCH   1  14
ATOM     14  C   UNL     1       6.132   0.728  -5.314  0.00  0.00    +0.225 C 
ATOM     15  O   UNL     1       5.198  -0.043  -5.100  0.00  0.00    -0.275 OA
ATOM     16  N   UNL     1       6.525   0.959  -6.605  0.00  0.00    -0.328 N 
ATOM     17  H   UNL     1       6.069   0.437  -7.341  0.00  0.00    +0.145 HD
ATOM     18  H   UNL     1       7.360   1.486  -6.823  0.00  0.00    +0.145 HD
ENDBRANCH   1  14
BRANCH   1  19
ATOM     19  C   UNL     1       6.392   1.048  -2.806  0.00  0.00    +0.027 C 
BRANCH  19  20
ATOM     20  C   UNL     1       7.096   1.730  -1.615  0.00  0.00    +0.017 C 
BRANCH  20  21
ATOM     21  C   UNL     1       6.571   1.277  -0.250  0.00  0.00    +0.081 C 
BRANCH  21  22
ATOM     22  N   UNL     1       6.845  -0.142  -0.040  0.00  0.00    -0.314 NA
ATOM     23  H   UNL     1       6.411  -0.681  -0.789  0.00  0.00    +0.122 HD
BRANCH  22  25
ATOM     24  C   UNL     1       6.612  -2.171   1.240  0.00  0.00    +0.023 C 
ATOM     25  C   UNL     1       6.352  -0.662   1.238  0.00  0.00    +0.047 C 
ATOM     26  C   UNL     1       7.040  -0.016   2.441  0.00  0.00    +0.023 C 
ENDBRANCH  22  25
ENDBRANCH  21  22
ENDBRANCH  20  21
ENDBRANCH  19  20
ENDBRANCH   1  19
TORSDOF 6
