REMARK  Name = 
REMARK  15 active torsions:
REMARK  status: ('A' for Active; 'I' for Inactive)
REMARK    1  A    between atoms: C_1  and  C_2
REMARK    2  A    between atoms: C_2  and  C_3
REMARK    3  A    between atoms: C_3  and  C_4
REMARK    4  A    between atoms: C_4  and  O_5
REMARK    5  A    between atoms: O_5  and  C_6
REMARK    6  A    between atoms: C_7  and  N_8
REMARK    7  A    between atoms: C_11  and  C_13
REMARK    8  A    between atoms: C_13  and  O_15
REMARK    9  A    between atoms: O_15  and  C_16
REMARK   10  A    between atoms: C_16  and  C_17
REMARK   11  A    between atoms: C_17  and  N_18
REMARK   12  A    between atoms: N_18  and  C_19
REMARK   13  A    between atoms: N_18  and  C_21
REMARK   14  A    between atoms: C_19  and  C_20
REMARK   15  A    between atoms: C_21  and  C_22
REMARK                            x       y       z     vdW  Elec       q    Type
REMARK                         _______ _______ _______ _____ _____    ______ ____
ROOT
ATOM      1  C   UNL     1       6.350  -1.710   2.619  0.00  0.00    +0.142 A 
ATOM      2  C   UNL     1       6.934  -2.981   2.578  0.00  0.00    +0.062 A 
ATOM      3  C   UNL     1       8.322  -3.146   2.605  0.00  0.00    +0.063 A 
ATOM      4  C   UNL     1       9.143  -2.024   2.715  0.00  0.00    +0.017 A 
ATOM      5  C   UNL     1       8.570  -0.749   2.780  0.00  0.00    +0.027 A 
ATOM      6  C   UNL     1       7.181  -0.575   2.686  0.00  0.00    +0.067 A 
ENDROOT
BRANCH   6   7
ATOM      7  N   UNL     1       6.639   0.709   2.869  0.00  0.00    -0.355 N 
ATOM      8  H   UNL     1       7.215   1.458   2.501  0.00  0.00    +0.142 HD
ATOM      9  H   UNL     1       5.672   0.753   2.552  0.00  0.00    +0.142 HD
ENDBRANCH   6   7
BRANCH   3  10
ATOM     10  C   UNL     1       8.934  -4.481   2.388  0.00  0.00    +0.339 C 
ATOM     11  O   UNL     1      10.130  -4.662   2.225  0.00  0.00    -0.245 OA
BRANCH  10  12
ATOM     12  O   UNL     1       7.953  -5.402   2.208  0.00  0.00    -0.460 OA
BRANCH  12  13
ATOM     13  C   UNL     1       8.164  -6.307   1.111  0.00  0.00    +0.248 C 
BRANCH  13  14
ATOM     14  C   UNL     1       7.576  -5.637  -0.148  0.00  0.00    +0.125 C 
BRANCH  14  15
ATOM     15  N   UNL     1       7.694  -6.373  -1.419  0.00  0.00    -0.300 NA
BRANCH  15  16
ATOM     16  C   UNL     1       7.177  -5.533  -2.516  0.00  0.00    +0.081 C 
ATOM     17  C   UNL     1       7.352  -6.132  -3.906  0.00  0.00    +0.020 C 
ENDBRANCH  15  16
BRANCH  15  18
ATOM     18  C   UNL     1       7.118  -7.723  -1.369  0.00  0.00    +0.081 C 
ATOM     19  C   UNL     1       5.602  -7.807  -1.218  0.00  0.00    +0.020 C 
ENDBRANCH  15  18
ENDBRANCH  14  15
ENDBRANCH  13  14
ENDBRANCH  12  13
ENDBRANCH  10  12
ENDBRANCH   3  10
BRANCH   1  20
ATOM     20  O   UNL     1       4.984  -1.496   2.547  0.00  0.00    -0.490 OA
BRANCH  20  21
ATOM     21  C   UNL     1       4.208  -2.691   2.409  0.00  0.00    +0.229 C 
BRANCH  21  22
ATOM     22  C   UNL     1       2.714  -2.402   2.364  0.00  0.00    +0.041 C 
BRANCH  22  24
ATOM     23  C   UNL     1       0.451  -3.523   2.216  0.00  0.00    +0.004 C 
ATOM     24  C   UNL     1       1.953  -3.726   2.241  0.00  0.00    -0.000 C 
ENDBRANCH  22  24
ENDBRANCH  21  22
ENDBRANCH  20  21
ENDBRANCH   1  20
TORSDOF 12
