REMARK  Name = 
REMARK  9 active torsions:
REMARK  status: ('A' for Active; 'I' for Inactive)
REMARK    1  A    between atoms: O_1  and  C_2
REMARK    2  A    between atoms: C_2  and  C_4
REMARK    3  A    between atoms: C_7  and  N_8
REMARK    4  A    between atoms: C_9  and  C_11
REMARK    5  A    between atoms: C_11  and  C_13
REMARK    6  A    between atoms: C_11  and  N_21
REMARK    7  A    between atoms: C_13  and  C_14
REMARK    8  A    between atoms: C_17  and  O_18
REMARK    9  A    between atoms: C_22  and  C_24
REMARK                            x       y       z     vdW  Elec       q    Type
REMARK                         _______ _______ _______ _____ _____    ______ ____
ROOT
ATOM      1  C   UNL     1       6.496   6.330  -3.111  0.00  0.00    +0.164 C 
ENDROOT
BRANCH   1   4
ATOM      2  N   UNL     1       4.328   7.447  -3.675  0.00  0.00    -0.284 N 
ATOM      3  H   UNL     1       4.333   7.760  -2.714  0.00  0.00    +0.155 HD
ATOM      4  C   UNL     1       5.474   6.843  -4.170  0.00  0.00    +0.238 C 
ATOM      5  O   UNL     1       5.686   6.650  -5.371  0.00  0.00    -0.273 OA
BRANCH   2   9
ATOM      6  C   UNL     1       0.814   8.518  -5.784  0.00  0.00    +0.059 A 
ATOM      7  C   UNL     1       1.126   9.100  -4.548  0.00  0.00    +0.017 A 
ATOM      8  C   UNL     1       2.300   8.744  -3.870  0.00  0.00    +0.024 A 
ATOM      9  C   UNL     1       3.191   7.820  -4.428  0.00  0.00    +0.033 A 
ATOM     10  C   UNL     1       2.884   7.258  -5.670  0.00  0.00    +0.024 A 
ATOM     11  C   UNL     1       1.697   7.587  -6.338  0.00  0.00    +0.017 A 
BRANCH   6  12
ATOM     12  C   UNL     1      -0.490   8.865  -6.413  0.00  0.00    +0.337 C 
ATOM     13  O   UNL     1      -1.429   9.303  -5.768  0.00  0.00    -0.245 OA
BRANCH  12  14
ATOM     14  O   UNL     1      -0.548   8.677  -7.747  0.00  0.00    -0.477 OA
ATOM     15  H   UNL     1       0.297   8.484  -8.188  0.00  0.00    +0.295 HD
ENDBRANCH  12  14
ENDBRANCH   6  12
ENDBRANCH   2   9
ENDBRANCH   1   4
BRANCH   1  16
ATOM     16  N   UNL     1       7.736   6.011  -3.837  0.00  0.00    -0.300 N 
ATOM     17  H   UNL     1       7.858   6.465  -4.737  0.00  0.00    +0.150 HD
ATOM     18  C   UNL     1       8.751   5.272  -3.283  0.00  0.00    +0.245 C 
ATOM     19  O   UNL     1       8.683   4.790  -2.159  0.00  0.00    -0.270 OA
BRANCH  18  20
ATOM     20  C   UNL     1       9.999   5.131  -4.082  0.00  0.00    +0.037 A 
ATOM     21  C   UNL     1       9.988   5.028  -5.478  0.00  0.00    +0.013 A 
ATOM     22  C   UNL     1      11.191   4.853  -6.170  0.00  0.00    +0.001 A 
ATOM     23  C   UNL     1      12.400   4.788  -5.476  0.00  0.00    +0.000 A 
ATOM     24  C   UNL     1      12.415   4.899  -4.087  0.00  0.00    +0.001 A 
ATOM     25  C   UNL     1      11.217   5.065  -3.390  0.00  0.00    +0.013 A 
ENDBRANCH  18  20
ENDBRANCH   1  16
BRANCH   1  26
ATOM     26  C   UNL     1       6.735   7.255  -1.896  0.00  0.00    +0.067 C 
BRANCH  26  27
ATOM     27  C   UNL     1       7.356   8.587  -2.248  0.00  0.00    -0.045 A 
ATOM     28  C   UNL     1       8.748   8.692  -2.389  0.00  0.00    +0.007 A 
ATOM     29  C   UNL     1       9.328   9.878  -2.836  0.00  0.00    +0.045 A 
ATOM     30  C   UNL     1       8.519  10.966  -3.129  0.00  0.00    +0.117 A 
ATOM     31  C   UNL     1       7.143  10.905  -2.936  0.00  0.00    +0.045 A 
ATOM     32  C   UNL     1       6.564   9.717  -2.488  0.00  0.00    +0.007 A 
BRANCH  30  33
ATOM     33  O   UNL     1       9.116  12.090  -3.617  0.00  0.00    -0.507 OA
ATOM     34  H   UNL     1       8.422  12.708  -3.899  0.00  0.00    +0.292 HD
ENDBRANCH  30  33
ENDBRANCH  26  27
ENDBRANCH   1  26
TORSDOF 9
