REMARK  Name = 
REMARK  7 active torsions:
REMARK  status: ('A' for Active; 'I' for Inactive)
REMARK    1  A    between atoms: C_2  and  N_3
REMARK    2  A    between atoms: N_3  and  C_4
REMARK    3  A    between atoms: C_10  and  O_12
REMARK    4  A    between atoms: O_12  and  C_13
REMARK    5  A    between atoms: C_13  and  C_15
REMARK    6  A    between atoms: C_15  and  O_16
REMARK    7  A    between atoms: C_15  and  C_17
REMARK                            x       y       z     vdW  Elec       q    Type
REMARK                         _______ _______ _______ _____ _____    ______ ____
ROOT
ATOM      1 BR   UNL     1       0.157  -3.318  -0.538  0.00  0.00    +0.000 Br
ENDROOT
TORSDOF 0
REMARK  Name = 
REMARK  7 active torsions:
REMARK  status: ('A' for Active; 'I' for Inactive)
REMARK    1  A    between atoms: C_2  and  N_3
REMARK    2  A    between atoms: N_3  and  C_4
REMARK    3  A    between atoms: C_10  and  O_12
REMARK    4  A    between atoms: O_12  and  C_13
REMARK    5  A    between atoms: C_13  and  C_15
REMARK    6  A    between atoms: C_15  and  O_16
REMARK    7  A    between atoms: C_15  and  C_17
REMARK                            x       y       z     vdW  Elec       q    Type
REMARK                         _______ _______ _______ _____ _____    ______ ____
ROOT
ATOM      1  O   UNL     1       4.531   0.152   3.199  0.00  0.00    -0.459 OA
ENDROOT
BRANCH   1   6
ATOM      2  C   UNL     1       1.126   0.493  -0.601  0.00  0.00    +0.192 C 
ATOM      3  N   UNL     1       2.608   0.364  -0.119  0.00  0.00    +0.243 N 
ATOM      4  C   UNL     1       3.092   1.520   0.828  0.00  0.00    +0.070 C 
ATOM      5  C   UNL     1       4.617   1.316   1.031  0.00  0.00    +0.099 C 
ATOM      6  C   UNL     1       4.951   0.063   1.829  0.00  0.00    +0.187 C 
ATOM      7  C   UNL     1       4.181  -1.143   1.252  0.00  0.00    +0.099 C 
ATOM      8  C   UNL     1       2.110   1.305   1.997  0.00  0.00    +0.060 C 
ATOM      9  C   UNL     1       1.959  -0.216   2.129  0.00  0.00    +0.060 C 
ATOM     10  C   UNL     1       2.688  -0.822   0.904  0.00  0.00    +0.070 C 
ATOM     11  C   UNL     1       3.355   0.072  -1.408  0.00  0.00    +0.192 C 
ENDBRANCH   1   6
BRANCH   1  12
ATOM     12  C   UNL     1       4.974   1.150   4.007  0.00  0.00    +0.341 C 
ATOM     13  O   UNL     1       5.804   1.989   3.692  0.00  0.00    -0.248 OA
BRANCH  12  14
ATOM     14  C   UNL     1       4.188   1.083   5.336  0.00  0.00    +0.253 C 
BRANCH  14  15
ATOM     15  C   UNL     1       5.110   1.019   6.533  0.00  0.00    -0.008 A 
ATOM     16  C   UNL     1       5.665  -0.188   6.967  0.00  0.00    +0.007 A 
ATOM     17  C   UNL     1       6.545  -0.230   8.053  0.00  0.00    +0.000 A 
ATOM     18  C   UNL     1       6.884   0.945   8.717  0.00  0.00    +0.000 A 
ATOM     19  C   UNL     1       6.328   2.153   8.296  0.00  0.00    +0.000 A 
ATOM     20  C   UNL     1       5.449   2.190   7.215  0.00  0.00    +0.007 A 
ENDBRANCH  14  15
BRANCH  14  21
ATOM     21  O   UNL     1       3.227   0.024   5.420  0.00  0.00    -0.376 OA
ATOM     22  H   UNL     1       3.685  -0.786   5.140  0.00  0.00    +0.211 HD
ENDBRANCH  14  21
ENDBRANCH  12  14
ENDBRANCH   1  12
TORSDOF 5
