REMARK  Name = 
REMARK  11 active torsions:
REMARK  status: ('A' for Active; 'I' for Inactive)
REMARK    1  A    between atoms: C_5  and  C_6
REMARK    2  A    between atoms: C_6  and  S_7
REMARK    3  A    between atoms: S_7  and  C_8
REMARK    4  A    between atoms: N_12  and  C_13
REMARK    5  A    between atoms: CA_14  and  C_33
REMARK    6  A    between atoms: CA_18  and  N_20
REMARK    7  A    between atoms: C_21  and  C_23
REMARK    8  A    between atoms: C_23  and  C_27
REMARK    9  A    between atoms: N_24  and  O_25
REMARK   10  A    between atoms: O_25  and  C_26
REMARK   11  A    between atoms: C_33  and  O_34
REMARK                            x       y       z     vdW  Elec       q    Type
REMARK                         _______ _______ _______ _____ _____    ______ ____
ROOT
ATOM      1  C   UNL     1       1.657  -0.106  -0.704  0.00  0.00    +0.169 C 
ATOM      2  CA  UNL     1       2.574  -1.410  -0.671  0.00  0.00    +0.191 C 
ATOM      3  C   UNL     1       3.256  -0.654  -1.854  0.00  0.00    +0.244 C 
ATOM      4  O   UNL     1       4.117  -0.898  -2.664  0.00  0.00    -0.273 OA
ATOM      5  N   UNL     1       2.751   0.511  -1.407  0.00  0.00    -0.249 N 
ATOM      6  CA  UNL     1       2.910   1.837  -1.671  0.00  0.00    +0.123 C 
ATOM      7  C   UNL     1       2.421   2.761  -0.810  0.00  0.00    -0.021 C 
ATOM      8  C   UNL     1       1.607   2.459   0.436  0.00  0.00    +0.104 C 
ATOM      9  S   UNL     1       0.950   0.785   0.655  0.00  0.00    -0.131 S 
ENDROOT
BRANCH   2  10
ATOM     10  N   UNL     1       3.638  -1.928   0.283  0.00  0.00    -0.296 N 
ATOM     11  H   UNL     1       3.491  -2.856   0.677  0.00  0.00    +0.150 HD
ATOM     12  C   UNL     1       4.911  -1.491   0.701  0.00  0.00    +0.268 C 
ATOM     13  O   UNL     1       5.548  -2.229   1.438  0.00  0.00    -0.268 OA
BRANCH  12  14
ATOM     14  C   UNL     1       5.440  -0.079   0.452  0.00  0.00    +0.190 C 
ATOM     15  N   UNL     1       4.899   1.032   0.867  0.00  0.00    -0.078 NA
BRANCH  14  16
ATOM     16  C   UNL     1       6.797   0.166  -0.093  0.00  0.00    +0.107 A 
ATOM     17  N   UNL     1       7.776  -0.823  -0.171  0.00  0.00    -0.223 NA
ATOM     18  C   UNL     1       8.965  -0.282  -0.306  0.00  0.00    +0.156 A 
ATOM     19  N   UNL     1      10.111  -0.969  -0.239  0.00  0.00    -0.338 N 
ATOM     20  H   UNL     1      10.084  -1.977  -0.173  0.00  0.00    +0.144 HD
ATOM     21  H   UNL     1      11.010  -0.529  -0.387  0.00  0.00    +0.144 HD
ATOM     22  S   UNL     1       8.988   1.417  -0.541  0.00  0.00    -0.060 S 
ATOM     23  C   UNL     1       7.290   1.443  -0.353  0.00  0.00    +0.078 A 
ENDBRANCH  14  16
BRANCH  15  24
ATOM     24  O   UNL     1       3.853   1.143   1.786  0.00  0.00    -0.396 OA
ATOM     25  C   UNL     1       3.342   0.001   2.431  0.00  0.00    +0.313 C 
ENDBRANCH  15  24
ENDBRANCH  12  14
ENDBRANCH   2  10
BRANCH   6  26
ATOM     26  C   UNL     1       3.718   2.294  -2.857  0.00  0.00    +0.351 C 
ATOM     27  OXT UNL     1       3.541   3.378  -3.398  0.00  0.00    -0.244 OA
BRANCH  26  28
ATOM     28  O   UNL     1       4.684   1.476  -3.299  0.00  0.00    -0.476 OA
ATOM     29  H   UNL     1       4.673   0.542  -2.998  0.00  0.00    +0.295 HD
ENDBRANCH  26  28
ENDBRANCH   6  26
BRANCH   7  30
ATOM     30  C   UNL     1       2.797   4.256  -0.846  0.00  0.00    +0.111 C 
BRANCH  30  31
ATOM     31  S   UNL     1       1.462   5.171  -1.670  0.00  0.00    -0.080 S 
BRANCH  31  32
ATOM     32  C   UNL     1       2.092   6.775  -1.662  0.00  0.00    +0.209 A 
ATOM     33  N   UNL     1       2.287   7.519  -2.788  0.00  0.00    -0.223 N 
ATOM     34  C   UNL     1       2.162   7.142  -4.168  0.00  0.00    +0.177 C 
ATOM     35  N   UNL     1       2.654   8.767  -2.442  0.00  0.00    -0.043 NA
ATOM     36  N   UNL     1       2.697   8.758  -1.115  0.00  0.00    -0.022 NA
ATOM     37  N   UNL     1       2.357   7.520  -0.614  0.00  0.00    -0.102 NA
ENDBRANCH  31  32
ENDBRANCH  30  31
ENDBRANCH   7  30
TORSDOF 9
