REMARK  Name = 
REMARK  4 active torsions:
REMARK  status: ('A' for Active; 'I' for Inactive)
REMARK    1  A    between atoms: C_1  and  N_2
REMARK    2  A    between atoms: C_13  and  C_14
REMARK    3  A    between atoms: C_14  and  N_15
REMARK    4  A    between atoms: C_19  and  C_20
REMARK                            x       y       z     vdW  Elec       q    Type
REMARK                         _______ _______ _______ _____ _____    ______ ____
ROOT
ATOM      1  C   UNL     1       0.999  -0.115   0.004  0.00  0.00    +0.149 C 
ATOM      2  N   UNL     1       2.447  -0.081   0.033  0.00  0.00    -0.346 N 
ATOM      3  C   UNL     1       3.244  -1.211   0.032  0.00  0.00    +0.050 A 
ATOM      4  C   UNL     1       4.576  -0.783   0.017  0.00  0.00    +0.011 A 
ATOM      5  C   UNL     1       5.603  -1.749   0.015  0.00  0.00    +0.011 A 
ATOM      6  C   UNL     1       5.274  -3.108   0.020  0.00  0.00    +0.001 A 
ATOM      7  C   UNL     1       3.943  -3.512   0.025  0.00  0.00    +0.002 A 
ATOM      8  C   UNL     1       4.556   0.636  -0.023  0.00  0.00    +0.046 A 
ATOM      9  C   UNL     1       5.637   1.609  -0.118  0.00  0.00    +0.170 C 
ATOM     10  C   UNL     1       5.185   3.036  -0.453  0.00  0.00    +0.080 C 
ATOM     11  C   UNL     1       3.937   3.388   0.389  0.00  0.00    +0.019 C 
ATOM     12  C   UNL     1       2.758   2.457   0.050  0.00  0.00    +0.055 C 
ATOM     13  O   UNL     1       6.821   1.302  -0.005  0.00  0.00    -0.292 OA
ATOM     14  C   UNL     1       2.905  -2.575   0.033  0.00  0.00    +0.026 A 
ATOM     15  C   UNL     1       3.233   1.042   0.032  0.00  0.00    +0.030 A 
ENDROOT
BRANCH  10  16
ATOM     16  C   UNL     1       6.349   4.009  -0.255  0.00  0.00    +0.134 C 
BRANCH  16  17
ATOM     17  N   UNL     1       6.007   5.383  -0.575  0.00  0.00    -0.334 N 
ATOM     18  C   UNL     1       6.031   6.465   0.275  0.00  0.00    +0.107 A 
ATOM     19  C   UNL     1       6.500   6.407   1.682  0.00  0.00    +0.086 C 
ATOM     20  N   UNL     1       5.577   7.541  -0.337  0.00  0.00    -0.241 NA
ATOM     21  C   UNL     1       5.290   7.156  -1.618  0.00  0.00    +0.130 A 
ATOM     22  C   UNL     1       5.567   5.823  -1.796  0.00  0.00    +0.107 A 
ENDBRANCH  16  17
ENDBRANCH  10  16
TORSDOF 2
