REMARK  Name = 
REMARK  3 active torsions:
REMARK  status: ('A' for Active; 'I' for Inactive)
REMARK    1  A    between atoms: C_1  and  C_2
REMARK    2  A    between atoms: C_2  and  C_3
REMARK    3  A    between atoms: C_3  and  C_4
REMARK                            x       y       z     vdW  Elec       q    Type
REMARK                         _______ _______ _______ _____ _____    ______ ____
ROOT
ATOM      1  C   UNL     1       2.930   1.166   0.815  0.00  0.00    +0.053 C 
ATOM      2  C   UNL     1       2.159   1.450   2.092  0.00  0.00    +0.226 C 
ATOM      3  O   UNL     1       1.700   0.622   2.862  0.00  0.00    -0.275 OA
ATOM      4  N   UNL     1       2.133   2.793   2.283  0.00  0.00    -0.256 N 
ATOM      5  H   UNL     1       1.748   3.231   3.105  0.00  0.00    +0.157 HD
ATOM      6  C   UNL     1       2.580   3.495   1.211  0.00  0.00    +0.220 C 
ATOM      7  O   UNL     1       2.651   4.710   1.137  0.00  0.00    -0.275 OA
ATOM      8  C   UNL     1       2.906   2.530   0.105  0.00  0.00    +0.112 C 
ATOM      9  C   UNL     1       4.376   0.822   1.220  0.00  0.00    +0.021 C 
ENDROOT
BRANCH   1  11
ATOM     10  C   UNL     1       0.885   0.155  -0.425  0.00  0.00    +0.005 C 
ATOM     11  C   UNL     1       2.340   0.000   0.003  0.00  0.00    +0.013 C 
ENDBRANCH   1  11
TORSDOF 1
