REMARK  Name = 
REMARK  11 active torsions:
REMARK  status: ('A' for Active; 'I' for Inactive)
REMARK    1  A    between atoms: C_1  and  C_2
REMARK    2  A    between atoms: C_2  and  C_3
REMARK    3  A    between atoms: C_2  and  C_4
REMARK    4  A    between atoms: C_4  and  N_6
REMARK    5  A    between atoms: C_4  and  C_7
REMARK    6  A    between atoms: C_7  and  O_9
REMARK    7  A    between atoms: O_9  and  C_10
REMARK    8  A    between atoms: C_10  and  C_11
REMARK    9  A    between atoms: C_11  and  O_12
REMARK   10  A    between atoms: O_12  and  C_13
REMARK   11  A    between atoms: C_13  and  N_14
REMARK                            x       y       z     vdW  Elec       q    Type
REMARK                         _______ _______ _______ _____ _____    ______ ____
ROOT
ATOM      1  C   UNL     1       9.090  -5.272  -0.846  0.00  0.00    +0.287 C 
ENDROOT
BRANCH   1   2
ATOM      2  N   UNL     1      10.541  -5.210  -0.877  0.00  0.00    -0.292 N 
ATOM      3  C   UNL     1      11.361  -4.134  -0.794  0.00  0.00    +0.148 A 
ATOM      4  N   UNL     1      11.063  -2.836  -0.652  0.00  0.00    -0.312 N 
ATOM      5  H   UNL     1      10.103  -2.504  -0.664  0.00  0.00    +0.170 HD
ATOM      6  C   UNL     1      12.110  -1.957  -0.693  0.00  0.00    +0.195 A 
ATOM      7  N   UNL     1      13.369  -2.268  -0.804  0.00  0.00    -0.176 NA
ATOM      8  C   UNL     1      13.752  -3.616  -0.901  0.00  0.00    +0.302 A 
ATOM      9  O   UNL     1      14.927  -3.958  -0.972  0.00  0.00    -0.263 OA
ATOM     10  N   UNL     1      11.723  -0.659  -0.621  0.00  0.00    -0.329 N 
ATOM     11  H   UNL     1      12.525  -0.048  -0.484  0.00  0.00    +0.145 HD
ATOM     12  H   UNL     1      10.987  -0.463   0.042  0.00  0.00    +0.145 HD
ATOM     13  C   UNL     1      12.647  -4.584  -0.918  0.00  0.00    +0.172 A 
ATOM     14  N   UNL     1      12.644  -5.957  -1.057  0.00  0.00    -0.229 NA
ATOM     15  C   UNL     1      11.368  -6.299  -1.030  0.00  0.00    +0.203 A 
ENDBRANCH   1   2
BRANCH   1  16
ATOM     16  O   UNL     1       8.557  -3.958  -0.676  0.00  0.00    -0.356 OA
BRANCH  16  17
ATOM     17  C   UNL     1       7.128  -3.965  -0.619  0.00  0.00    +0.203 C 
BRANCH  17  18
ATOM     18  C   UNL     1       6.656  -2.534  -0.360  0.00  0.00    +0.260 C 
BRANCH  18  19
ATOM     19  O   UNL     1       7.142  -2.061   0.912  0.00  0.00    -0.461 OA
BRANCH  19  20
ATOM     20  C   UNL     1       6.444  -2.511   1.996  0.00  0.00    +0.324 C 
ATOM     21  O   UNL     1       5.427  -3.192   1.918  0.00  0.00    -0.249 OA
BRANCH  20  22
ATOM     22  C   UNL     1       7.066  -1.987   3.310  0.00  0.00    +0.163 C 
BRANCH  22  24
ATOM     23  C   UNL     1       8.853  -3.831   3.437  0.00  0.00    +0.009 C 
ATOM     24  C   UNL     1       8.574  -2.323   3.427  0.00  0.00    +0.010 C 
ATOM     25  C   UNL     1       9.205  -1.673   4.665  0.00  0.00    +0.009 C 
ENDBRANCH  22  24
BRANCH  22  26
ATOM     26  N   UNL     1       6.304  -2.509   4.465  0.00  0.00    -0.318 NA
ATOM     27  H   UNL     1       6.545  -1.992   5.308  0.00  0.00    +0.119 HD
ATOM     28  H   UNL     1       5.307  -2.359   4.299  0.00  0.00    +0.119 HD
ENDBRANCH  22  26
ENDBRANCH  20  22
ENDBRANCH  19  20
ENDBRANCH  18  19
ENDBRANCH  17  18
ENDBRANCH  16  17
ENDBRANCH   1  16
TORSDOF 9
