REMARK  Name = 
REMARK  4 active torsions:
REMARK  status: ('A' for Active; 'I' for Inactive)
REMARK    1  A    between atoms: C_4  and  O_6
REMARK    2  A    between atoms: N_12  and  C_13
REMARK    3  A    between atoms: C_19  and  O_20
REMARK    4  A    between atoms: O_20  and  C_21
REMARK                            x       y       z     vdW  Elec       q    Type
REMARK                         _______ _______ _______ _____ _____    ______ ____
ROOT
ATOM      1  C   UNL     1      -0.000  -0.000   0.000  0.00  0.00    +0.191 C 
ATOM      2  O   UNL     1      -0.000  -0.000   0.000  0.00  0.00    -0.484 OA
ATOM      3  C   UNL     1      -0.000  -0.000   0.000  0.00  0.00    +0.167 A 
ATOM      4  C   UNL     1      -0.000  -0.000   0.000  0.00  0.00    +0.162 A 
ATOM      5  C   UNL     1      -0.000  -0.000  -0.000  0.00  0.00    +0.050 A 
ATOM      6  C   UNL     1      -0.000   0.000   0.000  0.00  0.00    +0.009 A 
ATOM      7  C   UNL     1      -0.000  -0.000   0.000  0.00  0.00    -0.026 A 
ATOM      8  C   UNL     1      -0.000  -0.000  -0.000  0.00  0.00    +0.119 C 
ATOM      9  N   UNL     1      -0.000  -0.000   0.000  0.00  0.00    -0.301 NA
ATOM     10  C   UNL     1      -0.000  -0.000   0.000  0.00  0.00    +0.105 C 
ATOM     11  C   UNL     1      -0.000  -0.000   0.000  0.00  0.00    +0.086 C 
ATOM     12  C   UNL     1      -0.000  -0.000   0.000  0.00  0.00    +0.035 C 
ATOM     13  C   UNL     1      -0.000  -0.000   0.000  0.00  0.00    +0.016 A 
ATOM     14  C   UNL     1      -0.000  -0.000   0.000  0.00  0.00    +0.056 C 
ATOM     15  C   UNL     1      -0.000  -0.000   0.000  0.00  0.00    -0.013 C 
ATOM     16  C   UNL     1      -0.000  -0.000   0.000  0.00  0.00    +0.001 C 
ATOM     17  C   UNL     1      -0.000  -0.000   0.000  0.00  0.00    +0.141 C 
ATOM     18  C   UNL     1      -0.000  -0.000   0.000  0.00  0.00    +0.081 C 
ENDROOT
BRANCH   4  19
ATOM     19  O   UNL     1      -0.000  -0.000   0.000  0.00  0.00    -0.491 OA
ATOM     20  C   UNL     1      -0.000  -0.000  -0.000  0.00  0.00    +0.277 C 
ENDBRANCH   4  19
BRANCH  17  21
ATOM     21  O   UNL     1      -0.000  -0.000   0.000  0.00  0.00    -0.388 OA
ATOM     22  H   UNL     1       0.000   0.000   0.000  0.00  0.00    +0.210 HD
ENDBRANCH  17  21
TORSDOF 2
