REMARK  Name = 
REMARK  7 active torsions:
REMARK  status: ('A' for Active; 'I' for Inactive)
REMARK    1  A    between atoms: N_9  and  C_10
REMARK    2  A    between atoms: C_10  and  C_11
REMARK    3  A    between atoms: C_11  and  C_12
REMARK    4  A    between atoms: C_12  and  C_13
REMARK    5  A    between atoms: C_12  and  C_15
REMARK    6  A    between atoms: C_13  and  O_14
REMARK    7  A    between atoms: C_15  and  O_16
REMARK                            x       y       z     vdW  Elec       q    Type
REMARK                         _______ _______ _______ _____ _____    ______ ____
ROOT
ATOM      1  N   UNL     1       7.904   1.201   3.803  0.00  0.00    -0.329 N 
ATOM      2  H   UNL     1       7.512   1.965   4.340  0.00  0.00    +0.145 HD
ATOM      3  H   UNL     1       8.193   0.429   4.397  0.00  0.00    +0.145 HD
ATOM      4  C   UNL     1       7.169   0.761   2.750  0.00  0.00    +0.195 A 
ATOM      5  N   UNL     1       6.570   1.776   2.041  0.00  0.00    -0.312 N 
ATOM      6  H   UNL     1       6.752   2.738   2.305  0.00  0.00    +0.170 HD
ATOM      7  C   UNL     1       5.885   1.416   0.947  0.00  0.00    +0.146 A 
ATOM      8  N   UNL     1       5.225   2.166   0.027  0.00  0.00    -0.316 N 
ATOM      9  C   UNL     1       4.736   1.279  -0.905  0.00  0.00    +0.201 A 
ATOM     10  N   UNL     1       5.009   0.027  -0.592  0.00  0.00    -0.229 NA
ATOM     11  C   UNL     1       5.748   0.105   0.568  0.00  0.00    +0.172 A 
ATOM     12  C   UNL     1       6.360  -0.954   1.382  0.00  0.00    +0.302 A 
ATOM     13  O   UNL     1       6.228  -2.144   1.119  0.00  0.00    -0.263 OA
ATOM     14  N   UNL     1       7.097  -0.507   2.486  0.00  0.00    -0.176 NA
ENDROOT
BRANCH   8  15
ATOM     15  C   UNL     1       5.065   3.603  -0.025  0.00  0.00    +0.125 C 
BRANCH  15  16
ATOM     16  C   UNL     1       3.606   4.079  -0.027  0.00  0.00    +0.029 C 
BRANCH  16  17
ATOM     17  C   UNL     1       2.724   3.660   1.173  0.00  0.00    +0.042 C 
BRANCH  17  18
ATOM     18  C   UNL     1       1.283   4.131   0.912  0.00  0.00    +0.161 C 
BRANCH  18  19
ATOM     19  O   UNL     1       0.421   3.745   1.972  0.00  0.00    -0.395 OA
ATOM     20  H   UNL     1       0.298   2.781   1.924  0.00  0.00    +0.209 HD
ENDBRANCH  18  19
ENDBRANCH  17  18
BRANCH  17  21
ATOM     21  C   UNL     1       3.217   4.210   2.520  0.00  0.00    +0.161 C 
BRANCH  21  22
ATOM     22  O   UNL     1       4.497   3.687   2.855  0.00  0.00    -0.395 OA
ATOM     23  H   UNL     1       4.382   2.724   2.969  0.00  0.00    +0.209 HD
ENDBRANCH  21  22
ENDBRANCH  17  21
ENDBRANCH  16  17
ENDBRANCH  15  16
ENDBRANCH   8  15
TORSDOF 7
