REMARK  Name = 
REMARK  13 active torsions:
REMARK  status: ('A' for Active; 'I' for Inactive)
REMARK    1  A    between atoms: C_1  and  C_2
REMARK    2  A    between atoms: C_2  and  C_3
REMARK    3  A    between atoms: C_3  and  C_4
REMARK    4  A    between atoms: C_6  and  C_30
REMARK    5  A    between atoms: C_7  and  C_27
REMARK    6  A    between atoms: N_8  and  C_9
REMARK    7  A    between atoms: C_9  and  C_10
REMARK    8  A    between atoms: C_13  and  C_16
REMARK    9  A    between atoms: C_17  and  C_22
REMARK   10  A    between atoms: C_27  and  O_28
REMARK   11  A    between atoms: C_30  and  C_31
REMARK   12  A    between atoms: C_30  and  C_32
REMARK   13  A    between atoms: C_30  and  O_33
REMARK                            x       y       z     vdW  Elec       q    Type
REMARK                         _______ _______ _______ _____ _____    ______ ____
ROOT
ATOM      1  C   UNL     1       4.962  -1.011  -0.271  0.00  0.00    +0.159 C 
ENDROOT
BRANCH   1   2
ATOM      2  C   UNL     1       3.754  -1.188  -1.165  0.00  0.00    -0.028 A 
ATOM      3  C   UNL     1       2.461  -1.039  -0.662  0.00  0.00    +0.006 A 
ATOM      4  C   UNL     1       1.343  -1.446  -1.402  0.00  0.00    +0.009 A 
ATOM      5  C   UNL     1       1.465  -2.063  -2.660  0.00  0.00    -0.017 A 
ATOM      6  C   UNL     1       2.762  -2.146  -3.188  0.00  0.00    +0.009 A 
ATOM      7  C   UNL     1       3.887  -1.725  -2.455  0.00  0.00    +0.006 A 
BRANCH   5   8
ATOM      8  C   UNL     1       0.261  -2.615  -3.351  0.00  0.00    -0.007 A 
ATOM      9  C   UNL     1      -0.927  -1.840  -3.331  0.00  0.00    +0.009 A 
ATOM     10  C   UNL     1      -2.119  -2.271  -3.919  0.00  0.00    +0.001 A 
ATOM     11  C   UNL     1      -2.160  -3.489  -4.574  0.00  0.00    +0.001 A 
ATOM     12  C   UNL     1      -1.016  -4.282  -4.616  0.00  0.00    +0.012 A 
ATOM     13  C   UNL     1       0.197  -3.878  -4.005  0.00  0.00    +0.028 A 
BRANCH  13  14
ATOM     14  C   UNL     1       1.308  -4.837  -4.041  0.00  0.00    +0.180 A 
ATOM     15  N   UNL     1       1.583  -5.663  -5.102  0.00  0.00    -0.239 N 
ATOM     16  H   UNL     1       1.106  -5.755  -5.989  0.00  0.00    +0.192 HD
ATOM     17  N   UNL     1       2.651  -6.425  -4.845  0.00  0.00    -0.046 NA
ATOM     18  N   UNL     1       3.030  -6.078  -3.626  0.00  0.00    -0.023 NA
ATOM     19  N   UNL     1       2.205  -5.107  -3.112  0.00  0.00    -0.108 NA
ENDBRANCH  13  14
ENDBRANCH   5   8
ENDBRANCH   1   2
BRANCH   1  21
ATOM     20  C   UNL     1       5.010   1.553   0.102  0.00  0.00    +0.111 A 
ATOM     21  N   UNL     1       5.580   0.314  -0.124  0.00  0.00    -0.318 N 
ATOM     22  C   UNL     1       6.968   0.477  -0.003  0.00  0.00    +0.153 A 
ATOM     23  C   UNL     1       7.148   1.853  -0.086  0.00  0.00    +0.105 A 
ATOM     24  N   UNL     1       5.933   2.490   0.015  0.00  0.00    -0.233 NA
BRANCH  23  25
ATOM     25  C   UNL     1       8.419   2.666  -0.194  0.00  0.00    +0.104 C 
ATOM     26  C   UNL     1       9.133   2.783   1.160  0.00  0.00    +0.048 C 
ATOM     27  C   UNL     1       8.183   4.064  -0.768  0.00  0.00    +0.048 C 
BRANCH  25  28
ATOM     28  O   UNL     1       9.323   1.986  -1.084  0.00  0.00    -0.383 OA
ATOM     29  H   UNL     1       9.070   2.249  -1.990  0.00  0.00    +0.211 HD
ENDBRANCH  25  28
ENDBRANCH  23  25
BRANCH  22  30
ATOM     30  C   UNL     1       7.891  -0.623   0.207  0.00  0.00    +0.355 C 
ATOM     31  O   UNL     1       7.584  -1.696   0.711  0.00  0.00    -0.243 OA
BRANCH  30  32
ATOM     32  O   UNL     1       9.154  -0.392  -0.211  0.00  0.00    -0.476 OA
ATOM     33  H   UNL     1       9.301   0.495  -0.610  0.00  0.00    +0.295 HD
ENDBRANCH  30  32
ENDBRANCH  22  30
BRANCH  20  34
ATOM     34  C   UNL     1       3.567   1.788   0.426  0.00  0.00    +0.074 C 
BRANCH  34  36
ATOM     35  C   UNL     1       3.314   4.210  -0.350  0.00  0.00    +0.004 C 
ATOM     36  C   UNL     1       3.176   3.222   0.800  0.00  0.00    +0.004 C 
ENDBRANCH  34  36
ENDBRANCH  20  34
ENDBRANCH   1  21
TORSDOF 10
