REMARK  Name = 
REMARK  19 active torsions:
REMARK  status: ('A' for Active; 'I' for Inactive)
REMARK    1  A    between atoms: C_4  and  O_6
REMARK    2  A    between atoms: O_6  and  C_7
REMARK    3  A    between atoms: C_10  and  C_12
REMARK    4  A    between atoms: C_13  and  O_15
REMARK    5  A    between atoms: C_16  and  N_18
REMARK    6  A    between atoms: C_19  and  O_21
REMARK    7  A    between atoms: C_36  and  C_38
REMARK    8  A    between atoms: C_39  and  O_41
REMARK    9  A    between atoms: C_42  and  C_44
REMARK   10  A    between atoms: C_45  and  C_47
REMARK   11  A    between atoms: C_52  and  O_54
REMARK   12  A    between atoms: C_56  and  O_58
REMARK   13  A    between atoms: C_61  and  O_63
REMARK   14  A    between atoms: C_64  and  O_66
REMARK   15  A    between atoms: C_68  and  O_70
REMARK   16  A    between atoms: C_72  and  O_73
REMARK   17  A    between atoms: C_75  and  O_77
REMARK   18  A    between atoms: C_78  and  C_80
REMARK   19  A    between atoms: C_80  and  O_81
REMARK                            x       y       z     vdW  Elec       q    Type
REMARK                         _______ _______ _______ _____ _____    ______ ____
ROOT
ATOM      1  C   UNL     1      -0.907   4.900  -0.444  0.00  0.00    +0.141 C 
ATOM      2  O   UNL     1      -2.777   6.543  -1.221  0.00  0.00    -0.344 OA
ATOM      3  C   UNL     1      -4.616   8.596  -1.637  0.00  0.00    +0.172 C 
ATOM      4  C   UNL     1      -2.354   7.016  -1.650  0.00  0.00    +0.097 C 
ATOM      5  C   UNL     1      -0.277   5.262  -1.298  0.00  0.00    +0.136 C 
ATOM      6  C   UNL     1      -7.050  10.615  -2.023  0.00  0.00    +0.096 C 
ATOM      7  C   UNL     1      -9.515  12.527  -2.544  0.00  0.00    +0.122 C 
ATOM      8  C   UNL     1     -12.091  14.343  -2.950  0.00  0.00    +0.065 C 
ATOM      9  C   UNL     1     -14.519  16.127  -3.428  0.00  0.00    +0.145 C 
ATOM     10  C   UNL     1     -17.069  17.559  -3.526  0.00  0.00    +0.143 C 
ATOM     11  C   UNL     1     -19.118  19.059  -4.375  0.00  0.00    +0.036 C 
ATOM     12  C   UNL     1     -21.378  18.956  -4.845  0.00  0.00    +0.034 C 
ATOM     13  C   UNL     1     -19.716  19.337  -5.445  0.00  0.00    +0.117 C 
ATOM     14  C   UNL     1     -20.404  17.667  -4.462  0.00  0.00    +0.063 C 
ATOM     15  C   UNL     1     -19.078  17.135  -3.974  0.00  0.00    +0.128 C 
ATOM     16  C   UNL     1     -18.666  15.865  -3.753  0.00  0.00    +0.152 C 
ATOM     17  C   UNL     1     -17.247  15.674  -4.141  0.00  0.00    +0.310 C 
ATOM     18  O   UNL     1     -16.652  16.185  -5.101  0.00  0.00    -0.251 OA
ATOM     19  O   UNL     1     -16.782  14.764  -3.293  0.00  0.00    -0.461 OA
ATOM     20  C   UNL     1     -15.393  14.524  -3.230  0.00  0.00    +0.179 C 
ATOM     21  C   UNL     1     -14.831  15.584  -1.687  0.00  0.00    +0.052 C 
ATOM     22  C   UNL     1     -15.013  13.180  -2.934  0.00  0.00    +0.055 C 
ATOM     23  C   UNL     1     -15.599  12.977  -1.584  0.00  0.00    +0.014 C 
ATOM     24  C   UNL     1     -13.563  12.874  -2.912  0.00  0.00    +0.127 C 
ATOM     25  C   UNL     1     -13.215  11.509  -2.498  0.00  0.00    +0.038 C 
ATOM     26  C   UNL     1     -13.795  10.653  -3.544  0.00  0.00    +0.014 C 
ATOM     27  C   UNL     1     -11.810  11.181  -2.374  0.00  0.00    -0.021 C 
ATOM     28  C   UNL     1     -11.169  10.082  -2.043  0.00  0.00    -0.004 C 
ATOM     29  C   UNL     1      -9.744   9.881  -2.028  0.00  0.00    -0.000 C 
ATOM     30  C   UNL     1      -9.220   8.699  -1.692  0.00  0.00    -0.000 C 
ATOM     31  C   UNL     1      -7.870   8.259  -1.598  0.00  0.00    -0.000 C 
ATOM     32  C   UNL     1      -7.377   7.106  -1.215  0.00  0.00    -0.000 C 
ATOM     33  C   UNL     1      -6.047   6.776  -1.170  0.00  0.00    +0.000 C 
ATOM     34  C   UNL     1      -5.417   5.714  -0.831  0.00  0.00    +0.000 C 
ATOM     35  C   UNL     1      -4.155   5.299  -0.853  0.00  0.00    -0.000 C 
ATOM     36  C   UNL     1      -3.563   4.259  -0.397  0.00  0.00    -0.000 C 
ATOM     37  C   UNL     1      -2.378   3.760  -0.640  0.00  0.00    -0.000 C 
ATOM     38  C   UNL     1      -1.834   2.710  -0.127  0.00  0.00    -0.000 C 
ATOM     39  C   UNL     1      -0.863   2.042  -0.789  0.00  0.00    -0.002 C 
ATOM     40  C   UNL     1      -0.375   1.007  -0.097  0.00  0.00    +0.004 C 
ATOM     41  C   UNL     1       0.862   1.522  -0.501  0.00  0.00    +0.147 C 
ATOM     42  C   UNL     1       1.068   3.371  -0.680  0.00  0.00    +0.155 C 
ATOM     43  C   UNL     1       0.342   2.903   0.433  0.00  0.00    +0.068 C 
ENDROOT
BRANCH   5  44
ATOM     44  O   UNL     1       1.772   4.372  -1.169  0.00  0.00    -0.391 OA
ATOM     45  H   UNL     1       2.986   3.446  -1.071  0.00  0.00    +0.210 HD
ENDBRANCH   5  44
BRANCH   3  46
ATOM     46  O   UNL     1      -3.065   7.906  -0.376  0.00  0.00    -0.364 OA
ATOM     47  H   UNL     1      -2.107   6.866   0.027  0.00  0.00    +0.213 HD
ENDBRANCH   3  46
BRANCH   7  48
ATOM     48  O   UNL     1     -10.505  14.214  -3.349  0.00  0.00    -0.392 OA
ATOM     49  H   UNL     1     -11.437  15.278  -3.732  0.00  0.00    +0.210 HD
ENDBRANCH   7  48
BRANCH   9  50
ATOM     50  O   UNL     1     -15.943  17.911  -3.389  0.00  0.00    -0.389 OA
ATOM     51  H   UNL     1     -17.106  18.988  -3.611  0.00  0.00    +0.210 HD
ENDBRANCH   9  50
BRANCH  10  52
ATOM     52  O   UNL     1     -19.008  18.815  -3.348  0.00  0.00    -0.389 OA
ATOM     53  H   UNL     1     -20.475  19.293  -3.454  0.00  0.00    +0.210 HD
ENDBRANCH  10  52
BRANCH  13  54
ATOM     54  O   UNL     1     -19.010  21.018  -4.581  0.00  0.00    -0.392 OA
ATOM     55  H   UNL     1     -19.049  22.036  -4.173  0.00  0.00    +0.210 HD
ENDBRANCH  13  54
BRANCH  15  56
ATOM     56  O   UNL     1     -18.489  17.752  -2.220  0.00  0.00    -0.391 OA
ATOM     57  H   UNL     1     -18.970  18.680  -2.139  0.00  0.00    +0.210 HD
ENDBRANCH  15  56
BRANCH  24  58
ATOM     58  O   UNL     1     -12.978  13.123  -4.287  0.00  0.00    -0.391 OA
ATOM     59  H   UNL     1     -11.973  13.167  -4.198  0.00  0.00    +0.210 HD
ENDBRANCH  24  58
BRANCH  42  60
ATOM     60  C   UNL     1       2.634   1.364  -0.489  0.00  0.00    +0.313 C 
ATOM     61  O   UNL     1       2.937  -0.247  -0.896  0.00  0.00    -0.251 OA
BRANCH  60  62
ATOM     62  O   UNL     1       4.114   0.144   0.017  0.00  0.00    -0.480 OA
ATOM     63  H   UNL     1       4.540  -0.412   0.913  0.00  0.00    +0.295 HD
ENDBRANCH  60  62
ENDBRANCH  42  60
BRANCH  41  64
ATOM     64  O   UNL     1       1.665   1.349  -1.900  0.00  0.00    -0.341 OA
BRANCH  64  65
ATOM     65  C   UNL     1       2.411   2.230  -2.882  0.00  0.00    +0.281 C 
ATOM     66  C   UNL     1       1.099   2.004  -3.608  0.00  0.00    +0.189 C 
ATOM     67  C   UNL     1       1.021   2.631  -5.019  0.00  0.00    +0.116 C 
ATOM     68  C   UNL     1       1.217   4.208  -4.819  0.00  0.00    +0.162 C 
ATOM     69  C   UNL     1       2.624   4.383  -4.147  0.00  0.00    +0.148 C 
ATOM     70  C   UNL     1       2.895   5.871  -4.047  0.00  0.00    +0.041 C 
ATOM     71  O   UNL     1       2.713   3.720  -2.877  0.00  0.00    -0.343 OA
BRANCH  67  72
ATOM     72  N   UNL     1      -0.321   2.529  -5.757  0.00  0.00    -0.323 NA
ATOM     73  H   UNL     1      -1.023   2.992  -5.174  0.00  0.00    +0.119 HD
ATOM     74  H   UNL     1      -0.344   3.121  -6.616  0.00  0.00    +0.119 HD
ENDBRANCH  67  72
BRANCH  66  75
ATOM     75  O   UNL     1       0.097   2.845  -3.030  0.00  0.00    -0.385 OA
ATOM     76  H   UNL     1      -0.787   2.475  -3.086  0.00  0.00    +0.210 HD
ENDBRANCH  66  75
BRANCH  68  77
ATOM     77  O   UNL     1       1.145   4.859  -6.147  0.00  0.00    -0.388 OA
ATOM     78  H   UNL     1       1.849   4.501  -6.725  0.00  0.00    +0.210 HD
ENDBRANCH  68  77
ENDBRANCH  64  65
ENDBRANCH  41  64
TORSDOF 15
