REMARK  Name = 
REMARK  3 active torsions:
REMARK  status: ('A' for Active; 'I' for Inactive)
REMARK    1  A    between atoms: C_8  and  C_9
REMARK    2  A    between atoms: C_17  and  O_18
REMARK    3  A    between atoms: O_18  and  S_19
REMARK                            x       y       z     vdW  Elec       q    Type
REMARK                         _______ _______ _______ _____ _____    ______ ____
ROOT
ATOM      1 NA   UNL     1       0.000   0.000  -0.000  0.00  0.00    +0.000 Na
ENDROOT
TORSDOF 0
REMARK  Name = 
REMARK  3 active torsions:
REMARK  status: ('A' for Active; 'I' for Inactive)
REMARK    1  A    between atoms: C_8  and  C_9
REMARK    2  A    between atoms: C_17  and  O_18
REMARK    3  A    between atoms: O_18  and  S_19
REMARK                            x       y       z     vdW  Elec       q    Type
REMARK                         _______ _______ _______ _____ _____    ______ ____
ROOT
ATOM      1  C   UNL     1      -0.000  -0.000  -0.000  0.00  0.00    +0.000 C 
ATOM      2  C   UNL     1      -0.000  -0.000   0.000  0.00  0.00    +0.000 C 
ATOM      3  C   UNL     1      -0.000  -0.000   0.000  0.00  0.00    +0.000 C 
ATOM      4  C   UNL     1      -0.000  -0.000  -0.000  0.00  0.00    +0.000 A 
ATOM      5  C   UNL     1      -0.000  -0.000   0.000  0.00  0.00    +0.000 A 
ATOM      6  C   UNL     1      -0.000  -0.000   0.000  0.00  0.00    +0.000 C 
ATOM      7  C   UNL     1      -0.000  -0.000  -0.000  0.00  0.00    +0.000 A 
ATOM      8  C   UNL     1      -0.000  -0.000   0.000  0.00  0.00    +0.000 A 
ATOM      9  C   UNL     1      -0.000  -0.000   0.000  0.00  0.00    +0.000 A 
ATOM     10  C   UNL     1      -0.000  -0.000   0.000  0.00  0.00    +0.000 A 
ATOM     11  C   UNL     1      -0.000  -0.000   0.000  0.00  0.00    +0.000 C 
ATOM     12  C   UNL     1      -0.000  -0.000  -0.000  0.00  0.00    +0.000 C 
ATOM     13  C   UNL     1      -0.000  -0.000   0.000  0.00  0.00    +0.000 C 
ATOM     14  C   UNL     1      -0.000  -0.000  -0.000  0.00  0.00    +0.000 C 
ATOM     15  C   UNL     1      -0.000  -0.000   0.000  0.00  0.00    +0.000 C 
ATOM     16  C   UNL     1      -0.000  -0.000   0.000  0.00  0.00    +0.000 C 
ATOM     17  O   UNL     1      -0.000  -0.000   0.000  0.00  0.00    +0.000 OA
ATOM     18  C   UNL     1      -0.000  -0.000   0.000  0.00  0.00    +0.000 C 
ATOM     19  C   UNL     1      -0.000  -0.000   0.000  0.00  0.00    +0.000 C 
ENDROOT
BRANCH   8  20
ATOM     20  O   UNL     1      -0.000  -0.000   0.000  0.00  0.00    +0.000 OA
BRANCH  20  21
ATOM     21  S   UNL     1      -0.000  -0.000  -0.000  0.00  0.00    +0.000 S 
ATOM     22  O   UNL     1      -0.000  -0.000  -0.000  0.00  0.00    -0.330 OA
ATOM     23  O   UNL     1      -0.000  -0.000  -0.000  0.00  0.00    -0.330 OA
ATOM     24  O   UNL     1      -0.000  -0.000  -0.000  0.00  0.00    -0.330 OA
ENDBRANCH  20  21
ENDBRANCH   8  20
TORSDOF 2
