REMARK  Name = 
REMARK  5 active torsions:
REMARK  status: ('A' for Active; 'I' for Inactive)
REMARK    1  A    between atoms: N_1  and  CA_2
REMARK    2  A    between atoms: CA_2  and  CB_4
REMARK    3  A    between atoms: CA_2  and  C_10
REMARK    4  A    between atoms: CB_4  and  CG_5
REMARK    5  A    between atoms: C_10  and  O_11
REMARK                            x       y       z     vdW  Elec       q    Type
REMARK                         _______ _______ _______ _____ _____    ______ ____
ROOT
ATOM      1  CA  HIS A   1       2.426  -0.072   0.056  0.00  0.00    +0.166 C 
ENDROOT
BRANCH   1   2
ATOM      2  N   HIS A   1       0.928  -0.154   0.040  0.00  0.00    -0.318 NA
ATOM      3  H1  HIS A   1       0.645  -0.919   0.661  0.00  0.00    +0.119 HD
ATOM      4  H2  HIS A   1       0.583   0.679   0.533  0.00  0.00    +0.119 HD
ENDBRANCH   1   2
BRANCH   1   5
ATOM      5  C   HIS A   1       2.973  -0.988  -1.049  0.00  0.00    +0.322 C 
ATOM      6  OXT HIS A   1       4.154  -1.236  -1.236  0.00  0.00    -0.249 OA
BRANCH   5   7
ATOM      7  O   HIS A   1       1.971  -1.492  -1.815  0.00  0.00    -0.480 OA
ATOM      8  H   HIS A   1       1.136  -1.096  -1.457  0.00  0.00    +0.295 HD
ENDBRANCH   5   7
ENDBRANCH   1   5
BRANCH   1   9
ATOM      9  CB  HIS A   1       3.041  -0.488   1.403  0.00  0.00    +0.084 C 
BRANCH   9  10
ATOM     10  CG  HIS A   1       2.596   0.376   2.535  0.00  0.00    +0.037 A 
ATOM     11  ND1 HIS A   1       3.287   1.486   2.954  0.00  0.00    -0.348 N 
ATOM     12  HD1 HIS A   1       4.155   1.841   2.574  0.00  0.00    +0.166 HD
ATOM     13  CE1 HIS A   1       2.598   2.028   4.001  0.00  0.00    +0.196 A 
ATOM     14  NE2 HIS A   1       1.519   1.335   4.278  0.00  0.00    -0.244 NA
ATOM     15  CD2 HIS A   1       1.519   0.294   3.390  0.00  0.00    +0.133 A 
ENDBRANCH   9  10
ENDBRANCH   1   9
TORSDOF 5
