REMARK  Name = 
REMARK  5 active torsions:
REMARK  status: ('A' for Active; 'I' for Inactive)
REMARK    1  A    between atoms: C_1  and  C_2
REMARK    2  A    between atoms: C_2  and  C_4
REMARK    3  A    between atoms: C_7  and  S_10
REMARK    4  A    between atoms: S_10  and  N_13
REMARK    5  A    between atoms: N_16  and  C_17
REMARK                            x       y       z     vdW  Elec       q    Type
REMARK                         _______ _______ _______ _____ _____    ______ ____
ROOT
ATOM      1  S   UNL     1       4.776  -0.878  -5.651  0.00  0.00    +0.076 S 
ATOM      2  O   UNL     1       4.045  -0.914  -4.402  0.00  0.00    -0.150 OA
ATOM      3  O   UNL     1       6.073  -0.244  -5.731  0.00  0.00    -0.150 OA
ENDROOT
BRANCH   1   7
ATOM      4  C   UNL     1       1.924   1.129  -8.602  0.00  0.00    +0.017 A 
ATOM      5  C   UNL     1       3.237   1.598  -8.469  0.00  0.00    +0.013 A 
ATOM      6  C   UNL     1       4.123   0.960  -7.596  0.00  0.00    +0.029 A 
ATOM      7  C   UNL     1       3.689  -0.142  -6.851  0.00  0.00    +0.109 A 
ATOM      8  C   UNL     1       2.389  -0.635  -6.999  0.00  0.00    +0.029 A 
ATOM      9  C   UNL     1       1.513  -0.005  -7.887  0.00  0.00    +0.013 A 
BRANCH   4  11
ATOM     10  C   UNL     1       1.081   3.312  -9.670  0.00  0.00    +0.091 C 
ATOM     11  C   UNL     1       0.928   1.826  -9.461  0.00  0.00    +0.160 C 
ATOM     12  O   UNL     1      -0.020   1.200  -9.927  0.00  0.00    -0.292 OA
ENDBRANCH   4  11
ENDBRANCH   1   7
BRANCH   1  13
ATOM     13  N   UNL     1       4.923  -2.464  -6.127  0.00  0.00    -0.169 N 
ATOM     14  H   UNL     1       4.668  -3.124  -5.407  0.00  0.00    +0.178 HD
ATOM     15  C   UNL     1       5.348  -2.854  -7.383  0.00  0.00    +0.319 C 
ATOM     16  N   UNL     1       5.430  -4.210  -7.527  0.00  0.00    -0.295 N 
ATOM     17  H   UNL     1       5.097  -4.802  -6.784  0.00  0.00    +0.151 HD
ATOM     18  O   UNL     1       5.602  -2.056  -8.271  0.00  0.00    -0.251 OA
BRANCH  16  19
ATOM     19  C   UNL     1       5.793  -4.808  -8.807  0.00  0.00    +0.074 C 
ATOM     20  C   UNL     1       4.569  -4.961  -9.722  0.00  0.00    +0.022 C 
ATOM     21  C   UNL     1       3.641  -6.092  -9.283  0.00  0.00    +0.002 C 
ATOM     22  C   UNL     1       4.393  -7.410  -9.126  0.00  0.00    +0.000 C 
ATOM     23  C   UNL     1       5.584  -7.273  -8.183  0.00  0.00    +0.002 C 
ATOM     24  C   UNL     1       6.517  -6.144  -8.615  0.00  0.00    +0.022 C 
ENDBRANCH  16  19
ENDBRANCH   1  13
TORSDOF 4
