REMARK  Name = 
REMARK  8 active torsions:
REMARK  status: ('A' for Active; 'I' for Inactive)
REMARK    1  A    between atoms: C_1  and  N_2
REMARK    2  A    between atoms: N_2  and  C_3
REMARK    3  A    between atoms: C_6  and  O_8
REMARK    4  A    between atoms: O_8  and  C_9
REMARK    5  A    between atoms: C_9  and  C_11
REMARK    6  A    between atoms: C_11  and  O_12
REMARK    7  A    between atoms: C_11  and  C_13
REMARK    8  A    between atoms: C_11  and  C_18
REMARK                            x       y       z     vdW  Elec       q    Type
REMARK                         _______ _______ _______ _____ _____    ______ ____
ROOT
ATOM      1  C   UNL     1       6.943   0.202  -3.760  0.00  0.00    +0.190 C 
ENDROOT
BRANCH   1   2
ATOM      2  C   UNL     1       7.300   1.158  -4.914  0.00  0.00    -0.005 A 
ATOM      3  C   UNL     1       6.772   0.980  -6.207  0.00  0.00    +0.007 A 
ATOM      4  C   UNL     1       7.040   1.885  -7.238  0.00  0.00    +0.000 A 
ATOM      5  C   UNL     1       7.843   2.994  -7.003  0.00  0.00    +0.000 A 
ATOM      6  C   UNL     1       8.393   3.188  -5.741  0.00  0.00    +0.000 A 
ATOM      7  C   UNL     1       8.131   2.277  -4.711  0.00  0.00    +0.007 A 
ENDBRANCH   1   2
BRANCH   1   8
ATOM      8  C   UNL     1       7.595  -1.207  -3.885  0.00  0.00    +0.036 C 
ATOM      9  C   UNL     1       7.224  -2.075  -5.102  0.00  0.00    +0.007 C 
ATOM     10  C   UNL     1       7.287  -3.534  -4.642  0.00  0.00    +0.000 C 
ATOM     11  C   UNL     1       7.763  -3.502  -3.199  0.00  0.00    +0.000 C 
ATOM     12  C   UNL     1       7.313  -2.141  -2.694  0.00  0.00    +0.007 C 
ENDBRANCH   1   8
BRANCH   1  13
ATOM     13  C   UNL     1       5.389   0.106  -3.626  0.00  0.00    +0.344 C 
ATOM     14  O   UNL     1       4.629  -0.412  -4.438  0.00  0.00    -0.247 OA
BRANCH  13  15
ATOM     15  O   UNL     1       4.931   0.686  -2.466  0.00  0.00    -0.454 OA
BRANCH  15  19
ATOM     16  C   UNL     1       0.892   2.263  -0.901  0.00  0.00    +0.192 C 
ATOM     17  N   UNL     1       2.413   2.393  -0.927  0.00  0.00    +0.242 N 
ATOM     18  C   UNL     1       3.081   1.003  -0.911  0.00  0.00    +0.178 C 
ATOM     19  C   UNL     1       3.495   0.700  -2.360  0.00  0.00    +0.226 C 
ATOM     20  C   UNL     1       2.926   1.838  -3.200  0.00  0.00    +0.101 C 
ATOM     21  C   UNL     1       2.884   3.010  -2.243  0.00  0.00    +0.136 C 
ATOM     22  C   UNL     1       2.853   3.237   0.255  0.00  0.00    +0.192 C 
ENDBRANCH  15  19
ENDBRANCH  13  15
ENDBRANCH   1  13
BRANCH   1  23
ATOM     23  O   UNL     1       7.469   0.789  -2.545  0.00  0.00    -0.373 OA
ATOM     24  H   UNL     1       7.194   0.231  -1.801  0.00  0.00    +0.211 HD
ENDBRANCH   1  23
TORSDOF 6
