REMARK  Name = 
REMARK  6 active torsions:
REMARK  status: ('A' for Active; 'I' for Inactive)
REMARK    1  A    between atoms: C_2  and  C_10
REMARK    2  A    between atoms: C_6  and  O_7
REMARK    3  A    between atoms: C_8  and  O_9
REMARK    4  A    between atoms: C_10  and  O_12
REMARK    5  A    between atoms: C_10  and  C_13
REMARK    6  A    between atoms: C_13  and  O_14
REMARK                            x       y       z     vdW  Elec       q    Type
REMARK                         _______ _______ _______ _____ _____    ______ ____
ROOT
ATOM      1  C   UNL     1       1.966   0.186  -0.004  0.00  0.00    +0.276 C 
ATOM      2  C   UNL     1       2.463   1.244   0.910  0.00  0.00    +0.186 C 
ATOM      3  C   UNL     1       3.016   0.725   1.997  0.00  0.00    +0.244 C 
ATOM      4  C   UNL     1       2.915  -0.735   1.864  0.00  0.00    +0.378 C 
ATOM      5  O   UNL     1       3.309  -1.528   2.700  0.00  0.00    -0.241 OA
ATOM      6  O   UNL     1       2.297  -1.035   0.684  0.00  0.00    -0.445 OA
ENDROOT
BRANCH   2   7
ATOM      7  O   UNL     1       2.329   2.576   0.625  0.00  0.00    -0.504 OA
ATOM      8  H   UNL     1       2.794   3.056   1.342  0.00  0.00    +0.292 HD
ENDBRANCH   2   7
BRANCH   3   9
ATOM      9  O   UNL     1       3.554   1.396   3.057  0.00  0.00    -0.499 OA
ATOM     10  H   UNL     1       3.877   0.701   3.667  0.00  0.00    +0.293 HD
ENDBRANCH   3   9
BRANCH   1  11
ATOM     11  C   UNL     1       2.533   0.174  -1.443  0.00  0.00    +0.188 C 
BRANCH  11  12
ATOM     12  O   UNL     1       2.222   1.382  -2.159  0.00  0.00    -0.385 OA
ATOM     13  H   UNL     1       1.415   1.772  -1.777  0.00  0.00    +0.210 HD
ENDBRANCH  11  12
BRANCH  11  14
ATOM     14  C   UNL     1       4.049  -0.048  -1.541  0.00  0.00    +0.191 C 
BRANCH  14  15
ATOM     15  O   UNL     1       4.770   0.991  -0.884  0.00  0.00    -0.392 OA
ATOM     16  H   UNL     1       4.369   1.826  -1.197  0.00  0.00    +0.210 HD
ENDBRANCH  14  15
ENDBRANCH  11  14
ENDBRANCH   1  11
TORSDOF 6
