REMARK  Name = 
REMARK  11 active torsions:
REMARK  status: ('A' for Active; 'I' for Inactive)
REMARK    1  A    between atoms: C_1  and  C_2
REMARK    2  A    between atoms: C_2  and  C_3
REMARK    3  A    between atoms: C_3  and  C_4
REMARK    4  A    between atoms: C_4  and  N_5
REMARK    5  A    between atoms: N_5  and  C_6
REMARK    6  A    between atoms: C_7  and  O_8
REMARK    7  A    between atoms: O_8  and  C_9
REMARK    8  A    between atoms: C_15  and  S_22
REMARK    9  A    between atoms: C_17  and  C_19
REMARK   10  A    between atoms: C_19  and  O_20
REMARK   11  A    between atoms: S_22  and  N_23
REMARK                            x       y       z     vdW  Elec       q    Type
REMARK                         _______ _______ _______ _____ _____    ______ ____
ROOT
ATOM      1  C   UNL     1       6.516   2.612  -1.023  0.00  0.00    +0.073 A 
ATOM      2  C   UNL     1       7.592   1.699  -0.974  0.00  0.00    +0.041 A 
ATOM      3  C   UNL     1       8.925   2.098  -0.840  0.00  0.00    +0.063 A 
ATOM      4  C   UNL     1       9.224   3.449  -0.766  0.00  0.00    +0.047 A 
ATOM      5  C   UNL     1       8.174   4.378  -0.818  0.00  0.00    +0.150 A 
ATOM      6  C   UNL     1       6.816   3.987  -0.886  0.00  0.00    +0.175 A 
ENDROOT
BRANCH   5   7
ATOM      7  S   UNL     1       8.627   6.091  -0.927  0.00  0.00    +0.060 S 
ATOM      8  O   UNL     1      10.064   6.173  -1.090  0.00  0.00    -0.153 OA
ATOM      9  O   UNL     1       7.928   6.847   0.079  0.00  0.00    -0.153 OA
BRANCH   7  10
ATOM     10  N   UNL     1       8.014   6.542  -2.424  0.00  0.00    -0.203 NA
ATOM     11  H   UNL     1       8.764   6.841  -3.048  0.00  0.00    +0.144 HD
ATOM     12  H   UNL     1       7.269   7.228  -2.305  0.00  0.00    +0.144 HD
ENDBRANCH   7  10
ENDBRANCH   5   7
BRANCH   1  13
ATOM     13  N   UNL     1       5.242   2.129  -1.381  0.00  0.00    -0.341 N 
ATOM     14  H   UNL     1       4.497   2.813  -1.282  0.00  0.00    +0.146 HD
BRANCH  13  15
ATOM     15  C   UNL     1       4.865   0.787  -0.926  0.00  0.00    +0.101 C 
BRANCH  15  16
ATOM     16  C   UNL     1       3.404   0.471  -1.224  0.00  0.00    +0.018 C 
BRANCH  16  18
ATOM     17  C   UNL     1       1.641   0.098  -2.971  0.00  0.00    +0.004 C 
ATOM     18  C   UNL     1       3.091   0.476  -2.721  0.00  0.00    -0.002 C 
ENDBRANCH  16  18
ENDBRANCH  15  16
ENDBRANCH  13  15
ENDBRANCH   1  13
BRANCH   3  19
ATOM     19  C   UNL     1       9.958   1.033  -0.808  0.00  0.00    +0.337 C 
ATOM     20  O   UNL     1       9.748  -0.070  -0.339  0.00  0.00    -0.245 OA
BRANCH  19  21
ATOM     21  O   UNL     1      11.129   1.382  -1.388  0.00  0.00    -0.477 OA
ATOM     22  H   UNL     1      11.124   2.211  -1.895  0.00  0.00    +0.295 HD
ENDBRANCH  19  21
ENDBRANCH   3  19
BRANCH   6  23
ATOM     23  O   UNL     1       5.913   5.028  -0.948  0.00  0.00    -0.452 OA
BRANCH  23  24
ATOM     24  C   UNL     1       4.677   5.038  -0.346  0.00  0.00    +0.129 A 
ATOM     25  C   UNL     1       3.817   6.028  -0.838  0.00  0.00    +0.046 A 
ATOM     26  C   UNL     1       2.477   6.070  -0.452  0.00  0.00    +0.004 A 
ATOM     27  C   UNL     1       1.988   5.120   0.438  0.00  0.00    +0.000 A 
ATOM     28  C   UNL     1       2.861   4.191   1.007  0.00  0.00    +0.004 A 
ATOM     29  C   UNL     1       4.217   4.179   0.650  0.00  0.00    +0.046 A 
ENDBRANCH  23  24
ENDBRANCH   6  23
TORSDOF 10
