REMARK  Name = 
REMARK  5 active torsions:
REMARK  status: ('A' for Active; 'I' for Inactive)
REMARK    1  A    between atoms: C_1  and  C_2
REMARK    2  A    between atoms: N_10  and  N_11
REMARK    3  A    between atoms: C_12  and  C_14
REMARK    4  A    between atoms: C_16  and  S_21
REMARK    5  A    between atoms: S_21  and  N_22
REMARK                            x       y       z     vdW  Elec       q    Type
REMARK                         _______ _______ _______ _____ _____    ______ ____
ROOT
ATOM      1  N   UNL     1       2.704  -2.547   0.641  0.00  0.00    -0.230 N 
ATOM      2  H   UNL     1       2.053  -2.809   1.372  0.00  0.00    +0.173 HD
ATOM      3  C   UNL     1       2.714  -3.159  -0.606  0.00  0.00    +0.260 C 
ATOM      4  O   UNL     1       3.252  -2.717  -1.616  0.00  0.00    -0.269 OA
ENDROOT
BRANCH   1   7
ATOM      5  C   UNL     1       1.170  -0.076   0.073  0.00  0.00    +0.030 C 
ATOM      6  C   UNL     1       2.697  -0.092   0.098  0.00  0.00    +0.096 C 
ATOM      7  N   UNL     1       3.255  -1.286   0.754  0.00  0.00    -0.247 N 
ATOM      8  C   UNL     1       3.894  -0.892   1.935  0.00  0.00    +0.051 A 
ATOM      9  C   UNL     1       3.983   0.500   2.021  0.00  0.00    -0.023 A 
ATOM     10  C   UNL     1       4.686   1.130   3.035  0.00  0.00    +0.005 A 
ATOM     11  C   UNL     1       5.300   0.335   4.002  0.00  0.00    +0.000 A 
ATOM     12  C   UNL     1       5.183  -1.063   3.950  0.00  0.00    +0.002 A 
ATOM     13  C   UNL     1       4.474  -1.683   2.913  0.00  0.00    +0.025 A 
ATOM     14  C   UNL     1       3.261   1.133   0.872  0.00  0.00    +0.061 C 
ENDBRANCH   1   7
BRANCH   3  15
ATOM     15  C   UNL     1       1.901  -4.402  -0.701  0.00  0.00    +0.040 A 
ATOM     16  C   UNL     1       1.697  -5.228   0.408  0.00  0.00    +0.014 A 
ATOM     17  C   UNL     1       0.804  -6.299   0.325  0.00  0.00    +0.023 A 
ATOM     18  C   UNL     1       0.115  -6.562  -0.864  0.00  0.00    +0.067 A 
ATOM     19 CL   UNL     1      -1.034  -7.850  -0.815  0.00  0.00    -0.082 Cl
ATOM     20  C   UNL     1       0.373  -5.779  -1.992  0.00  0.00    +0.124 A 
ATOM     21  C   UNL     1       1.278  -4.708  -1.919  0.00  0.00    +0.043 A 
BRANCH  20  22
ATOM     22  S   UNL     1      -0.463  -6.068  -3.516  0.00  0.00    +0.057 S 
ATOM     23  O   UNL     1       0.166  -5.285  -4.554  0.00  0.00    -0.153 OA
ATOM     24  O   UNL     1      -1.889  -6.023  -3.285  0.00  0.00    -0.153 OA
BRANCH  22  25
ATOM     25  N   UNL     1      -0.064  -7.656  -3.877  0.00  0.00    -0.203 NA
ATOM     26  H   UNL     1       0.425  -7.699  -4.772  0.00  0.00    +0.144 HD
ATOM     27  H   UNL     1      -0.894  -8.249  -3.823  0.00  0.00    +0.144 HD
ENDBRANCH  22  25
ENDBRANCH  20  22
ENDBRANCH   3  15
TORSDOF 4
