REMARK  Name = 
REMARK  9 active torsions:
REMARK  status: ('A' for Active; 'I' for Inactive)
REMARK    1  A    between atoms: C_5  and  C_6
REMARK    2  A    between atoms: C_6  and  O_7
REMARK    3  A    between atoms: O_7  and  C_8
REMARK    4  A    between atoms: C_8  and  C_9
REMARK    5  A    between atoms: CA_11  and  C_26
REMARK    6  A    between atoms: CA_15  and  N_17
REMARK    7  A    between atoms: C_18  and  C_20
REMARK    8  A    between atoms: C_20  and  C_21
REMARK    9  A    between atoms: C_26  and  O_27
REMARK                            x       y       z     vdW  Elec       q    Type
REMARK                         _______ _______ _______ _____ _____    ______ ____
ROOT
ATOM      1  C   UNL     1       2.186  -0.083   0.035  0.00  0.00    +0.169 C 
ATOM      2  CA  UNL     1       2.833  -1.491  -0.167  0.00  0.00    +0.191 C 
ATOM      3  C   UNL     1       3.486  -0.831  -1.419  0.00  0.00    +0.244 C 
ATOM      4  O   UNL     1       4.226  -1.149  -2.321  0.00  0.00    -0.273 OA
ATOM      5  N   UNL     1       3.013   0.382  -1.068  0.00  0.00    -0.249 N 
ATOM      6  CA  UNL     1       3.238   1.697  -1.396  0.00  0.00    +0.125 C 
ATOM      7  C   UNL     1       2.848   2.680  -0.536  0.00  0.00    +0.006 C 
ATOM      8  C   UNL     1       2.241   2.419   0.829  0.00  0.00    +0.107 C 
ATOM      9  S   UNL     1       2.658   0.816   1.529  0.00  0.00    -0.131 S 
ENDROOT
BRANCH   2  10
ATOM     10  N   UNL     1       3.799  -1.960   0.869  0.00  0.00    -0.301 N 
ATOM     11  H   UNL     1       4.790  -1.764   0.769  0.00  0.00    +0.150 HD
ATOM     12  C   UNL     1       3.356  -2.468   2.073  0.00  0.00    +0.219 C 
ATOM     13  O   UNL     1       2.169  -2.709   2.285  0.00  0.00    -0.275 OA
BRANCH  12  14
ATOM     14  C   UNL     1       4.442  -2.670   3.112  0.00  0.00    +0.138 C 
BRANCH  14  15
ATOM     15  C   UNL     1       5.051  -4.025   2.954  0.00  0.00    -0.001 A 
ATOM     16  S   UNL     1       6.447  -4.240   1.984  0.00  0.00    -0.101 S 
ATOM     17  C   UNL     1       6.511  -5.911   2.337  0.00  0.00    +0.045 A 
ATOM     18  C   UNL     1       5.487  -6.303   3.170  0.00  0.00    +0.008 A 
ATOM     19  C   UNL     1       4.640  -5.214   3.523  0.00  0.00    +0.011 A 
ENDBRANCH  14  15
ENDBRANCH  12  14
ENDBRANCH   2  10
BRANCH   6  20
ATOM     20  C   UNL     1       3.979   2.058  -2.675  0.00  0.00    +0.351 C 
ATOM     21  OXT UNL     1       4.329   3.197  -2.953  0.00  0.00    -0.244 OA
BRANCH  20  22
ATOM     22  O   UNL     1       4.192   1.071  -3.566  0.00  0.00    -0.476 OA
ATOM     23  H   UNL     1       4.185   0.148  -3.232  0.00  0.00    +0.295 HD
ENDBRANCH  20  22
ENDBRANCH   6  20
BRANCH   7  24
ATOM     24  C   UNL     1       3.053   4.177  -0.780  0.00  0.00    +0.266 C 
BRANCH  24  25
ATOM     25  O   UNL     1       2.056   4.941  -0.068  0.00  0.00    -0.460 OA
BRANCH  25  26
ATOM     26  C   UNL     1       2.515   5.865   0.819  0.00  0.00    +0.304 C 
ATOM     27  O   UNL     1       3.688   6.069   1.098  0.00  0.00    -0.251 OA
ATOM     28  C   UNL     1       1.372   6.581   1.475  0.00  0.00    +0.136 C 
ENDBRANCH  25  26
ENDBRANCH  24  25
ENDBRANCH   7  24
TORSDOF 8
