REMARK  Name = 
REMARK  8 active torsions:
REMARK  status: ('A' for Active; 'I' for Inactive)
REMARK    1  A    between atoms: C_1  and  C_2
REMARK    2  A    between atoms: C_2  and  N_3
REMARK    3  A    between atoms: N_3  and  C_4
REMARK    4  A    between atoms: N_3  and  C_6
REMARK    5  A    between atoms: C_4  and  C_5
REMARK    6  A    between atoms: C_6  and  C_7
REMARK    7  A    between atoms: C_6  and  C_8
REMARK    8  A    between atoms: C_8  and  C_10
REMARK                            x       y       z     vdW  Elec       q    Type
REMARK                         _______ _______ _______ _____ _____    ______ ____
ROOT
ATOM      1  C   UNL     1       5.061  -1.312  -2.586  0.00  0.00    +0.180 C 
ATOM      2  O   UNL     1       4.412  -2.177  -3.174  0.00  0.00    -0.290 OA
ENDROOT
BRANCH   1   3
ATOM      3  C   UNL     1       6.442  -0.998  -3.100  0.00  0.00    +0.019 A 
ATOM      4  C   UNL     1       6.879  -1.653  -4.261  0.00  0.00    +0.011 A 
ATOM      5  C   UNL     1       8.160  -1.425  -4.769  0.00  0.00    +0.001 A 
ATOM      6  C   UNL     1       9.019  -0.539  -4.123  0.00  0.00    +0.000 A 
ATOM      7  C   UNL     1       8.598   0.117  -2.969  0.00  0.00    +0.001 A 
ATOM      8  C   UNL     1       7.317  -0.110  -2.458  0.00  0.00    +0.011 A 
ENDBRANCH   1   3
BRANCH   1   9
ATOM      9  C   UNL     1       4.554  -0.585  -1.318  0.00  0.00    +0.125 C 
ATOM     10  C   UNL     1       5.084  -1.409  -0.132  0.00  0.00    +0.032 C 
BRANCH   9  11
ATOM     11  N   UNL     1       3.062  -0.440  -1.304  0.00  0.00    -0.293 NA
BRANCH  11  13
ATOM     12  C   UNL     1       1.064   0.296   0.073  0.00  0.00    +0.020 C 
ATOM     13  C   UNL     1       2.580   0.156  -0.043  0.00  0.00    +0.082 C 
ENDBRANCH  11  13
BRANCH  11  14
ATOM     14  C   UNL     1       2.535   0.242  -2.504  0.00  0.00    +0.082 C 
ATOM     15  C   UNL     1       3.009   1.676  -2.732  0.00  0.00    +0.020 C 
ENDBRANCH  11  14
ENDBRANCH   9  11
ENDBRANCH   1   9
TORSDOF 5
