REMARK  Name = 
REMARK  12 active torsions:
REMARK  status: ('A' for Active; 'I' for Inactive)
REMARK    1  A    between atoms: C_1  and  C_2
REMARK    2  A    between atoms: C_4  and  N_6
REMARK    3  A    between atoms: C_7  and  C_9
REMARK    4  A    between atoms: C_9  and  C_18
REMARK    5  A    between atoms: N_10  and  O_11
REMARK    6  A    between atoms: O_11  and  C_12
REMARK    7  A    between atoms: C_12  and  C_13
REMARK    8  A    between atoms: C_12  and  C_14
REMARK    9  A    between atoms: C_12  and  C_15
REMARK   10  A    between atoms: C_15  and  O_17
REMARK   11  A    between atoms: C_21  and  N_22
REMARK   12  A    between atoms: N_29  and  S_30
REMARK                            x       y       z     vdW  Elec       q    Type
REMARK                         _______ _______ _______ _____ _____    ______ ____
ROOT
ATOM      1  C   UNL     1       3.658   4.927  -0.138  0.00  0.00    +0.190 C 
ATOM      2  N   UNL     1       4.837   4.908  -0.709  0.00  0.00    -0.077 NA
ENDROOT
BRANCH   1   3
ATOM      3  C   UNL     1       3.013   6.247  -0.026  0.00  0.00    +0.111 A 
ATOM      4  N   UNL     1       1.738   6.413   0.529  0.00  0.00    -0.183 NA
ATOM      5  C   UNL     1       1.462   7.681   0.615  0.00  0.00    +0.279 A 
ATOM      6  S   UNL     1       2.593   8.772  -0.009  0.00  0.00    -0.011 S 
ATOM      7  C   UNL     1       3.605   7.443  -0.412  0.00  0.00    +0.083 A 
BRANCH   5   8
ATOM      8  N   UNL     1       0.255   8.058   1.230  0.00  0.00    -0.389 NA
ATOM      9  H   UNL     1      -0.098   7.286   1.805  0.00  0.00    +0.373 HD
ATOM     10  H   UNL     1       0.339   8.936   1.747  0.00  0.00    +0.373 HD
ATOM     11  H   UNL     1      -0.450   8.225   0.505  0.00  0.00    +0.373 HD
ENDBRANCH   5   8
ENDBRANCH   1   3
BRANCH   1  14
ATOM     12  N   UNL     1       3.027   2.524  -0.271  0.00  0.00    -0.297 N 
ATOM     13  H   UNL     1       3.762   2.513  -0.983  0.00  0.00    +0.150 HD
ATOM     14  C   UNL     1       2.965   3.696   0.459  0.00  0.00    +0.268 C 
ATOM     15  O   UNL     1       2.391   3.816   1.536  0.00  0.00    -0.268 OA
BRANCH  12  21
ATOM     16  C   UNL     1       2.130   0.604   2.742  0.00  0.00    +0.032 C 
ATOM     17  C   UNL     1       1.567   1.124   1.437  0.00  0.00    +0.126 C 
ATOM     18  N   UNL     1       0.836   0.115   0.665  0.00  0.00    -0.179 N 
ATOM     19  C   UNL     1       1.459   0.411  -0.535  0.00  0.00    +0.256 C 
ATOM     20  O   UNL     1       1.176   0.100  -1.667  0.00  0.00    -0.272 OA
ATOM     21  C   UNL     1       2.596   1.192   0.257  0.00  0.00    +0.183 C 
BRANCH  18  22
ATOM     22  S   UNL     1      -0.456  -0.856   0.947  0.00  0.00    +0.003 S 
ATOM     23  O   UNL     1      -0.823  -0.520   2.320  0.00  0.00    -0.166 OA
ATOM     24  O   UNL     1       0.107  -2.189   0.780  0.00  0.00    -0.166 OA
ATOM     25  O   UNL     1      -1.441  -0.449  -0.048  0.00  0.00    -0.707 OA
ENDBRANCH  18  22
ENDBRANCH  12  21
ENDBRANCH   1  14
BRANCH   2  26
ATOM     26  O   UNL     1       5.402   3.631  -0.697  0.00  0.00    -0.376 OA
BRANCH  26  27
ATOM     27  C   UNL     1       6.734   3.613  -1.259  0.00  0.00    +0.228 C 
ATOM     28  C   UNL     1       7.700   4.357  -0.337  0.00  0.00    +0.070 C 
ATOM     29  C   UNL     1       6.735   4.170  -2.684  0.00  0.00    +0.070 C 
BRANCH  27  30
ATOM     30  C   UNL     1       7.066   2.113  -1.291  0.00  0.00    +0.351 C 
ATOM     31  O   UNL     1       6.278   1.238  -0.946  0.00  0.00    -0.246 OA
BRANCH  30  32
ATOM     32  O   UNL     1       8.298   1.799  -1.751  0.00  0.00    -0.478 OA
ATOM     33  H   UNL     1       8.870   2.540  -2.028  0.00  0.00    +0.295 HD
ENDBRANCH  30  32
ENDBRANCH  27  30
ENDBRANCH  26  27
ENDBRANCH   2  26
TORSDOF 9
