REMARK  Name = 
REMARK  5 active torsions:
REMARK  status: ('A' for Active; 'I' for Inactive)
REMARK    1  A    between atoms: C_1  and  C_2
REMARK    2  A    between atoms: N_4  and  C_5
REMARK    3  A    between atoms: C_8  and  N_10
REMARK    4  A    between atoms: C_13  and  C_15
REMARK    5  A    between atoms: C_15  and  O_16
REMARK                            x       y       z     vdW  Elec       q    Type
REMARK                         _______ _______ _______ _____ _____    ______ ____
ROOT
ATOM      1  C   UNL     1       5.429   2.413  -0.352  0.00  0.00    +0.226 C 
ATOM      2  O   UNL     1       6.375   2.515   0.728  0.00  0.00    -0.349 OA
ATOM      3  C   UNL     1       6.674   3.917   0.925  0.00  0.00    +0.177 C 
ATOM      4  C   UNL     1       5.731   4.723   0.018  0.00  0.00    +0.226 C 
ATOM      5  C   UNL     1       4.651   3.720  -0.332  0.00  0.00    +0.091 C 
ENDROOT
BRANCH   1  14
ATOM      6  C   UNL     1       3.270  -1.061   2.500  0.00  0.00    +0.051 C 
ATOM      7  C   UNL     1       3.562  -0.416   1.185  0.00  0.00    +0.030 A 
ATOM      8  C   UNL     1       2.910  -0.983  -0.017  0.00  0.00    +0.257 A 
ATOM      9  O   UNL     1       2.143  -1.937   0.050  0.00  0.00    -0.267 OA
ATOM     10  N   UNL     1       3.210  -0.372  -1.199  0.00  0.00    -0.275 N 
ATOM     11  H   UNL     1       2.760  -0.733  -2.026  0.00  0.00    +0.173 HD
ATOM     12  C   UNL     1       3.975   0.752  -1.358  0.00  0.00    +0.331 A 
ATOM     13  O   UNL     1       4.079   1.278  -2.464  0.00  0.00    -0.246 OA
ATOM     14  N   UNL     1       4.591   1.229  -0.208  0.00  0.00    -0.274 N 
ATOM     15  C   UNL     1       4.369   0.639   1.022  0.00  0.00    +0.101 A 
ENDBRANCH   1  14
BRANCH   4  16
ATOM     16  N   UNL     1       6.430   5.100  -1.227  0.00  0.00    +0.082 NA
ATOM     17  N   UNL     1       6.939   6.236  -1.249  0.00  0.00    -0.014 NA
ATOM     18  N   UNL     1       7.410   7.274  -1.259  0.00  0.00    -0.328 NA
ENDBRANCH   4  16
BRANCH   3  19
ATOM     19  C   UNL     1       6.496   4.237   2.413  0.00  0.00    +0.189 C 
BRANCH  19  20
ATOM     20  O   UNL     1       5.151   4.024   2.831  0.00  0.00    -0.392 OA
ATOM     21  H   UNL     1       4.988   3.069   2.739  0.00  0.00    +0.210 HD
ENDBRANCH  19  20
ENDBRANCH   3  19
TORSDOF 4
