REMARK  Name = 
REMARK  5 active torsions:
REMARK  status: ('A' for Active; 'I' for Inactive)
REMARK    1  A    between atoms: N_1  and  CA_2
REMARK    2  A    between atoms: CA_2  and  CB_4
REMARK    3  A    between atoms: CA_2  and  C_11
REMARK    4  A    between atoms: CB_4  and  CG_5
REMARK    5  A    between atoms: C_11  and  O_12
REMARK                            x       y       z     vdW  Elec       q    Type
REMARK                         _______ _______ _______ _____ _____    ______ ____
ROOT
ATOM      1  CA  PHE A   1       2.461  -0.055   0.085  0.00  0.00    +0.165 C 
ENDROOT
BRANCH   1   2
ATOM      2  N   PHE A   1       0.960  -0.065   0.003  0.00  0.00    -0.318 NA
ATOM      3  H1  PHE A   1       0.603  -0.521   0.850  0.00  0.00    +0.119 HD
ATOM      4  H2  PHE A   1       0.659   0.910   0.121  0.00  0.00    +0.119 HD
ENDBRANCH   1   2
BRANCH   1   5
ATOM      5  C   PHE A   1       2.980  -1.356  -0.548  0.00  0.00    +0.322 C 
ATOM      6  OXT PHE A   1       4.143  -1.729  -0.546  0.00  0.00    -0.249 OA
BRANCH   5   7
ATOM      7  O   PHE A   1       1.972  -2.054  -1.133  0.00  0.00    -0.480 OA
ATOM      8  H   PHE A   1       1.160  -1.499  -1.007  0.00  0.00    +0.295 HD
ENDBRANCH   5   7
ENDBRANCH   1   5
BRANCH   1   9
ATOM      9  CB  PHE A   1       2.988   0.057   1.525  0.00  0.00    +0.065 C 
BRANCH   9  10
ATOM     10  CG  PHE A   1       2.560   1.334   2.210  0.00  0.00    -0.045 A 
ATOM     11  CD2 PHE A   1       3.321   2.502   2.067  0.00  0.00    +0.004 A 
ATOM     12  CE2 PHE A   1       2.902   3.693   2.662  0.00  0.00    +0.000 A 
ATOM     13  CZ  PHE A   1       1.718   3.731   3.396  0.00  0.00    +0.000 A 
ATOM     14  CE1 PHE A   1       0.957   2.573   3.549  0.00  0.00    +0.000 A 
ATOM     15  CD1 PHE A   1       1.380   1.378   2.965  0.00  0.00    +0.004 A 
ENDBRANCH   9  10
ENDBRANCH   1   9
TORSDOF 5
