REMARK  Name = 
REMARK  4 active torsions:
REMARK  status: ('A' for Active; 'I' for Inactive)
REMARK    1  A    between atoms: C_5  and  O_6
REMARK    2  A    between atoms: O_6  and  C_7
REMARK    3  A    between atoms: N_15  and  C_16
REMARK    4  A    between atoms: C_20  and  O_21
REMARK                            x       y       z     vdW  Elec       q    Type
REMARK                         _______ _______ _______ _____ _____    ______ ____
ROOT
ATOM      1  C   UNL     1      -0.000  -0.000  -0.000  0.00  0.00    +0.252 C 
ATOM      2  C   UNL     1      -0.000  -0.000  -0.000  0.00  0.00    +0.175 C 
ATOM      3  O   UNL     1      -0.000  -0.000   0.000  0.00  0.00    -0.293 OA
ATOM      4  C   UNL     1      -0.000  -0.000  -0.000  0.00  0.00    +0.081 C 
ATOM      5  C   UNL     1      -0.000  -0.000  -0.000  0.00  0.00    +0.045 C 
ATOM      6  C   UNL     1      -0.000  -0.000   0.000  0.00  0.00    +0.096 C 
ATOM      7  C   UNL     1      -0.000  -0.000   0.000  0.00  0.00    +0.093 C 
ATOM      8  C   UNL     1      -0.000  -0.000  -0.000  0.00  0.00    +0.057 C 
ATOM      9  C   UNL     1      -0.000  -0.000   0.000  0.00  0.00    -0.038 A 
ATOM     10  C   UNL     1      -0.000  -0.000  -0.000  0.00  0.00    +0.014 A 
ATOM     11  C   UNL     1      -0.000  -0.000  -0.000  0.00  0.00    +0.167 A 
ATOM     12  C   UNL     1      -0.000  -0.000  -0.000  0.00  0.00    +0.162 A 
ATOM     13  C   UNL     1      -0.000  -0.000  -0.000  0.00  0.00    +0.050 A 
ATOM     14  C   UNL     1      -0.000  -0.000   0.000  0.00  0.00    +0.008 A 
ATOM     15  N   UNL     1      -0.000  -0.000  -0.000  0.00  0.00    -0.299 NA
ATOM     16  C   UNL     1      -0.000  -0.000  -0.000  0.00  0.00    +0.105 C 
ATOM     17  C   UNL     1      -0.000  -0.000   0.000  0.00  0.00    +0.085 C 
ATOM     18  C   UNL     1      -0.000  -0.000  -0.000  0.00  0.00    +0.034 C 
ATOM     19  C   UNL     1      -0.000  -0.000  -0.000  0.00  0.00    +0.075 C 
ATOM     20  O   UNL     1      -0.000  -0.000  -0.000  0.00  0.00    -0.476 OA
ENDROOT
BRANCH   6  21
ATOM     21  O   UNL     1      -0.000  -0.000  -0.000  0.00  0.00    -0.386 OA
ATOM     22  H   UNL     1       0.000   0.000   0.000  0.00  0.00    +0.210 HD
ENDBRANCH   6  21
BRANCH  12  23
ATOM     23  O   UNL     1      -0.000  -0.000   0.000  0.00  0.00    -0.491 OA
ATOM     24  C   UNL     1      -0.000  -0.000  -0.000  0.00  0.00    +0.277 C 
ENDBRANCH  12  23
TORSDOF 2
