REMARK  Name = 
REMARK  5 active torsions:
REMARK  status: ('A' for Active; 'I' for Inactive)
REMARK    1  A    between atoms: C_1  and  C_2
REMARK    2  A    between atoms: N_4  and  C_5
REMARK    3  A    between atoms: C_5  and  C_6
REMARK    4  A    between atoms: N_9  and  C_13
REMARK    5  A    between atoms: C_17  and  N_20
REMARK                            x       y       z     vdW  Elec       q    Type
REMARK                         _______ _______ _______ _____ _____    ______ ____
ROOT
ATOM      1  C   UNL     1       5.378   6.199  -0.877  0.00  0.00    +0.042 A 
ATOM      2  C   UNL     1       4.639   7.103  -0.107  0.00  0.00    +0.025 A 
ATOM      3  C   UNL     1       4.687   8.476  -0.375  0.00  0.00    +0.028 A 
ATOM      4  C   UNL     1       5.461   9.007  -1.419  0.00  0.00    +0.066 A 
ATOM      5  C   UNL     1       6.152   8.088  -2.213  0.00  0.00    +0.146 A 
ATOM      6  F   UNL     1       6.889   8.506  -3.257  0.00  0.00    -0.203 F 
ATOM      7  C   UNL     1       6.117   6.710  -1.946  0.00  0.00    +0.063 A 
ENDROOT
BRANCH   1  12
ATOM      8  C   UNL     1       4.453   2.765  -0.130  0.00  0.00    +0.213 C 
ATOM      9  O   UNL     1       5.774   2.601  -0.670  0.00  0.00    -0.444 OA
ATOM     10  C   UNL     1       6.191   3.838  -1.098  0.00  0.00    +0.408 C 
ATOM     11  O   UNL     1       7.192   3.975  -1.782  0.00  0.00    -0.226 OA
ATOM     12  N   UNL     1       5.337   4.811  -0.599  0.00  0.00    -0.234 N 
ATOM     13  C   UNL     1       4.456   4.198   0.353  0.00  0.00    +0.163 C 
BRANCH   8  14
ATOM     14  C   UNL     1       4.204   1.733   0.965  0.00  0.00    +0.150 C 
BRANCH  14  17
ATOM     15  C   UNL     1       3.164  -1.489  -0.737  0.00  0.00    +0.109 C 
ATOM     16  C   UNL     1       3.004  -0.108  -0.162  0.00  0.00    +0.210 C 
ATOM     17  N   UNL     1       4.148   0.380   0.429  0.00  0.00    -0.312 N 
ATOM     18  H   UNL     1       5.026  -0.089   0.237  0.00  0.00    +0.149 HD
ATOM     19  O   UNL     1       1.954   0.523  -0.221  0.00  0.00    -0.276 OA
ENDBRANCH  14  17
ENDBRANCH   8  14
ENDBRANCH   1  12
BRANCH   4  20
ATOM     20  N   UNL     1       5.463  10.388  -1.582  0.00  0.00    -0.323 N 
ATOM     21  C   UNL     1       6.102  11.133  -0.476  0.00  0.00    +0.133 C 
ATOM     22  C   UNL     1       5.552  12.565  -0.494  0.00  0.00    +0.178 C 
ATOM     23  O   UNL     1       5.815  13.209  -1.754  0.00  0.00    -0.377 OA
ATOM     24  C   UNL     1       5.245  12.456  -2.844  0.00  0.00    +0.178 C 
ATOM     25  C   UNL     1       5.776  11.006  -2.883  0.00  0.00    +0.133 C 
ENDBRANCH   4  20
TORSDOF 4
