REMARK  Name = 
REMARK  8 active torsions:
REMARK  status: ('A' for Active; 'I' for Inactive)
REMARK    1  A    between atoms: C_1  and  O_2
REMARK    2  A    between atoms: O_2  and  C_3
REMARK    3  A    between atoms: C_4  and  O_5
REMARK    4  A    between atoms: O_5  and  C_6
REMARK    5  A    between atoms: C_11  and  C_12
REMARK    6  A    between atoms: C_12  and  C_13
REMARK    7  A    between atoms: N_16  and  C_17
REMARK    8  A    between atoms: C_17  and  C_18
REMARK                            x       y       z     vdW  Elec       q    Type
REMARK                         _______ _______ _______ _____ _____    ______ ____
ROOT
ATOM      1  C   UNL     1       2.170  -1.050  -9.769  0.00  0.00    +0.162 A 
ATOM      2  C   UNL     1       1.723  -0.050  -8.886  0.00  0.00    +0.053 A 
ATOM      3  C   UNL     1       2.580   1.005  -8.610  0.00  0.00    -0.033 A 
ATOM      4  C   UNL     1       3.736   1.167  -9.374  0.00  0.00    +0.025 A 
ATOM      5  C   UNL     1       4.511   2.243  -8.783  0.00  0.00    +0.167 C 
ATOM      6  C   UNL     1       4.087   2.273  -7.342  0.00  0.00    +0.065 C 
ATOM      7  O   UNL     1       5.338   2.913  -9.365  0.00  0.00    -0.292 OA
ATOM      8  C   UNL     1       4.211   0.219 -10.244  0.00  0.00    +0.061 A 
ATOM      9  C   UNL     1       2.568   2.004  -7.464  0.00  0.00    +0.047 C 
ATOM     10  C   UNL     1       3.467  -0.953 -10.348  0.00  0.00    +0.162 A 
ENDROOT
BRANCH   1  12
ATOM     11  C   UNL     1       0.228  -2.407  -9.448  0.00  0.00    +0.277 C 
ATOM     12  O   UNL     1       1.468  -2.182 -10.100  0.00  0.00    -0.491 OA
ENDBRANCH   1  12
BRANCH  10  13
ATOM     13  O   UNL     1       4.017  -2.074 -10.933  0.00  0.00    -0.491 OA
ATOM     14  C   UNL     1       5.356  -2.331 -10.470  0.00  0.00    +0.277 C 
ENDBRANCH  10  13
BRANCH   6  15
ATOM     15  C   UNL     1       4.746   3.352  -6.483  0.00  0.00    +0.015 C 
BRANCH  15  16
ATOM     16  C   UNL     1       4.492   4.836  -6.791  0.00  0.00    -0.008 C 
ATOM     17  C   UNL     1       5.554   5.719  -6.092  0.00  0.00    +0.019 C 
ATOM     18  C   UNL     1       5.338   5.844  -4.577  0.00  0.00    +0.085 C 
ATOM     19  N   UNL     1       3.976   6.229  -4.178  0.00  0.00    -0.298 NA
ATOM     20  C   UNL     1       2.967   5.386  -4.831  0.00  0.00    +0.085 C 
ATOM     21  C   UNL     1       3.110   5.320  -6.357  0.00  0.00    +0.019 C 
BRANCH  19  22
ATOM     22  C   UNL     1       3.727   7.669  -4.342  0.00  0.00    +0.119 C 
BRANCH  22  23
ATOM     23  C   UNL     1       2.425   8.118  -3.700  0.00  0.00    -0.033 A 
ATOM     24  C   UNL     1       1.408   8.700  -4.472  0.00  0.00    +0.005 A 
ATOM     25  C   UNL     1       0.193   9.064  -3.887  0.00  0.00    +0.000 A 
ATOM     26  C   UNL     1      -0.015   8.849  -2.527  0.00  0.00    +0.000 A 
ATOM     27  C   UNL     1       0.988   8.282  -1.746  0.00  0.00    +0.000 A 
ATOM     28  C   UNL     1       2.207   7.920  -2.329  0.00  0.00    +0.005 A 
ENDBRANCH  22  23
ENDBRANCH  19  22
ENDBRANCH  15  16
ENDBRANCH   6  15
TORSDOF 6
