REMARK  Name = 
REMARK  7 active torsions:
REMARK  status: ('A' for Active; 'I' for Inactive)
REMARK    1  A    between atoms: C_1  and  O_2
REMARK    2  A    between atoms: O_2  and  C_3
REMARK    3  A    between atoms: C_4  and  N_5
REMARK    4  A    between atoms: N_5  and  C_6
REMARK    5  A    between atoms: C_22  and  N_23
REMARK    6  A    between atoms: N_23  and  S_24
REMARK    7  A    between atoms: S_24  and  C_25
REMARK                            x       y       z     vdW  Elec       q    Type
REMARK                         _______ _______ _______ _____ _____    ______ ____
ROOT
ATOM      1  N   UNL     1       2.179   2.826  -0.086  0.00  0.00    -0.311 N 
ATOM      2  H   UNL     1       1.637   2.245   0.546  0.00  0.00    +0.152 HD
ENDROOT
BRANCH   1   3
ATOM      3  C   UNL     1       1.967   4.230   0.043  0.00  0.00    +0.050 A 
ATOM      4  C   UNL     1       2.080   4.829   1.332  0.00  0.00    +0.022 A 
ATOM      5  C   UNL     1       2.017   6.236   1.394  0.00  0.00    +0.073 A 
ATOM      6  C   UNL     1       2.150   6.866   2.625  0.00  0.00    +0.028 A 
ATOM      7  C   UNL     1       2.345   6.153   3.810  0.00  0.00    +0.002 A 
ATOM      8  C   UNL     1       2.401   4.769   3.768  0.00  0.00    +0.001 A 
ATOM      9  N   UNL     1       1.847   7.007   0.316  0.00  0.00    -0.247 NA
ATOM     10  C   UNL     1       1.703   6.447  -0.888  0.00  0.00    +0.073 A 
ATOM     11  C   UNL     1       1.535   7.290  -1.982  0.00  0.00    +0.028 A 
ATOM     12  C   UNL     1       1.385   6.805  -3.283  0.00  0.00    +0.002 A 
ATOM     13  C   UNL     1       1.349   5.439  -3.498  0.00  0.00    +0.001 A 
ATOM     14  C   UNL     1       1.480   4.580  -2.411  0.00  0.00    +0.012 A 
ATOM     15  C   UNL     1       2.272   4.113   2.543  0.00  0.00    +0.012 A 
ATOM     16  C   UNL     1       1.723   5.057  -1.094  0.00  0.00    +0.022 A 
ENDBRANCH   1   3
BRANCH   1  22
ATOM     17  C   UNL     1       2.505   0.762  -1.361  0.00  0.00    +0.143 A 
ATOM     18  C   UNL     1       3.122   0.071  -2.412  0.00  0.00    +0.072 A 
ATOM     19  C   UNL     1       4.156   0.667  -3.131  0.00  0.00    +0.051 A 
ATOM     20  C   UNL     1       4.541   1.974  -2.856  0.00  0.00    +0.026 A 
ATOM     21  C   UNL     1       3.916   2.673  -1.821  0.00  0.00    +0.029 A 
ATOM     22  C   UNL     1       2.885   2.089  -1.065  0.00  0.00    +0.074 A 
BRANCH  17  24
ATOM     23  C   UNL     1       1.496  -1.193  -0.495  0.00  0.00    +0.277 C 
ATOM     24  O   UNL     1       1.499   0.229  -0.586  0.00  0.00    -0.493 OA
ENDBRANCH  17  24
BRANCH  19  25
ATOM     25  N   UNL     1       4.842  -0.098  -4.118  0.00  0.00    -0.221 N 
ATOM     26  H   UNL     1       5.861  -0.035  -4.072  0.00  0.00    +0.173 HD
BRANCH  25  27
ATOM     27  S   UNL     1       4.360   0.028  -5.728  0.00  0.00    +0.040 S 
ATOM     28  O   UNL     1       5.550  -0.257  -6.504  0.00  0.00    -0.155 OA
ATOM     29  O   UNL     1       3.598   1.237  -5.934  0.00  0.00    -0.155 OA
ATOM     30  C   UNL     1       3.279  -1.379  -5.882  0.00  0.00    +0.218 C 
ENDBRANCH  25  27
ENDBRANCH  19  25
ENDBRANCH   1  22
TORSDOF 5
