REMARK  Name = 
REMARK  6 active torsions:
REMARK  status: ('A' for Active; 'I' for Inactive)
REMARK    1  A    between atoms: C_1  and  C_2
REMARK    2  A    between atoms: C_2  and  C_3
REMARK    3  A    between atoms: C_3  and  S_4
REMARK    4  A    between atoms: S_4  and  C_5
REMARK    5  A    between atoms: C_14  and  O_16
REMARK    6  A    between atoms: O_16  and  C_17
REMARK                            x       y       z     vdW  Elec       q    Type
REMARK                         _______ _______ _______ _____ _____    ______ ____
ROOT
ATOM      1  C   UNL     1       5.299   1.831  -2.491  0.00  0.00    +0.010 A 
ATOM      2  C   UNL     1       5.023   3.197  -2.354  0.00  0.00    +0.017 A 
ATOM      3  C   UNL     1       5.340   4.104  -3.373  0.00  0.00    +0.031 A 
ATOM      4  C   UNL     1       5.948   3.618  -4.536  0.00  0.00    +0.091 A 
ATOM      5  N   UNL     1       6.341   4.296  -5.654  0.00  0.00    -0.214 NA
ATOM      6  C   UNL     1       6.861   3.405  -6.462  0.00  0.00    +0.203 A 
ATOM      7  N   UNL     1       6.824   2.155  -5.889  0.00  0.00    -0.326 N 
ATOM      8  H   UNL     1       7.167   1.303  -6.304  0.00  0.00    +0.169 HD
ATOM      9  N   UNL     1       7.380   3.618  -7.712  0.00  0.00    -0.221 N 
ATOM     10  H   UNL     1       7.758   2.868  -8.266  0.00  0.00    +0.161 HD
ATOM     11  C   UNL     1       7.396   4.866  -8.277  0.00  0.00    +0.406 C 
ATOM     12  O   UNL     1       6.996   5.922  -7.809  0.00  0.00    -0.226 OA
ATOM     13  C   UNL     1       6.233   2.264  -4.652  0.00  0.00    +0.068 A 
ATOM     14  C   UNL     1       5.931   1.337  -3.647  0.00  0.00    +0.042 A 
ENDROOT
BRANCH  11  15
ATOM     15  O   UNL     1       7.953   4.771  -9.520  0.00  0.00    -0.453 OA
ATOM     16  C   UNL     1       8.011   6.028 -10.201  0.00  0.00    +0.282 C 
ENDBRANCH  11  15
BRANCH   1  17
ATOM     17  S   UNL     1       4.918   0.690  -1.167  0.00  0.00    -0.125 S 
BRANCH  17  18
ATOM     18  C   UNL     1       3.104   0.899  -1.067  0.00  0.00    +0.074 C 
BRANCH  18  20
ATOM     19  C   UNL     1       1.033   0.128   0.149  0.00  0.00    +0.004 C 
ATOM     20  C   UNL     1       2.548   0.014   0.047  0.00  0.00    +0.008 C 
ENDBRANCH  18  20
ENDBRANCH  17  18
ENDBRANCH   1  17
TORSDOF 4
