REMARK  Name = 
REMARK  0 active torsions:
REMARK  status: ('A' for Active; 'I' for Inactive)
REMARK                            x       y       z     vdW  Elec       q    Type
REMARK                         _______ _______ _______ _____ _____    ______ ____
ROOT
ATOM      1  N   UNL     1       2.348  -1.218  -0.480  0.00  0.00    -0.313 N 
ATOM      2  H   UNL     1       3.123  -1.846  -0.315  0.00  0.00    +0.147 HD
ATOM      3  H   UNL     1       2.059  -1.148  -1.446  0.00  0.00    +0.147 HD
ATOM      4  C   UNL     1       2.391  -0.007   0.159  0.00  0.00    +0.308 C 
ATOM      5  N   UNL     1       3.087   0.010   1.360  0.00  0.00    -0.223 N 
ATOM      6  C   UNL     1       3.541  -1.162   2.029  0.00  0.00    +0.050 A 
ATOM      7  C   UNL     1       4.908  -1.418   2.224  0.00  0.00    -0.003 A 
ATOM      8  C   UNL     1       5.293  -2.608   2.859  0.00  0.00    +0.010 A 
ATOM      9  C   UNL     1       4.335  -3.514   3.320  0.00  0.00    +0.001 A 
ATOM     10  C   UNL     1       2.981  -3.255   3.131  0.00  0.00    +0.002 A 
ATOM     11  C   UNL     1       5.960  -0.551   1.681  0.00  0.00    +0.010 C 
ATOM     12  C   UNL     1       5.906   0.789   1.663  0.00  0.00    +0.010 C 
ATOM     13  C   UNL     1       4.791   1.589   2.188  0.00  0.00    -0.003 A 
ATOM     14  C   UNL     1       5.101   2.799   2.828  0.00  0.00    +0.010 A 
ATOM     15  C   UNL     1       4.088   3.638   3.293  0.00  0.00    +0.001 A 
ATOM     16  C   UNL     1       2.753   3.293   3.086  0.00  0.00    +0.002 A 
ATOM     17  C   UNL     1       2.432   2.110   2.418  0.00  0.00    +0.024 A 
ATOM     18  C   UNL     1       2.584  -2.088   2.480  0.00  0.00    +0.024 A 
ATOM     19  C   UNL     1       3.444   1.240   1.980  0.00  0.00    +0.050 A 
ATOM     20  O   UNL     1       1.896   0.965  -0.405  0.00  0.00    -0.252 OA
ENDROOT
TORSDOF 0
