REMARK  Name = 
REMARK  11 active torsions:
REMARK  status: ('A' for Active; 'I' for Inactive)
REMARK    1  A    between atoms: C_2  and  CA_4
REMARK    2  A    between atoms: CA_4  and  N_6
REMARK    3  A    between atoms: CA_4  and  C_10
REMARK    4  A    between atoms: C_7  and  C_8
REMARK    5  A    between atoms: C_10  and  O_12
REMARK    6  A    between atoms: C_10  and  C_13
REMARK    7  A    between atoms: C_13  and  O_15
REMARK    8  A    between atoms: C_13  and  C_16
REMARK    9  A    between atoms: C_16  and  O_18
REMARK   10  A    between atoms: C_16  and  C_19
REMARK   11  A    between atoms: C_19  and  O_20
REMARK                            x       y       z     vdW  Elec       q    Type
REMARK                         _______ _______ _______ _____ _____    ______ ____
ROOT
ATOM      1  C   UNL     1       6.437   0.629  -0.838  0.00  0.00    +0.173 C 
ENDROOT
BRANCH   1   2
ATOM      2  O   UNL     1       7.621   0.988  -0.098  0.00  0.00    -0.387 OA
ATOM      3  H   UNL     1       7.360   1.337   0.780  0.00  0.00    +0.210 HD
ENDBRANCH   1   2
BRANCH   1   4
ATOM      4  CA  UNL     1       5.281   0.271   0.127  0.00  0.00    +0.167 C 
BRANCH   4   5
ATOM      5  N   UNL     1       4.748   1.448   0.834  0.00  0.00    -0.304 N 
ATOM      6  H   UNL     1       3.861   1.823   0.496  0.00  0.00    +0.149 HD
ATOM      7  C   UNL     1       5.401   2.070   1.860  0.00  0.00    +0.211 C 
ATOM      8  O   UNL     1       6.507   1.704   2.247  0.00  0.00    -0.276 OA
ATOM      9  C   UNL     1       4.699   3.273   2.424  0.00  0.00    +0.109 C 
ENDBRANCH   4   5
BRANCH   4  10
ATOM     10  C   UNL     1       4.094  -0.324  -0.614  0.00  0.00    +0.248 C 
ATOM     11  O   UNL     1       3.098   0.320  -0.938  0.00  0.00    -0.299 OA
ENDBRANCH   4  10
ENDBRANCH   1   4
BRANCH   1  12
ATOM     12  C   UNL     1       6.841  -0.513  -1.816  0.00  0.00    +0.176 C 
BRANCH  12  13
ATOM     13  O   UNL     1       7.234  -1.692  -1.095  0.00  0.00    -0.387 OA
ATOM     14  H   UNL     1       6.452  -2.241  -0.919  0.00  0.00    +0.210 HD
ENDBRANCH  12  13
BRANCH  12  15
ATOM     15  C   UNL     1       8.006  -0.067  -2.737  0.00  0.00    +0.171 C 
BRANCH  15  16
ATOM     16  O   UNL     1       7.592   1.063  -3.511  0.00  0.00    -0.387 OA
ATOM     17  H   UNL     1       8.396   1.425  -3.927  0.00  0.00    +0.210 HD
ENDBRANCH  15  16
BRANCH  15  18
ATOM     18  C   UNL     1       8.458  -1.183  -3.696  0.00  0.00    +0.189 C 
BRANCH  18  19
ATOM     19  O   UNL     1       9.005  -2.314  -3.034  0.00  0.00    -0.392 OA
ATOM     20  H   UNL     1       8.675  -2.299  -2.111  0.00  0.00    +0.210 HD
ENDBRANCH  18  19
ENDBRANCH  15  18
ENDBRANCH  12  15
ENDBRANCH   1  12
TORSDOF 10
