REMARK  Name = 
REMARK  6 active torsions:
REMARK  status: ('A' for Active; 'I' for Inactive)
REMARK    1  A    between atoms: C_15  and  N_20
REMARK    2  A    between atoms: N_18  and  C_19
REMARK    3  A    between atoms: N_23  and  C_24
REMARK    4  A    between atoms: N_23  and  C_26
REMARK    5  A    between atoms: C_24  and  C_25
REMARK    6  A    between atoms: C_26  and  C_27
REMARK                            x       y       z     vdW  Elec       q    Type
REMARK                         _______ _______ _______ _____ _____    ______ ____
ROOT
ATOM      1  C   UNL     1       2.415  -0.948   0.043  0.00  0.00    +0.091 C 
ATOM      2  N   UNL     1       3.045  -0.544   1.291  0.00  0.00    -0.296 NA
ATOM      3  C   UNL     1       4.450  -0.331   1.411  0.00  0.00    +0.105 C 
ATOM      4  C   UNL     1       2.226  -0.974   2.415  0.00  0.00    +0.111 C 
ATOM      5  C   UNL     1       0.697  -0.875   2.012  0.00  0.00    +0.112 C 
ATOM      6  C   UNL     1       0.438   0.214   0.931  0.00  0.00    +0.002 C 
ATOM      7  C   UNL     1       1.291   0.126  -0.149  0.00  0.00    -0.024 C 
ATOM      8  C   UNL     1       1.207   0.671  -1.537  0.00  0.00    -0.011 A 
ATOM      9  C   UNL     1       1.560  -0.302  -2.493  0.00  0.00    +0.010 A 
ATOM     10  C   UNL     1       1.327  -0.179  -3.849  0.00  0.00    +0.047 A 
ATOM     11  C   UNL     1       0.962   1.041  -4.399  0.00  0.00    +0.026 A 
ATOM     12  C   UNL     1       0.839   2.107  -3.486  0.00  0.00    +0.003 A 
ATOM     13  N   UNL     1       1.552  -1.435  -4.381  0.00  0.00    -0.360 N 
ATOM     14  H   UNL     1       1.336  -1.711  -5.328  0.00  0.00    +0.165 HD
ATOM     15  C   UNL     1       2.214  -2.221  -3.461  0.00  0.00    +0.087 A 
ATOM     16  C   UNL     1       2.385  -1.441  -2.347  0.00  0.00    -0.020 A 
ATOM     17  C   UNL     1       0.899   1.921  -2.078  0.00  0.00    +0.009 A 
ATOM     18  C   UNL     1       3.227  -1.525  -1.131  0.00  0.00    +0.061 C 
ENDROOT
BRANCH   5  19
ATOM     19  N   UNL     1      -0.207  -1.111   3.134  0.00  0.00    -0.292 N 
ATOM     20  H   UNL     1      -0.204  -0.420   3.867  0.00  0.00    +0.151 HD
ATOM     21  C   UNL     1      -0.254  -2.447   3.542  0.00  0.00    +0.303 C 
ATOM     22  N   UNL     1      -1.013  -2.778   4.648  0.00  0.00    -0.286 N 
ATOM     23  O   UNL     1       0.344  -3.332   2.926  0.00  0.00    -0.253 OA
BRANCH  22  24
ATOM     24  C   UNL     1      -0.981  -4.185   5.070  0.00  0.00    +0.106 C 
ATOM     25  C   UNL     1       0.088  -4.489   6.119  0.00  0.00    +0.024 C 
ENDBRANCH  22  24
BRANCH  22  26
ATOM     26  C   UNL     1      -1.638  -1.802   5.554  0.00  0.00    +0.106 C 
ATOM     27  C   UNL     1      -2.919  -2.296   6.217  0.00  0.00    +0.024 C 
ENDBRANCH  22  26
ENDBRANCH   5  19
TORSDOF 3
