REMARK  Name = 
REMARK  13 active torsions:
REMARK  status: ('A' for Active; 'I' for Inactive)
REMARK    1  A    between atoms: C_9  and  C_12
REMARK    2  A    between atoms: C_12  and  O_13
REMARK    3  A    between atoms: C_15  and  C_17
REMARK    4  A    between atoms: C_17  and  C_19
REMARK    5  A    between atoms: C_17  and  N_20
REMARK    6  A    between atoms: N_20  and  C_21
REMARK    7  A    between atoms: C_21  and  C_23
REMARK    8  A    between atoms: C_21  and  C_31
REMARK    9  A    between atoms: C_23  and  C_24
REMARK   10  A    between atoms: C_24  and  C_25
REMARK   11  A    between atoms: C_31  and  O_33
REMARK   12  A    between atoms: O_33  and  C_34
REMARK   13  A    between atoms: C_34  and  C_35
REMARK                            x       y       z     vdW  Elec       q    Type
REMARK                         _______ _______ _______ _____ _____    ______ ____
ROOT
ATOM      1  C   UNK A   1       5.422  -2.080  -1.965  0.00  0.00    +0.138 C 
ATOM      2  C   UNK A   1       4.215  -1.571  -2.763  0.00  0.00    +0.034 C 
ENDROOT
BRANCH   1   7
ATOM      3  C   UNK A   1       7.185  -3.478   2.017  0.00  0.00    +0.012 C 
ATOM      4  C   UNK A   1       6.560  -4.857   1.914  0.00  0.00    +0.039 C 
ATOM      5  C   UNK A   1       5.368  -4.684   0.964  0.00  0.00    +0.185 C 
ATOM      6  N   UNK A   1       5.640  -3.432   0.207  0.00  0.00    -0.283 N 
ATOM      7  C   UNK A   1       4.985  -3.211  -0.995  0.00  0.00    +0.233 C 
ATOM      8  O   UNK A   1       3.990  -3.906  -1.247  0.00  0.00    -0.274 OA
ATOM      9  C   UNK A   1       6.893  -2.811   0.662  0.00  0.00    +0.080 C 
ATOM     10  C   UNK A   1       6.858  -1.335   1.056  0.00  0.00    +0.023 C 
ATOM     11  C   UNK A   1       6.101  -1.312   2.371  0.00  0.00    +0.002 C 
ATOM     12  C   UNK A   1       6.558  -2.572   3.094  0.00  0.00    +0.005 C 
BRANCH   5  13
ATOM     13  C   UNK A   1       4.037  -4.808   1.741  0.00  0.00    +0.325 C 
ATOM     14  O   UNK A   1       3.886  -5.514   2.730  0.00  0.00    -0.249 OA
BRANCH  13  15
ATOM     15  O   UNK A   1       2.981  -4.182   1.170  0.00  0.00    -0.479 OA
ATOM     16  H   UNK A   1       3.187  -3.924   0.243  0.00  0.00    +0.295 HD
ENDBRANCH  13  15
ENDBRANCH   5  13
ENDBRANCH   1   7
BRANCH   1  17
ATOM     17  N   UNK A   1       6.506  -2.558  -2.873  0.00  0.00    -0.294 NA
ATOM     18  H   UNK A   1       6.123  -3.325  -3.433  0.00  0.00    +0.123 HD
BRANCH  17  19
ATOM     19  C   UNK A   0       6.984  -1.491  -3.804  0.00  0.00    +0.164 C 
BRANCH  19  20
ATOM     20  C   UNK A   0       7.760  -2.095  -4.985  0.00  0.00    +0.324 C 
ATOM     21  O   UNK A   0       8.946  -2.395  -4.987  0.00  0.00    -0.249 OA
BRANCH  20  22
ATOM     22  O   UNK A   0       6.927  -2.152  -6.070  0.00  0.00    -0.464 OA
BRANCH  22  23
ATOM     23  C   UNK A   0       7.551  -2.300  -7.353  0.00  0.00    +0.229 C 
ATOM     24  C   UNK A   0       7.748  -0.916  -7.948  0.00  0.00    +0.048 C 
ENDBRANCH  22  23
ENDBRANCH  20  22
ENDBRANCH  19  20
BRANCH  19  25
ATOM     25  C   UNK A   0       7.845  -0.458  -3.072  0.00  0.00    +0.035 C 
BRANCH  25  26
ATOM     26  C   UNK A   0       8.389   0.665  -3.971  0.00  0.00    +0.037 C 
BRANCH  26  27
ATOM     27  C   UNK A   0       9.102   1.653  -3.081  0.00  0.00    -0.047 A 
ATOM     28  C   UNK A   0       8.379   2.662  -2.430  0.00  0.00    +0.003 A 
ATOM     29  C   UNK A   0       8.983   3.417  -1.427  0.00  0.00    +0.000 A 
ATOM     30  C   UNK A   0      10.312   3.181  -1.079  0.00  0.00    +0.000 A 
ATOM     31  C   UNK A   0      11.051   2.212  -1.757  0.00  0.00    +0.000 A 
ATOM     32  C   UNK A   0      10.450   1.452  -2.758  0.00  0.00    +0.003 A 
ENDBRANCH  26  27
ENDBRANCH  25  26
ENDBRANCH  19  25
ENDBRANCH  17  19
ENDBRANCH   1  17
TORSDOF 11
