REMARK  Name = 
REMARK  12 active torsions:
REMARK  status: ('A' for Active; 'I' for Inactive)
REMARK    1  A    between atoms: C_1  and  O_2
REMARK    2  A    between atoms: O_2  and  C_3
REMARK    3  A    between atoms: N_6  and  C_7
REMARK    4  A    between atoms: C_7  and  C_8
REMARK    5  A    between atoms: C_8  and  C_9
REMARK    6  A    between atoms: C_9  and  O_10
REMARK    7  A    between atoms: O_10  and  C_11
REMARK    8  A    between atoms: C_20  and  N_22
REMARK    9  A    between atoms: C_23  and  C_25
REMARK   10  A    between atoms: C_29  and  N_30
REMARK   11  A    between atoms: C_32  and  O_33
REMARK   12  A    between atoms: O_33  and  C_34
REMARK                            x       y       z     vdW  Elec       q    Type
REMARK                         _______ _______ _______ _____ _____    ______ ____
ROOT
ATOM      1  C   UNL     1       2.902   0.623   1.123  0.00  0.00    +0.152 C 
ATOM      2  C   UNL     1       2.728   2.154   0.950  0.00  0.00    +0.104 C 
ATOM      3  C   UNL     1       3.602   2.639  -0.209  0.00  0.00    +0.040 C 
ATOM      4  C   UNL     1       5.072   2.265   0.026  0.00  0.00    +0.086 C 
ATOM      5  N   UNL     1       5.249   0.831   0.279  0.00  0.00    -0.300 NA
ATOM      6  C   UNL     1       4.403   0.366   1.403  0.00  0.00    +0.117 C 
ENDROOT
BRANCH   2   7
ATOM      7  N   UNL     1       1.334   2.589   0.803  0.00  0.00    -0.306 N 
ATOM      8  H   UNL     1       1.011   2.817  -0.125  0.00  0.00    +0.149 HD
ATOM      9  C   UNL     1       0.465   2.624   1.886  0.00  0.00    +0.248 C 
ATOM     10  O   UNL     1       0.843   2.395   3.027  0.00  0.00    -0.270 OA
BRANCH   9  11
ATOM     11  C   UNL     1      -0.983   2.880   1.577  0.00  0.00    +0.080 A 
ATOM     12  C   UNL     1      -1.854   3.485   2.504  0.00  0.00    +0.134 A 
ATOM     13  C   UNL     1      -3.223   3.599   2.193  0.00  0.00    +0.070 A 
ATOM     14  C   UNL     1      -3.746   3.132   0.982  0.00  0.00    +0.047 A 
ATOM     15  C   UNL     1      -2.874   2.485   0.096  0.00  0.00    +0.062 A 
ATOM     16 CL   UNL     1      -3.457   1.806  -1.382  0.00  0.00    -0.082 Cl
ATOM     17  C   UNL     1      -1.510   2.379   0.377  0.00  0.00    +0.038 A 
BRANCH  14  18
ATOM     18  N   UNL     1      -5.140   3.109   0.804  0.00  0.00    -0.357 N 
ATOM     19  H   UNL     1      -5.644   3.861   1.266  0.00  0.00    +0.142 HD
ATOM     20  H   UNL     1      -5.417   2.988  -0.170  0.00  0.00    +0.142 HD
ENDBRANCH  14  18
BRANCH  12  21
ATOM     21  O   UNL     1      -1.329   3.992   3.665  0.00  0.00    -0.494 OA
ATOM     22  C   UNL     1      -2.220   4.082   4.776  0.00  0.00    +0.277 C 
ENDBRANCH  12  21
ENDBRANCH   9  11
ENDBRANCH   2   7
BRANCH   1  24
ATOM     23  C   UNL     1       1.230  -0.230  -0.402  0.00  0.00    +0.194 C 
ATOM     24  O   UNL     1       2.593  -0.166  -0.046  0.00  0.00    -0.377 OA
ENDBRANCH   1  24
BRANCH   5  25
ATOM     25  C   UNL     1       6.664   0.469   0.440  0.00  0.00    +0.088 C 
BRANCH  25  26
ATOM     26  C   UNL     1       6.918  -1.045   0.458  0.00  0.00    +0.056 C 
BRANCH  26  27
ATOM     27  C   UNL     1       6.333  -1.743  -0.767  0.00  0.00    +0.230 C 
BRANCH  27  28
ATOM     28  O   UNL     1       6.579  -3.149  -0.656  0.00  0.00    -0.492 OA
BRANCH  28  29
ATOM     29  C   UNL     1       6.198  -3.889  -1.744  0.00  0.00    +0.121 A 
ATOM     30  C   UNL     1       5.199  -3.529  -2.655  0.00  0.00    +0.048 A 
ATOM     31  C   UNL     1       4.917  -4.354  -3.746  0.00  0.00    +0.042 A 
ATOM     32  C   UNL     1       5.625  -5.538  -3.912  0.00  0.00    +0.124 A 
ATOM     33  F   UNL     1       5.363  -6.320  -4.968  0.00  0.00    -0.205 F 
ATOM     34  C   UNL     1       6.595  -5.925  -2.997  0.00  0.00    +0.042 A 
ATOM     35  C   UNL     1       6.876  -5.100  -1.906  0.00  0.00    +0.048 A 
ENDBRANCH  28  29
ENDBRANCH  27  28
ENDBRANCH  26  27
ENDBRANCH  25  26
ENDBRANCH   5  25
TORSDOF 10
