REMARK  Name = 
REMARK  6 active torsions:
REMARK  status: ('A' for Active; 'I' for Inactive)
REMARK    1  A    between atoms: C_1  and  N_2
REMARK    2  A    between atoms: N_2  and  C_3
REMARK    3  A    between atoms: C_3  and  C_5
REMARK    4  A    between atoms: C_3  and  C_6
REMARK    5  A    between atoms: C_6  and  O_8
REMARK    6  A    between atoms: C_6  and  C_9
REMARK                            x       y       z     vdW  Elec       q    Type
REMARK                         _______ _______ _______ _____ _____    ______ ____
ROOT
ATOM      1  C   UNL     1       4.385   0.317   1.425  0.00  0.00    +0.161 C 
ENDROOT
BRANCH   1   2
ATOM      2  C   UNL     1       5.016   0.645   2.760  0.00  0.00    -0.018 A 
ATOM      3  C   UNL     1       4.751   1.855   3.418  0.00  0.00    +0.006 A 
ATOM      4  C   UNL     1       5.322   2.128   4.664  0.00  0.00    +0.000 A 
ATOM      5  C   UNL     1       6.174   1.200   5.261  0.00  0.00    +0.000 A 
ATOM      6  C   UNL     1       6.457   0.000   4.613  0.00  0.00    +0.000 A 
ATOM      7  C   UNL     1       5.884  -0.277   3.371  0.00  0.00    +0.006 A 
ENDBRANCH   1   2
BRANCH   1   8
ATOM      8  C   UNL     1       2.822   0.246   1.438  0.00  0.00    +0.083 C 
ATOM      9  C   UNL     1       2.331  -0.810   2.436  0.00  0.00    +0.027 C 
BRANCH   8  11
ATOM     10  C   UNL     1       0.894  -0.039  -0.068  0.00  0.00    +0.101 C 
ATOM     11  N   UNL     1       2.348  -0.022   0.051  0.00  0.00    -0.314 NA
ATOM     12  H   UNL     1       2.690   0.744  -0.533  0.00  0.00    +0.122 HD
ENDBRANCH   8  11
ENDBRANCH   1   8
BRANCH   1  13
ATOM     13  O   UNL     1       4.808   1.321   0.490  0.00  0.00    -0.386 OA
ATOM     14  H   UNL     1       4.780   0.889  -0.380  0.00  0.00    +0.210 HD
ENDBRANCH   1  13
TORSDOF 4
