REMARK  Name = 
REMARK  3 active torsions:
REMARK  status: ('A' for Active; 'I' for Inactive)
REMARK    1  A    between atoms: N_4  and  C_5
REMARK    2  A    between atoms: C_5  and  C_7
REMARK    3  A    between atoms: C_8  and  N_9
REMARK                            x       y       z     vdW  Elec       q    Type
REMARK                         _______ _______ _______ _____ _____    ______ ____
ROOT
ATOM      1  C   UNL     1       5.393   2.068  -1.279  0.00  0.00    +0.186 A 
ATOM      2  N   UNL     1       6.391   1.783  -2.164  0.00  0.00    -0.222 NA
ATOM      3  C   UNL     1       6.952   2.865  -2.738  0.00  0.00    +0.170 A 
ATOM      4 CL   UNL     1       8.204   2.494  -3.857  0.00  0.00    -0.058 Cl
ATOM      5  C   UNL     1       6.539   4.185  -2.487  0.00  0.00    +0.156 A 
ATOM      6  N   UNL     1       7.162   5.304  -3.041  0.00  0.00    -0.341 N 
ATOM      7  H   UNL     1       7.316   5.220  -4.040  0.00  0.00    +0.144 HD
ATOM      8  H   UNL     1       6.641   6.136  -2.778  0.00  0.00    +0.144 HD
ATOM      9  N   UNL     1       5.540   4.443  -1.613  0.00  0.00    -0.213 NA
ATOM     10  C   UNL     1       4.961   3.377  -1.005  0.00  0.00    +0.151 A 
ENDROOT
BRANCH  10  11
ATOM     11  N   UNL     1       4.024   3.703  -0.028  0.00  0.00    -0.341 N 
ATOM     12  H   UNL     1       3.804   4.693  -0.075  0.00  0.00    +0.144 HD
ATOM     13  H   UNL     1       3.208   3.092  -0.041  0.00  0.00    +0.144 HD
ENDBRANCH  10  11
BRANCH   1  14
ATOM     14  C   UNL     1       4.715   0.904  -0.635  0.00  0.00    +0.362 C 
ATOM     15  O   UNL     1       3.515   0.970  -0.364  0.00  0.00    -0.247 OA
BRANCH  14  20
ATOM     16  N   UNL     1       5.799  -2.426  -0.107  0.00  0.00    -0.291 N 
ATOM     17  H   UNL     1       6.723  -2.149   0.207  0.00  0.00    +0.254 HD
ATOM     18  H   UNL     1       5.408  -3.179   0.437  0.00  0.00    +0.254 HD
ATOM     19  C   UNL     1       5.004  -1.359  -0.344  0.00  0.00    +0.375 C 
ATOM     20  N   UNL     1       5.523  -0.181  -0.376  0.00  0.00    +0.002 NA
ATOM     21  N   UNL     1       3.724  -1.728  -0.570  0.00  0.00    -0.291 N 
ATOM     22  H   UNL     1       3.071  -0.944  -0.545  0.00  0.00    +0.254 HD
ATOM     23  H   UNL     1       3.380  -2.526  -0.056  0.00  0.00    +0.254 HD
ENDBRANCH  14  20
ENDBRANCH   1  14
TORSDOF 3
